# generated using pymatgen
data_La9Ce10Pr6Nd4Sm3(BiS2)32
_symmetry_space_group_name_H-M   'P 1'
_cell_length_a   16.17188448
_cell_length_b   16.20550632
_cell_length_c   27.03988532
_cell_angle_alpha   90.00042006
_cell_angle_beta   89.93895608
_cell_angle_gamma   90.07254578
_symmetry_Int_Tables_number   1
_chemical_formula_structural   La9Ce10Pr6Nd4Sm3(BiS2)32
_chemical_formula_sum   'La18 Ce20 Pr12 Nd8 Sm6 Bi64 S128'
_cell_volume   7086.42974304
_cell_formula_units_Z   2
loop_
 _symmetry_equiv_pos_site_id
 _symmetry_equiv_pos_as_xyz
  1  'x, y, z'
loop_
 _atom_type_symbol
 _atom_type_oxidation_number
  La3+  3.0
  Ce3+  3.0
  Pr3+  3.0
  Nd3+  3.0
  Sm3+  3.0
  Bi2+  2.0
  S2-  -2.0
loop_
 _atom_site_type_symbol
 _atom_site_label
 _atom_site_symmetry_multiplicity
 _atom_site_fract_x
 _atom_site_fract_y
 _atom_site_fract_z
 _atom_site_occupancy
  La3+  La0  1  0.24008679  0.38834806  0.56388869  1
  La3+  La1  1  0.36455073  0.26038990  0.91541958  1
  La3+  La2  1  0.75900395  0.87978332  0.08119078  1
  La3+  La3  1  0.11415667  0.24788719  0.42333822  1
  La3+  La4  1  0.37442887  0.74995480  0.41969102  1
  La3+  La5  1  0.87268627  0.00672837  0.42657722  1
  La3+  La6  1  0.62832463  0.25243082  0.93617251  1
  La3+  La7  1  0.12013161  0.51257627  0.42365723  1
  La3+  La8  1  -0.01028281  0.37794234  0.57301216  1
  La3+  La9  1  -0.00015529  0.38268032  0.09289056  1
  La3+  La10  1  0.00234254  0.62551162  0.07027083  1
  La3+  La11  1  0.37085059  0.01568625  0.43380130  1
  La3+  La12  1  0.88879016  0.49638470  0.90060982  1
  La3+  La13  1  0.74910310  0.64025740  0.57442786  1
  La3+  La14  1  0.61463671  0.00314728  0.43018378  1
  La3+  La15  1  0.62932196  0.74960717  0.39720788  1
  La3+  La16  1  0.48843443  0.87263666  0.58171826  1
  La3+  La17  1  0.38241385  -0.00513611  0.89670707  1
  Ce3+  Ce18  1  0.00201423  0.88158389  0.05917653  1
  Ce3+  Ce19  1  0.25591594  0.87997286  0.05789804  1
  Ce3+  Ce20  1  -0.00551313  0.88077308  0.55442636  1
  Ce3+  Ce21  1  0.37549944  0.50417359  0.94278365  1
  Ce3+  Ce22  1  0.88506104  0.25460131  0.94319594  1
  Ce3+  Ce23  1  0.13387541  0.00556383  0.94381817  1
  Ce3+  Ce24  1  0.12608448  0.75199063  0.94547421  1
  Ce3+  Ce25  1  0.63272904  0.75663931  0.94480674  1
  Ce3+  Ce26  1  0.50266289  0.88136425  0.05844738  1
  Ce3+  Ce27  1  0.37827476  0.75413892  0.93542607  1
  Ce3+  Ce28  1  -0.00470372  0.62597946  0.56502711  1
  Ce3+  Ce29  1  0.25527683  0.37673551  0.06907689  1
  Ce3+  Ce30  1  0.12169131  0.75239602  0.44578670  1
  Ce3+  Ce31  1  0.49734649  0.63366161  0.55272116  1
  Ce3+  Ce32  1  0.74306761  0.38163905  0.56773155  1
  Ce3+  Ce33  1  0.49451464  0.12666032  0.04904718  1
  Ce3+  Ce34  1  0.49741352  0.37847499  0.56069615  1
  Ce3+  Ce35  1  0.24920978  0.63050960  0.56381163  1
  Ce3+  Ce36  1  0.62522945  0.50824550  0.44563731  1
  Ce3+  Ce37  1  0.87771818  0.75382570  0.94709395  1
  Pr3+  Pr38  1  0.74086429  0.88419361  0.55682504  1
  Pr3+  Pr39  1  0.63202040  0.50481390  0.93638388  1
  Pr3+  Pr40  1  -0.00903210  0.12867882  0.57067712  1
  Pr3+  Pr41  1  0.50565375  0.63049866  0.05800580  1
  Pr3+  Pr42  1  0.73874724  0.12779538  0.55344840  1
  Pr3+  Pr43  1  0.48932771  0.13562321  0.57457793  1
  Pr3+  Pr44  1  0.75806340  0.12432326  0.06916537  1
  Pr3+  Pr45  1  0.25824669  0.12820438  0.06517350  1
  Pr3+  Pr46  1  0.87115498  0.25928108  0.43948643  1
  Pr3+  Pr47  1  0.12205022  0.00573844  0.44804876  1
  Pr3+  Pr48  1  0.25506195  0.63130028  0.06294573  1
  Pr3+  Pr49  1  0.50170042  0.37464177  0.06158692  1
  Nd3+  Nd50  1  0.87901446  0.00565915  0.93544376  1
  Nd3+  Nd51  1  0.37066152  0.26103732  0.44214663  1
  Nd3+  Nd52  1  0.87023141  0.50584838  0.43903250  1
  Nd3+  Nd53  1  0.24193441  0.14163289  0.57044119  1
  Nd3+  Nd54  1  0.62089928  0.25490897  0.43279257  1
  Nd3+  Nd55  1  0.24894711  0.88083119  0.55466019  1
  Nd3+  Nd56  1  0.63365692  0.00256838  0.93241884  1
  Nd3+  Nd57  1  0.75488401  0.37758546  0.06183745  1
  Sm3+  Sm58  1  0.12715912  0.25557296  0.95015595  1
  Sm3+  Sm59  1  0.12555629  0.50234974  0.94972787  1
  Sm3+  Sm60  1  0.00920291  0.13441697  0.07677989  1
  Sm3+  Sm61  1  0.75231589  0.62451927  0.06002970  1
  Sm3+  Sm62  1  0.86791443  0.75444912  0.43727349  1
  Sm3+  Sm63  1  0.37149449  0.50539179  0.43953473  1
  Bi2+  Bi64  1  -0.01045339  0.07040712  0.30316653  1
  Bi2+  Bi65  1  -0.04761472  0.13963660  0.83281546  1
  Bi2+  Bi66  1  -0.05446836  0.36097262  0.29741840  1
  Bi2+  Bi67  1  0.04507204  0.33118961  0.82785886  1
  Bi2+  Bi68  1  -0.00517515  0.64016038  0.29632145  1
  Bi2+  Bi69  1  0.03110736  0.68851959  0.79440335  1
  Bi2+  Bi70  1  0.00846261  0.86371286  0.28943471  1
  Bi2+  Bi71  1  0.00456929  0.95340445  0.81144951  1
  Bi2+  Bi72  1  0.25759901  0.08313308  0.28952362  1
  Bi2+  Bi73  1  0.14106206  0.16611325  0.78394623  1
  Bi2+  Bi74  1  0.31280962  0.34764334  0.31073858  1
  Bi2+  Bi75  1  0.23717980  0.50812932  0.80945397  1
  Bi2+  Bi76  1  0.25939171  0.62244768  0.29355539  1
  Bi2+  Bi77  1  0.35316793  0.66129666  0.80972394  1
  Bi2+  Bi78  1  0.20088902  0.85579128  0.27053618  1
  Bi2+  Bi79  1  0.18975573  0.89360232  0.78222059  1
  Bi2+  Bi80  1  0.47546659  0.10321225  0.29333698  1
  Bi2+  Bi81  1  0.52983078  0.12172002  0.77780682  1
  Bi2+  Bi82  1  0.56415196  0.32298702  0.30667799  1
  Bi2+  Bi83  1  0.50651086  0.38905283  0.79850679  1
  Bi2+  Bi84  1  0.51342082  0.50960775  0.29869880  1
  Bi2+  Bi85  1  0.52708898  0.58654239  0.77745964  1
  Bi2+  Bi86  1  0.48454011  0.86320839  0.28268543  1
  Bi2+  Bi87  1  0.52845980  0.84501814  0.79127410  1
  Bi2+  Bi88  1  0.71898872  0.19408865  0.28114240  1
  Bi2+  Bi89  1  0.77006375  0.12720316  0.79113763  1
  Bi2+  Bi90  1  0.75906641  0.36384547  0.33975961  1
  Bi2+  Bi91  1  0.69732918  0.39585973  0.77013160  1
  Bi2+  Bi92  1  0.80447048  0.59409636  0.31161142  1
  Bi2+  Bi93  1  0.76271353  0.65802666  0.79934403  1
  Bi2+  Bi94  1  0.74010497  0.86866384  0.27354021  1
  Bi2+  Bi95  1  0.82304319  0.89848624  0.77975500  1
  Bi2+  Bi96  1  0.10021110  0.00163920  0.21810637  1
  Bi2+  Bi97  1  0.10158487  0.02071199  0.71088317  1
  Bi2+  Bi98  1  0.14332736  0.25118426  0.22049310  1
  Bi2+  Bi99  1  0.10630439  0.32545564  0.71876606  1
  Bi2+  Bi100  1  0.10610726  0.49326864  0.22599067  1
  Bi2+  Bi101  1  0.13562467  0.55469696  0.71622437  1
  Bi2+  Bi102  1  0.11415641  0.72032175  0.20351974  1
  Bi2+  Bi103  1  0.14888489  0.75028348  0.70276907  1
  Bi2+  Bi104  1  0.40492125  -0.01073012  0.18804155  1
  Bi2+  Bi105  1  0.39633763  -0.01137065  0.70531245  1
  Bi2+  Bi106  1  0.40155204  0.25304686  0.21938377  1
  Bi2+  Bi107  1  0.35126660  0.24450165  0.71284242  1
  Bi2+  Bi108  1  0.37532082  0.45219101  0.22514323  1
  Bi2+  Bi109  1  0.37910198  0.50264863  0.71553829  1
  Bi2+  Bi110  1  0.37557148  0.73803036  0.18343458  1
  Bi2+  Bi111  1  0.34547034  0.71652704  0.69885564  1
  Bi2+  Bi112  1  0.60275349  0.07018481  0.21080771  1
  Bi2+  Bi113  1  0.66827459  -0.03373361  0.69395027  1
  Bi2+  Bi114  1  0.59663806  0.26151668  0.18249118  1
  Bi2+  Bi115  1  0.71037054  0.25828270  0.69214287  1
  Bi2+  Bi116  1  0.63095557  0.44339956  0.21124168  1
  Bi2+  Bi117  1  0.56013816  0.41755018  0.68704903  1
  Bi2+  Bi118  1  0.62687933  0.67935511  0.20708243  1
  Bi2+  Bi119  1  0.64493071  0.69183601  0.70480399  1
  Bi2+  Bi120  1  0.84679019  -0.00656230  0.21516642  1
  Bi2+  Bi121  1  0.91021795  0.06358191  0.71171400  1
  Bi2+  Bi122  1  0.87363138  0.23453053  0.21720862  1
  Bi2+  Bi123  1  0.89816869  0.28008605  0.72459907  1
  Bi2+  Bi124  1  0.82616200  0.47239773  0.22949402  1
  Bi2+  Bi125  1  0.88204673  0.53307253  0.70030740  1
  Bi2+  Bi126  1  0.92318633  0.74359175  0.20917573  1
  Bi2+  Bi127  1  0.94897442  0.79231113  0.71351373  1
  S2-  S128  1  -0.11510930  0.10979709  0.14677878  1
  S2-  S129  1  0.00602040  0.24410387  0.64733819  1
  S2-  S130  1  0.01612091  0.25036084  0.15949884  1
  S2-  S131  1  0.02162248  0.50788078  0.64179872  1
  S2-  S132  1  0.00175190  0.52985857  0.15766079  1
  S2-  S133  1  -0.10600302  0.66958860  0.64364349  1
  S2-  S134  1  -0.08174632  0.88528126  0.14556943  1
  S2-  S135  1  -0.02608369  0.93128018  0.64742138  1
  S2-  S136  1  0.16744818  0.11996392  0.15671791  1
  S2-  S137  1  0.30859713  0.10450157  0.66180219  1
  S2-  S138  1  0.16609858  0.38980206  0.15897531  1
  S2-  S139  1  0.23581899  0.28710333  0.64930301  1
  S2-  S140  1  0.24707830  0.62490433  0.16512749  1
  S2-  S141  1  0.25381226  0.51678286  0.64096482  1
  S2-  S142  1  0.27858306  0.88109325  0.15618171  1
  S2-  S143  1  0.33282885  0.86380992  0.64136637  1
  S2-  S144  1  0.39593300  0.13081458  0.13421411  1
  S2-  S145  1  0.53792189  0.07936360  0.66965289  1
  S2-  S146  1  0.38456987  0.36748818  0.13785791  1
  S2-  S147  1  0.47576525  0.27974171  0.64407772  1
  S2-  S148  1  0.47891237  0.62104721  0.15875550  1
  S2-  S149  1  0.49265670  0.68277448  0.64728429  1
  S2-  S150  1  0.50109672  0.85143874  0.15862632  1
  S2-  S151  1  0.53505796  0.87786079  0.68510230  1
  S2-  S152  1  0.71645550  0.00971779  0.14616148  1
  S2-  S153  1  0.76846103  0.09874503  0.65162947  1
  S2-  S154  1  0.83848595  0.36305560  0.15038203  1
  S2-  S155  1  0.84471977  0.38445624  0.64799912  1
  S2-  S156  1  0.72027161  0.57765107  0.15481056  1
  S2-  S157  1  0.71834271  0.56096918  0.66674547  1
  S2-  S158  1  0.72140151  0.79363640  0.17532771  1
  S2-  S159  1  0.73537062  0.83026186  0.65465447  1
  S2-  S160  1  0.14191289  0.07692485  0.35717901  1
  S2-  S161  1  0.21408544  0.00506172  0.85683110  1
  S2-  S162  1  0.16768294  0.27868878  0.32513006  1
  S2-  S163  1  0.20581176  0.25916377  0.85975798  1
  S2-  S164  1  0.20276289  0.48268099  0.32938510  1
  S2-  S165  1  0.06831787  0.49232492  0.85673128  1
  S2-  S166  1  0.13071521  0.67316745  0.35955835  1
  S2-  S167  1  0.15439770  0.75239805  0.84798982  1
  S2-  S168  1  0.37490760  -0.02655017  0.33354017  1
  S2-  S169  1  0.38196529  0.04961529  0.79313515  1
  S2-  S170  1  0.35753857  0.16622793  0.35927028  1
  S2-  S171  1  0.42306850  0.23810687  0.81381792  1
  S2-  S172  1  0.38524642  0.59245525  0.35478208  1
  S2-  S173  1  0.36389378  0.41877197  0.85833040  1
  S2-  S174  1  0.32959365  0.77858463  0.31768597  1
  S2-  S175  1  0.38693984  0.83414455  0.84739495  1
  S2-  S176  1  0.61957555  -0.09439094  0.34049847  1
  S2-  S177  1  0.54612278  -0.01190243  0.84423112  1
  S2-  S178  1  0.60921811  0.13268645  0.35846091  1
  S2-  S179  1  0.64680239  0.20860758  0.83815452  1
  S2-  S180  1  0.64815325  0.57616441  0.35584058  1
  S2-  S181  1  0.72228546  0.50704059  0.84937754  1
  S2-  S182  1  0.55072694  0.72618940  0.30176196  1
  S2-  S183  1  0.63278972  0.75606313  0.84524984  1
  S2-  S184  1  0.82770604  -0.00367953  0.32687833  1
  S2-  S185  1  0.76162869  -0.01038987  0.85923931  1
  S2-  S186  1  0.96481162  0.21591449  0.35709794  1
  S2-  S187  1  0.87706924  0.33960164  0.85628415  1
  S2-  S188  1  0.98062895  0.49386611  0.35877494  1
  S2-  S189  1  0.90027728  0.56207074  0.79977645  1
  S2-  S190  1  0.78803376  0.75858934  0.34727236  1
  S2-  S191  1  0.86623280  0.76515671  0.84859722  1
  S2-  S192  1  -0.00545446  0.12502099  0.46309582  1
  S2-  S193  1  0.00847122  0.12821215  0.96069113  1
  S2-  S194  1  -0.00329182  0.37909464  0.45889502  1
  S2-  S195  1  0.00418267  0.38026572  0.96373446  1
  S2-  S196  1  -0.01058687  0.63583887  0.45712498  1
  S2-  S197  1  -0.00028678  0.62554401  0.95753445  1
  S2-  S198  1  -0.00421356  0.87814035  0.44560154  1
  S2-  S199  1  0.00392919  0.87917446  0.95198768  1
  S2-  S200  1  0.24294436  0.13522159  0.46282363  1
  S2-  S201  1  0.25242246  0.13102283  0.95703281  1
  S2-  S202  1  0.24556742  0.38323497  0.45092597  1
  S2-  S203  1  0.24750073  0.38377434  0.96200600  1
  S2-  S204  1  0.25115398  0.63003795  0.45717171  1
  S2-  S205  1  0.25038211  0.62793649  0.95435008  1
  S2-  S206  1  0.24655152  0.87976916  0.44702049  1
  S2-  S207  1  0.25311288  0.87441185  0.95328080  1
  S2-  S208  1  0.49488876  0.13797900  0.46243903  1
  S2-  S209  1  0.49713925  0.12863045  0.94148625  1
  S2-  S210  1  0.49755060  0.38318339  0.45013483  1
  S2-  S211  1  0.50626783  0.38047472  0.95267802  1
  S2-  S212  1  0.50319907  0.63278960  0.44900518  1
  S2-  S213  1  0.50561433  0.62899829  0.94850086  1
  S2-  S214  1  0.49134975  0.87752073  0.44233813  1
  S2-  S215  1  0.50510402  0.87651385  0.95228318  1
  S2-  S216  1  0.74843144  0.13062216  0.44734714  1
  S2-  S217  1  0.75683188  0.13084252  0.95769099  1
  S2-  S218  1  0.74415293  0.38149726  0.46011426  1
  S2-  S219  1  0.75421750  0.37917287  0.95615919  1
  S2-  S220  1  0.74913511  0.63331254  0.46058421  1
  S2-  S221  1  0.75721071  0.62773385  0.95448912  1
  S2-  S222  1  0.74697697  0.88170299  0.44910950  1
  S2-  S223  1  0.75610326  0.87721335  0.96478933  1
  S2-  S224  1  0.12710134  0.00319359  0.05149170  1
  S2-  S225  1  0.12368980  0.00702137  0.55492948  1
  S2-  S226  1  0.13036110  0.25407759  0.05252524  1
  S2-  S227  1  0.11674116  0.25632563  0.54138189  1
  S2-  S228  1  0.13092759  0.50570410  0.05303992  1
  S2-  S229  1  0.12347863  0.51343286  0.53565565  1
  S2-  S230  1  0.12706916  0.75480533  0.05360660  1
  S2-  S231  1  0.12132978  0.75636168  0.55262912  1
  S2-  S232  1  0.37765817  -0.00186728  0.03847046  1
  S2-  S233  1  0.37080208  0.00753991  0.54472722  1
  S2-  S234  1  0.37861689  0.25569126  0.03110247  1
  S2-  S235  1  0.36597628  0.26004713  0.54519585  1
  S2-  S236  1  0.37969989  0.50731738  0.04753167  1
  S2-  S237  1  0.37821066  0.50553316  0.54364696  1
  S2-  S238  1  0.38006268  0.75435990  0.04359496  1
  S2-  S239  1  0.37089580  0.75454170  0.53556173  1
  S2-  S240  1  0.62216769  0.00631820  0.04013176  1
  S2-  S241  1  0.61071526  0.00285215  0.54470365  1
  S2-  S242  1  0.62836537  0.24999876  0.04567378  1
  S2-  S243  1  0.62057954  0.25633728  0.54287646  1
  S2-  S244  1  0.62736894  0.50039401  0.04515051  1
  S2-  S245  1  0.62057910  0.50762968  0.55159452  1
  S2-  S246  1  0.63156149  0.75370945  0.05154261  1
  S2-  S247  1  0.61720874  0.76026036  0.54952419  1
  S2-  S248  1  0.88318046  0.00471749  0.04100539  1
  S2-  S249  1  0.86992296  0.00564276  0.53888340  1
  S2-  S250  1  0.88109668  0.25113711  0.04810895  1
  S2-  S251  1  0.86446477  0.25069950  0.54634629  1
  S2-  S252  1  0.87349998  0.50474982  0.05428209  1
  S2-  S253  1  0.86567468  0.50737291  0.54451521  1
  S2-  S254  1  0.87644206  0.74768709  0.05344235  1
  S2-  S255  1  0.87043865  0.76383392  0.54032209  1
