# generated using pymatgen
data_La9Ce10Pr6Nd4Sm3(BiS2)32
_symmetry_space_group_name_H-M   'P 1'
_cell_length_a   16.17345529
_cell_length_b   16.14026929
_cell_length_c   26.91431710
_cell_angle_alpha   89.99233340
_cell_angle_beta   89.68935240
_cell_angle_gamma   89.98377994
_symmetry_Int_Tables_number   1
_chemical_formula_structural   La9Ce10Pr6Nd4Sm3(BiS2)32
_chemical_formula_sum   'La18 Ce20 Pr12 Nd8 Sm6 Bi64 S128'
_cell_volume   7025.71533276
_cell_formula_units_Z   2
loop_
 _symmetry_equiv_pos_site_id
 _symmetry_equiv_pos_as_xyz
  1  'x, y, z'
loop_
 _atom_type_symbol
 _atom_type_oxidation_number
  La3+  3.0
  Ce3+  3.0
  Pr3+  3.0
  Nd3+  3.0
  Sm3+  3.0
  Bi2+  2.0
  S2-  -2.0
loop_
 _atom_site_type_symbol
 _atom_site_label
 _atom_site_symmetry_multiplicity
 _atom_site_fract_x
 _atom_site_fract_y
 _atom_site_fract_z
 _atom_site_occupancy
  La3+  La0  1  0.37704810  0.75587886  0.41608420  1
  La3+  La1  1  0.10128529  -0.00041863  0.93402571  1
  La3+  La2  1  0.10886257  0.00200106  0.41364594  1
  La3+  La3  1  0.86966685  0.25004374  0.44561698  1
  La3+  La4  1  0.61725335  0.00080456  0.43058515  1
  La3+  La5  1  -0.00942395  0.62696349  0.59576441  1
  La3+  La6  1  0.48838989  0.86916877  0.56145719  1
  La3+  La7  1  -0.00441061  0.87513741  0.56543758  1
  La3+  La8  1  0.85807699  0.49972619  0.91150018  1
  La3+  La9  1  0.87094056  0.50120389  0.45045352  1
  La3+  La10  1  0.11958956  0.50921557  0.91907784  1
  La3+  La11  1  0.85429846  0.24983601  0.91863597  1
  La3+  La12  1  0.48851243  0.12750696  0.07172421  1
  La3+  La13  1  0.36192661  0.00948197  0.42052635  1
  La3+  La14  1  0.62061774  0.49444156  0.43028811  1
  La3+  La15  1  0.23010188  0.61922267  0.08934432  1
  La3+  La16  1  -0.01694598  0.61535153  0.06681322  1
  La3+  La17  1  0.24206651  0.63414821  0.57339481  1
  Ce3+  Ce18  1  0.49266147  0.62750459  0.54954392  1
  Ce3+  Ce19  1  0.23298483  0.12632558  0.05535753  1
  Ce3+  Ce20  1  0.73444802  0.61782621  0.05810363  1
  Ce3+  Ce21  1  0.23469276  0.37930326  0.05203329  1
  Ce3+  Ce22  1  0.36153410  0.50457225  0.93500247  1
  Ce3+  Ce23  1  0.60863396  -0.00117509  0.94516641  1
  Ce3+  Ce24  1  0.22962589  0.88208458  0.07063070  1
  Ce3+  Ce25  1  0.35972906  -0.00212088  0.94496525  1
  Ce3+  Ce26  1  0.74037233  0.87747171  0.56335016  1
  Ce3+  Ce27  1  0.74060751  0.63368256  0.57223308  1
  Ce3+  Ce28  1  0.35680963  0.75163894  0.95156979  1
  Ce3+  Ce29  1  0.24002607  0.87165460  0.53992020  1
  Ce3+  Ce30  1  0.49621190  0.37385060  0.56320907  1
  Ce3+  Ce31  1  0.86265506  0.74854263  0.94776807  1
  Ce3+  Ce32  1  0.11913620  0.50496582  0.45058650  1
  Ce3+  Ce33  1  0.36598010  0.24889632  0.44624867  1
  Ce3+  Ce34  1  -0.00586917  0.12022259  0.56426937  1
  Ce3+  Ce35  1  -0.01831687  0.37944385  0.04566771  1
  Ce3+  Ce36  1  0.60636511  0.24527431  0.93106960  1
  Ce3+  Ce37  1  0.48379291  0.87395391  0.06872645  1
  Pr3+  Pr38  1  0.11128359  0.73878620  0.41764997  1
  Pr3+  Pr39  1  0.48308952  0.62743252  0.06233959  1
  Pr3+  Pr40  1  -0.01292758  0.37269024  0.59970495  1
  Pr3+  Pr41  1  0.48469878  0.37808101  0.05920880  1
  Pr3+  Pr42  1  0.62539382  0.74285096  0.42627149  1
  Pr3+  Pr43  1  0.61606071  0.24608700  0.43617224  1
  Pr3+  Pr44  1  0.60745025  0.75160102  0.94086086  1
  Pr3+  Pr45  1  0.73389554  0.87686549  0.06830528  1
  Pr3+  Pr46  1  0.11837769  0.25327061  0.43793393  1
  Pr3+  Pr47  1  0.74159398  0.12262895  0.56702764  1
  Pr3+  Pr48  1  0.23922530  0.37953409  0.57175795  1
  Pr3+  Pr49  1  -0.02381991  0.88720526  0.08210473  1
  Nd3+  Nd50  1  0.23972846  0.12217501  0.55894705  1
  Nd3+  Nd51  1  0.10908770  0.75226127  0.95247128  1
  Nd3+  Nd52  1  0.60948822  0.50004047  0.93157702  1
  Nd3+  Nd53  1  0.86845490  -0.00360593  0.43294187  1
  Nd3+  Nd54  1  0.85901139  -0.00816133  0.93797876  1
  Nd3+  Nd55  1  0.48847848  0.11647431  0.57080971  1
  Nd3+  Nd56  1  0.36433294  0.24856178  0.93319964  1
  Nd3+  Nd57  1  0.73751291  0.37649896  0.57315513  1
  Sm3+  Sm58  1  0.87157012  0.74881772  0.44693068  1
  Sm3+  Sm59  1  -0.01752658  0.12999632  0.05664518  1
  Sm3+  Sm60  1  0.11019369  0.25114884  0.94201279  1
  Sm3+  Sm61  1  0.74013940  0.13971112  0.06343583  1
  Sm3+  Sm62  1  0.73593571  0.37882875  0.05647107  1
  Sm3+  Sm63  1  0.36421921  0.50144469  0.43751307  1
  Bi2+  Bi64  1  -0.04846206  0.11933752  0.28923879  1
  Bi2+  Bi65  1  0.03447559  0.11866966  0.78429436  1
  Bi2+  Bi66  1  0.05266706  0.37346814  0.30677495  1
  Bi2+  Bi67  1  0.00829421  0.32769388  0.77593778  1
  Bi2+  Bi68  1  -0.01311002  0.58469853  0.30188852  1
  Bi2+  Bi69  1  0.03990825  0.63406989  0.78743181  1
  Bi2+  Bi70  1  -0.08559284  0.84577944  0.28481458  1
  Bi2+  Bi71  1  0.01457480  0.87111551  0.81378035  1
  Bi2+  Bi72  1  0.21904989  0.15218965  0.29396190  1
  Bi2+  Bi73  1  0.30303617  0.20455661  0.78931715  1
  Bi2+  Bi74  1  0.24484332  0.35155900  0.31695954  1
  Bi2+  Bi75  1  0.32976907  0.39502581  0.80982544  1
  Bi2+  Bi76  1  0.26267133  0.56465148  0.28588519  1
  Bi2+  Bi77  1  0.31763177  0.66741505  0.78563561  1
  Bi2+  Bi78  1  0.27414107  0.85697152  0.28240964  1
  Bi2+  Bi79  1  0.27136448  0.90719985  0.78194447  1
  Bi2+  Bi80  1  0.48216778  0.17180105  0.28106931  1
  Bi2+  Bi81  1  0.60570583  0.11025486  0.74828945  1
  Bi2+  Bi82  1  0.53480009  0.36230599  0.27111585  1
  Bi2+  Bi83  1  0.52648509  0.36169464  0.79341797  1
  Bi2+  Bi84  1  0.49062064  0.63279937  0.28536559  1
  Bi2+  Bi85  1  0.49247228  0.55261110  0.82158310  1
  Bi2+  Bi86  1  0.54791816  0.90543422  0.28521902  1
  Bi2+  Bi87  1  0.50333058  0.90383517  0.81794571  1
  Bi2+  Bi88  1  0.72252055  0.11659210  0.28490301  1
  Bi2+  Bi89  1  0.80779255  0.13700019  0.75935828  1
  Bi2+  Bi90  1  0.78042150  0.36703013  0.30017773  1
  Bi2+  Bi91  1  0.73734742  0.34773198  0.78359758  1
  Bi2+  Bi92  1  0.75426457  0.73317023  0.30698695  1
  Bi2+  Bi93  1  0.67571570  0.63202376  0.79539974  1
  Bi2+  Bi94  1  0.73897541  0.92970874  0.32359321  1
  Bi2+  Bi95  1  0.75477411  0.88843514  0.78715535  1
  Bi2+  Bi96  1  0.11355560  -0.01240644  0.20413104  1
  Bi2+  Bi97  1  0.14572823  -0.00627041  0.70570059  1
  Bi2+  Bi98  1  0.11883101  0.27841756  0.20866599  1
  Bi2+  Bi99  1  0.17791523  0.19391505  0.70058383  1
  Bi2+  Bi100  1  0.09682112  0.47721466  0.20291442  1
  Bi2+  Bi101  1  0.15896222  0.49087367  0.71437497  1
  Bi2+  Bi102  1  0.13652017  0.73102558  0.22095635  1
  Bi2+  Bi103  1  0.13096188  0.78904874  0.70610975  1
  Bi2+  Bi104  1  0.36480651  0.03277679  0.21071981  1
  Bi2+  Bi105  1  0.41861582  0.06875846  0.72083549  1
  Bi2+  Bi106  1  0.31833683  0.27618969  0.21806061  1
  Bi2+  Bi107  1  0.39290655  0.31741095  0.70693901  1
  Bi2+  Bi108  1  0.40595878  0.44113196  0.19361798  1
  Bi2+  Bi109  1  0.40609624  0.53376298  0.71505971  1
  Bi2+  Bi110  1  0.50703333  0.75109371  0.19024021  1
  Bi2+  Bi111  1  0.37908253  0.80190285  0.70928851  1
  Bi2+  Bi112  1  0.67112923  -0.12458882  0.19956171  1
  Bi2+  Bi113  1  0.62743352  -0.07929432  0.69834994  1
  Bi2+  Bi114  1  0.67061298  0.24648851  0.19828294  1
  Bi2+  Bi115  1  0.70258118  0.24387676  0.68502440  1
  Bi2+  Bi116  1  0.64630230  0.52480671  0.25800381  1
  Bi2+  Bi117  1  0.60387230  0.51828284  0.70924925  1
  Bi2+  Bi118  1  0.69038821  0.68318991  0.18522569  1
  Bi2+  Bi119  1  0.56728459  0.72306996  0.71950758  1
  Bi2+  Bi120  1  0.84010894  0.04315499  0.20214661  1
  Bi2+  Bi121  1  0.87760234  -0.03090569  0.70923348  1
  Bi2+  Bi122  1  0.92450746  0.28924620  0.22939791  1
  Bi2+  Bi123  1  0.95692035  0.20203926  0.68969070  1
  Bi2+  Bi124  1  0.84356913  0.47978341  0.20765141  1
  Bi2+  Bi125  1  0.86283347  0.50292136  0.72820343  1
  Bi2+  Bi126  1  0.88063344  0.67831323  0.21943373  1
  Bi2+  Bi127  1  0.84018060  0.75949443  0.71551514  1
  S2-  S128  1  -0.00945671  0.07176401  0.15066316  1
  S2-  S129  1  0.00451339  0.00522125  0.64041027  1
  S2-  S130  1  -0.03350167  0.46320031  0.13156458  1
  S2-  S131  1  -0.00069551  0.49888250  0.67425026  1
  S2-  S132  1  0.08380237  0.63013122  0.15117883  1
  S2-  S133  1  0.13615307  0.64107400  0.66147140  1
  S2-  S134  1  0.02887351  0.85851933  0.18012583  1
  S2-  S135  1  -0.01826945  0.78016990  0.65656050  1
  S2-  S136  1  0.23044668  0.08911427  0.15203771  1
  S2-  S137  1  0.27780695  0.06655381  0.65313529  1
  S2-  S138  1  0.23451728  0.45723922  0.14068329  1
  S2-  S139  1  0.13746460  0.34686107  0.65683873  1
  S2-  S140  1  0.27230590  0.65252764  0.19412021  1
  S2-  S141  1  0.27892805  0.50364205  0.64663878  1
  S2-  S142  1  0.23434304  0.87407433  0.17251399  1
  S2-  S143  1  0.25994288  0.80742086  0.63300961  1
  S2-  S144  1  0.47199514  0.13753609  0.17434762  1
  S2-  S145  1  0.48738843  0.19531370  0.66366120  1
  S2-  S146  1  0.54128387  0.35096718  0.15451603  1
  S2-  S147  1  0.60320406  0.38442987  0.64281218  1
  S2-  S148  1  0.48414696  0.57601500  0.15967661  1
  S2-  S149  1  0.47863809  0.72709421  0.63194136  1
  S2-  S150  1  0.45600492  0.92110616  0.16391445  1
  S2-  S151  1  0.49032916  0.98075821  0.64179850  1
  S2-  S152  1  0.68708344  0.09090901  0.15550287  1
  S2-  S153  1  0.74847469  -0.00227760  0.64108932  1
  S2-  S154  1  0.78419548  0.27129988  0.13221058  1
  S2-  S155  1  0.83535692  0.37260684  0.65937601  1
  S2-  S156  1  0.73326803  0.49992340  0.13183198  1
  S2-  S157  1  0.83524470  0.61509986  0.65888375  1
  S2-  S158  1  0.83283133  0.89598264  0.15099892  1
  S2-  S159  1  0.71566782  0.77309804  0.64324248  1
  S2-  S160  1  0.22158294  0.00221068  0.33263247  1
  S2-  S161  1  0.15890762  -0.02410655  0.83798490  1
  S2-  S162  1  0.07958992  0.16140723  0.35329895  1
  S2-  S163  1  0.10591458  0.23768035  0.84272954  1
  S2-  S164  1  0.12499763  0.58095330  0.35886945  1
  S2-  S165  1  0.08606321  0.47543365  0.81617264  1
  S2-  S166  1  0.13504129  0.80980238  0.32010520  1
  S2-  S167  1  0.12036078  0.74293030  0.85057022  1
  S2-  S168  1  0.40929473  -0.07501727  0.33515776  1
  S2-  S169  1  0.37931620  0.00677292  0.84591009  1
  S2-  S170  1  0.37628167  0.16437133  0.35832404  1
  S2-  S171  1  0.48410526  0.23864379  0.85811582  1
  S2-  S172  1  0.40166844  0.50577112  0.33817026  1
  S2-  S173  1  0.26617356  0.54700669  0.85685124  1
  S2-  S174  1  0.31811087  0.70289291  0.32338886  1
  S2-  S175  1  0.39963635  0.76886815  0.85504623  1
  S2-  S176  1  0.59696048  0.12818418  0.35625535  1
  S2-  S177  1  0.60149865  0.02664045  0.84564546  1
  S2-  S178  1  0.62646194  0.36336529  0.35800908  1
  S2-  S179  1  0.71654028  0.23082432  0.85261083  1
  S2-  S180  1  0.65471625  0.60482563  0.35126135  1
  S2-  S181  1  0.71110854  0.48969882  0.84818050  1
  S2-  S182  1  0.52115630  0.76210008  0.34327349  1
  S2-  S183  1  0.63619261  0.80051940  0.84429723  1
  S2-  S184  1  0.96646131  -0.02066714  0.34714050  1
  S2-  S185  1  0.96291919  0.01087153  0.85851337  1
  S2-  S186  1  0.83232815  0.21336253  0.34832254  1
  S2-  S187  1  0.88634545  0.36273010  0.83915485  1
  S2-  S188  1  0.85920180  0.48955599  0.34777408  1
  S2-  S189  1  0.89711009  0.59295973  0.82111476  1
  S2-  S190  1  0.95190383  0.73047486  0.35776847  1
  S2-  S191  1  0.87444094  0.82254433  0.85788313  1
  S2-  S192  1  -0.01032371  0.12199798  0.45857626  1
  S2-  S193  1  -0.01651152  0.13220826  0.95192989  1
  S2-  S194  1  -0.00423812  0.37602703  0.45169465  1
  S2-  S195  1  -0.00611062  0.37858101  0.94117624  1
  S2-  S196  1  -0.00727259  0.62507983  0.46462843  1
  S2-  S197  1  -0.01278569  0.62533809  0.95124056  1
  S2-  S198  1  -0.00651054  0.87216421  0.45428027  1
  S2-  S199  1  -0.01785578  0.87420302  0.96912213  1
  S2-  S200  1  0.23706029  0.12738827  0.45271841  1
  S2-  S201  1  0.23485978  0.12711321  0.94725008  1
  S2-  S202  1  0.24323524  0.37745524  0.46004554  1
  S2-  S203  1  0.23740195  0.37107488  0.94521198  1
  S2-  S204  1  0.24715311  0.62496270  0.45568522  1
  S2-  S205  1  0.23493134  0.63145842  0.96671306  1
  S2-  S206  1  0.23826284  0.87141236  0.43609579  1
  S2-  S207  1  0.23290232  0.87761603  0.95982896  1
  S2-  S208  1  0.48948485  0.12541694  0.46290123  1
  S2-  S209  1  0.48290973  0.12039459  0.96181776  1
  S2-  S210  1  0.48653688  0.37464650  0.45466947  1
  S2-  S211  1  0.48339207  0.37925482  0.95110527  1
  S2-  S212  1  0.49196362  0.61969788  0.44517890  1
  S2-  S213  1  0.48422176  0.62738390  0.95391775  1
  S2-  S214  1  0.49768574  0.87836116  0.45085311  1
  S2-  S215  1  0.48399314  0.87565726  0.96159057  1
  S2-  S216  1  0.74544058  0.12178524  0.45773987  1
  S2-  S217  1  0.73605485  0.11808534  0.95593439  1
  S2-  S218  1  0.74389099  0.37211263  0.46368252  1
  S2-  S219  1  0.72967572  0.37368404  0.95115347  1
  S2-  S220  1  0.74880536  0.62644755  0.46168779  1
  S2-  S221  1  0.73393251  0.62898862  0.94935356  1
  S2-  S222  1  0.74600963  0.87187085  0.45257766  1
  S2-  S223  1  0.73430192  0.87395162  0.95997633  1
  S2-  S224  1  0.10518446  0.00484825  0.04534920  1
  S2-  S225  1  0.12081034  -0.00039933  0.53588015  1
  S2-  S226  1  0.10752277  0.25262535  0.04862499  1
  S2-  S227  1  0.11384922  0.24806213  0.54703490  1
  S2-  S228  1  0.11111924  0.49910799  0.03403609  1
  S2-  S229  1  0.11095527  0.49921904  0.55538364  1
  S2-  S230  1  0.10602086  0.75659077  0.05772611  1
  S2-  S231  1  0.11560302  0.74849200  0.54042973  1
  S2-  S232  1  0.35945649  0.00208159  0.05217829  1
  S2-  S233  1  0.36247996  -0.00131981  0.53515267  1
  S2-  S234  1  0.35933715  0.25118851  0.04709334  1
  S2-  S235  1  0.36453382  0.25048389  0.55444473  1
  S2-  S236  1  0.36080587  0.50271436  0.04278541  1
  S2-  S237  1  0.37364726  0.49966828  0.54273809  1
  S2-  S238  1  0.35444432  0.75160481  0.06068119  1
  S2-  S239  1  0.36678993  0.74800022  0.52717992  1
  S2-  S240  1  0.60998960  0.00006229  0.05264510  1
  S2-  S241  1  0.61658501  0.00045759  0.53985990  1
  S2-  S242  1  0.61074805  0.25271764  0.04114702  1
  S2-  S243  1  0.61521419  0.24440888  0.54553192  1
  S2-  S244  1  0.60526598  0.50180018  0.03788861  1
  S2-  S245  1  0.61871481  0.50543904  0.54240134  1
  S2-  S246  1  0.61096180  0.74980284  0.05027310  1
  S2-  S247  1  0.61743114  0.74962591  0.53444848  1
  S2-  S248  1  0.85715997  0.01033516  0.04496575  1
  S2-  S249  1  0.86803417  0.00012143  0.53969522  1
  S2-  S250  1  0.86500129  0.25290731  0.02846089  1
  S2-  S251  1  0.86933344  0.24813280  0.55429976  1
  S2-  S252  1  0.85686330  0.49932249  0.02588776  1
  S2-  S253  1  0.86817212  0.49754276  0.55718167  1
  S2-  S254  1  0.85931705  0.74517165  0.05550472  1
  S2-  S255  1  0.86792044  0.75108307  0.55003639  1
