# generated using pymatgen
data_La9Ce10Pr6Nd4Sm3(BiS2)32
_symmetry_space_group_name_H-M   'P 1'
_cell_length_a   16.12344446
_cell_length_b   16.17466077
_cell_length_c   27.16816604
_cell_angle_alpha   90.07749038
_cell_angle_beta   90.14425453
_cell_angle_gamma   89.94772887
_symmetry_Int_Tables_number   1
_chemical_formula_structural   La9Ce10Pr6Nd4Sm3(BiS2)32
_chemical_formula_sum   'La18 Ce20 Pr12 Nd8 Sm6 Bi64 S128'
_cell_volume   7085.18797239
_cell_formula_units_Z   2
loop_
 _symmetry_equiv_pos_site_id
 _symmetry_equiv_pos_as_xyz
  1  'x, y, z'
loop_
 _atom_type_symbol
 _atom_type_oxidation_number
  La3+  3.0
  Ce3+  3.0
  Pr3+  3.0
  Nd3+  3.0
  Sm3+  3.0
  Bi2+  2.0
  S2-  -2.0
loop_
 _atom_site_type_symbol
 _atom_site_label
 _atom_site_symmetry_multiplicity
 _atom_site_fract_x
 _atom_site_fract_y
 _atom_site_fract_z
 _atom_site_occupancy
  La3+  La0  1  0.01284631  0.37335671  0.05443185  1
  La3+  La1  1  0.34862011  0.26010072  0.43416832  1
  La3+  La2  1  0.01151741  0.87112570  0.05818871  1
  La3+  La3  1  0.59960409  0.75860460  0.42282730  1
  La3+  La4  1  0.13848628  0.24079859  0.89122420  1
  La3+  La5  1  0.22568945  0.63648567  0.58548049  1
  La3+  La6  1  0.13883392  0.49826372  0.91873168  1
  La3+  La7  1  0.11123614  0.51964384  0.43130020  1
  La3+  La8  1  0.72913543  0.14131012  0.56714094  1
  La3+  La9  1  0.76490795  0.63092978  0.07057673  1
  La3+  La10  1  0.86118986  0.01097557  0.42800707  1
  La3+  La11  1  0.49354445  0.12493365  0.11955408  1
  La3+  La12  1  0.72929634  0.63889734  0.56777188  1
  La3+  La13  1  0.88436290  0.24700455  0.92935774  1
  La3+  La14  1  0.88199414  0.74591214  0.92178000  1
  La3+  La15  1  0.85661860  0.50891263  0.40053065  1
  La3+  La16  1  0.60130962  0.26166264  0.42123793  1
  La3+  La17  1  0.51277440  0.87137762  0.06854950  1
  Ce3+  Ce18  1  0.23012598  0.88261087  0.57223731  1
  Ce3+  Ce19  1  0.60173998  0.01309321  0.43495925  1
  Ce3+  Ce20  1  0.10572333  0.01019460  0.45824218  1
  Ce3+  Ce21  1  0.26188761  0.37156373  0.04886951  1
  Ce3+  Ce22  1  0.51127153  0.36929240  0.05884973  1
  Ce3+  Ce23  1  0.89307227  0.49928658  0.93207705  1
  Ce3+  Ce24  1  0.35383468  0.00969535  0.45519931  1
  Ce3+  Ce25  1  0.13538562  0.00410693  0.94254159  1
  Ce3+  Ce26  1  -0.03152187  0.88532683  0.57213974  1
  Ce3+  Ce27  1  -0.01831950  0.38739451  0.55855355  1
  Ce3+  Ce28  1  0.88721317  0.00335390  0.94300811  1
  Ce3+  Ce29  1  0.10456896  0.25831176  0.44289313  1
  Ce3+  Ce30  1  0.35606254  0.76214846  0.44336613  1
  Ce3+  Ce31  1  0.51212099  0.62239921  0.06265791  1
  Ce3+  Ce32  1  0.48107771  0.38416403  0.55681239  1
  Ce3+  Ce33  1  0.34987150  0.51315128  0.45144539  1
  Ce3+  Ce34  1  0.38608261  0.24828995  0.93693902  1
  Ce3+  Ce35  1  0.60836128  0.51097063  0.43882391  1
  Ce3+  Ce36  1  0.48774709  0.88511508  0.56375021  1
  Ce3+  Ce37  1  0.63616564  0.24648133  0.93084616  1
  Pr3+  Pr38  1  0.00746659  0.12471333  0.06910928  1
  Pr3+  Pr39  1  0.63530058  0.50171566  0.93554495  1
  Pr3+  Pr40  1  0.10351452  0.76116908  0.44817536  1
  Pr3+  Pr41  1  0.25911057  0.61982041  0.06109847  1
  Pr3+  Pr42  1  0.38349162  0.49974965  0.92519415  1
  Pr3+  Pr43  1  0.85770815  0.26025417  0.43679545  1
  Pr3+  Pr44  1  0.75582706  0.12829436  0.06902858  1
  Pr3+  Pr45  1  0.63330294  0.00068225  0.94193723  1
  Pr3+  Pr46  1  -0.02586604  0.63668743  0.56660952  1
  Pr3+  Pr47  1  0.85443385  0.76139970  0.43098280  1
  Pr3+  Pr48  1  0.13028490  0.74978714  0.92255855  1
  Pr3+  Pr49  1  0.22971837  0.13661436  0.57231097  1
  Nd3+  Nd50  1  0.72926941  0.38418514  0.55758724  1
  Nd3+  Nd51  1  -0.02659305  0.13455977  0.57774162  1
  Nd3+  Nd52  1  0.63766396  0.74388974  0.92723661  1
  Nd3+  Nd53  1  0.38521911  0.74654124  0.93382024  1
  Nd3+  Nd54  1  0.26188790  0.12520535  0.06160490  1
  Nd3+  Nd55  1  0.38682331  0.00138426  0.94302199  1
  Nd3+  Nd56  1  0.26193616  0.87238457  0.05166446  1
  Nd3+  Nd57  1  0.48242918  0.13814010  0.56575911  1
  Sm3+  Sm58  1  0.76017429  0.87165575  0.05247690  1
  Sm3+  Sm59  1  0.22756740  0.38603599  0.56721768  1
  Sm3+  Sm60  1  0.01454067  0.62317949  0.05867432  1
  Sm3+  Sm61  1  0.75862093  0.37441168  0.05254481  1
  Sm3+  Sm62  1  0.72653512  0.88796552  0.55253622  1
  Sm3+  Sm63  1  0.48533002  0.63600178  0.56149479  1
  Bi2+  Bi64  1  -0.03378325  0.15099022  0.33911047  1
  Bi2+  Bi65  1  0.00915809  0.08487442  0.78284472  1
  Bi2+  Bi66  1  0.01017684  0.32677875  0.29704441  1
  Bi2+  Bi67  1  -0.03930295  0.35310576  0.78007318  1
  Bi2+  Bi68  1  0.00840987  0.61650808  0.28924403  1
  Bi2+  Bi69  1  0.00137441  0.62112482  0.79833023  1
  Bi2+  Bi70  1  0.02589240  0.87263791  0.26336112  1
  Bi2+  Bi71  1  0.06412280  0.88966536  0.77338887  1
  Bi2+  Bi72  1  0.18959706  0.10562762  0.30036954  1
  Bi2+  Bi73  1  0.28022941  0.09062149  0.78701224  1
  Bi2+  Bi74  1  0.25277351  0.38354989  0.29812292  1
  Bi2+  Bi75  1  0.32261697  0.34627107  0.77542295  1
  Bi2+  Bi76  1  0.27536551  0.58201994  0.26639849  1
  Bi2+  Bi77  1  0.27912429  0.59447482  0.78265117  1
  Bi2+  Bi78  1  0.19129059  0.81584419  0.31523564  1
  Bi2+  Bi79  1  0.25480080  0.83330462  0.79580609  1
  Bi2+  Bi80  1  0.44081676  0.10527610  0.31597731  1
  Bi2+  Bi81  1  0.52626849  0.17895671  0.79759075  1
  Bi2+  Bi82  1  0.44894354  0.40158762  0.28571445  1
  Bi2+  Bi83  1  0.51258433  0.36717988  0.83845160  1
  Bi2+  Bi84  1  0.47593627  0.59894741  0.29590541  1
  Bi2+  Bi85  1  0.51347626  0.65659188  0.78030891  1
  Bi2+  Bi86  1  0.37652276  0.86661183  0.29252047  1
  Bi2+  Bi87  1  0.45451245  0.85239452  0.81584139  1
  Bi2+  Bi88  1  0.78910938  0.09306852  0.30558987  1
  Bi2+  Bi89  1  0.76768837  0.12031721  0.79432519  1
  Bi2+  Bi90  1  0.73268341  0.38253523  0.28535424  1
  Bi2+  Bi91  1  0.70141355  0.39516998  0.79782749  1
  Bi2+  Bi92  1  0.73822221  0.63866998  0.28401390  1
  Bi2+  Bi93  1  0.74709779  0.64744442  0.78469820  1
  Bi2+  Bi94  1  0.77338881  0.89776622  0.28406867  1
  Bi2+  Bi95  1  0.64686371  0.87746673  0.79259932  1
  Bi2+  Bi96  1  0.08769659  0.04336677  0.19238705  1
  Bi2+  Bi97  1  0.23415700  -0.04135485  0.70542785  1
  Bi2+  Bi98  1  0.11945800  0.23014840  0.21772267  1
  Bi2+  Bi99  1  0.12749233  0.25329394  0.69963359  1
  Bi2+  Bi100  1  0.13817347  0.48904735  0.20051212  1
  Bi2+  Bi101  1  0.14858097  0.47990118  0.69959252  1
  Bi2+  Bi102  1  0.15974744  0.75217361  0.20628286  1
  Bi2+  Bi103  1  0.12417471  0.73404347  0.71487841  1
  Bi2+  Bi104  1  0.26785390  -0.01841040  0.22065428  1
  Bi2+  Bi105  1  0.43229666  -0.03358045  0.69416779  1
  Bi2+  Bi106  1  0.31281378  0.27273000  0.21236094  1
  Bi2+  Bi107  1  0.41844246  0.16629093  0.70321191  1
  Bi2+  Bi108  1  0.38287791  0.54211191  0.16656934  1
  Bi2+  Bi109  1  0.46397949  0.47103573  0.74209288  1
  Bi2+  Bi110  1  0.39091622  0.72105550  0.21421142  1
  Bi2+  Bi111  1  0.40129133  0.77436360  0.71303155  1
  Bi2+  Bi112  1  0.60602134  -0.00118387  0.22860554  1
  Bi2+  Bi113  1  0.62335199  0.01189756  0.70855545  1
  Bi2+  Bi114  1  0.63582842  0.25043187  0.21382298  1
  Bi2+  Bi115  1  0.62240312  0.26982749  0.71111994  1
  Bi2+  Bi116  1  0.55836114  0.49522731  0.20866604  1
  Bi2+  Bi117  1  0.64724653  0.49290199  0.69739236  1
  Bi2+  Bi118  1  0.64129585  0.73675747  0.20773841  1
  Bi2+  Bi119  1  0.66073941  0.75898259  0.70057936  1
  Bi2+  Bi120  1  0.89395885  0.00999293  0.21577984  1
  Bi2+  Bi121  1  0.81547970  -0.02569325  0.72411128  1
  Bi2+  Bi122  1  0.88950208  0.21767273  0.23302550  1
  Bi2+  Bi123  1  0.87338120  0.23164722  0.70359680  1
  Bi2+  Bi124  1  0.85737832  0.47110326  0.17099888  1
  Bi2+  Bi125  1  0.83369524  0.48306054  0.73061510  1
  Bi2+  Bi126  1  0.89042607  0.75995135  0.20569519  1
  Bi2+  Bi127  1  0.88148408  0.77456748  0.70810385  1
  S2-  S128  1  -0.11357290  0.14271925  0.14285205  1
  S2-  S129  1  0.03095135  0.12666057  0.67764041  1
  S2-  S130  1  0.01472993  0.40524500  0.15531416  1
  S2-  S131  1  0.02051982  0.37559765  0.65582048  1
  S2-  S132  1  -0.09425781  0.63102953  0.13826352  1
  S2-  S133  1  0.07923894  0.61307851  0.64962255  1
  S2-  S134  1  0.01795492  0.82517894  0.15573935  1
  S2-  S135  1  0.02794697  0.86284873  0.66734036  1
  S2-  S136  1  0.32559460  0.13220227  0.15568859  1
  S2-  S137  1  0.24986683  0.13566665  0.67319823  1
  S2-  S138  1  0.26868047  0.40586439  0.14638455  1
  S2-  S139  1  0.25600701  0.35864532  0.66459020  1
  S2-  S140  1  0.13450723  0.62025754  0.13518473  1
  S2-  S141  1  0.28114548  0.56664855  0.67930775  1
  S2-  S142  1  0.26689327  0.85272780  0.15117835  1
  S2-  S143  1  0.25084332  0.77861034  0.64969919  1
  S2-  S144  1  0.50477949  0.13828832  0.23058261  1
  S2-  S145  1  0.60104722  0.14006701  0.64059259  1
  S2-  S146  1  0.51589600  0.29681959  0.14819967  1
  S2-  S147  1  0.51775701  0.38298329  0.65317513  1
  S2-  S148  1  0.51515091  0.73873540  0.13875053  1
  S2-  S149  1  0.59583744  0.63640963  0.63981583  1
  S2-  S150  1  0.50713078  0.95972945  0.15861882  1
  S2-  S151  1  0.61031836  0.87991627  0.63412088  1
  S2-  S152  1  0.66362699  0.11220674  0.15705584  1
  S2-  S153  1  0.83879464  0.10406152  0.64630479  1
  S2-  S154  1  0.74958708  0.34621506  0.15221915  1
  S2-  S155  1  0.75068707  0.29752095  0.64496507  1
  S2-  S156  1  0.67662689  0.59222401  0.15944291  1
  S2-  S157  1  0.85353596  0.65655729  0.64548486  1
  S2-  S158  1  0.75227597  0.81004186  0.14540448  1
  S2-  S159  1  0.82798045  0.88519018  0.63572476  1
  S2-  S160  1  0.07745251  0.02011273  0.36124463  1
  S2-  S161  1  0.13761301  0.07305108  0.85088204  1
  S2-  S162  1  0.21378879  0.24980474  0.36383178  1
  S2-  S163  1  0.12871108  0.31770298  0.79277302  1
  S2-  S164  1  0.01901216  0.48475293  0.34595490  1
  S2-  S165  1  0.00453059  0.47339998  0.84968956  1
  S2-  S166  1  0.10710298  0.67577867  0.35866208  1
  S2-  S167  1  0.14918934  0.63255757  0.84552902  1
  S2-  S168  1  0.32147100  -0.00050479  0.35895879  1
  S2-  S169  1  0.38952469  0.01280597  0.84225736  1
  S2-  S170  1  0.45968361  0.25777615  0.35329029  1
  S2-  S171  1  0.30482813  0.23350980  0.84751432  1
  S2-  S172  1  0.26027661  0.51639070  0.36775567  1
  S2-  S173  1  0.27169262  0.46373868  0.84366972  1
  S2-  S174  1  0.44998272  0.75002072  0.35873254  1
  S2-  S175  1  0.39283288  0.63445022  0.85556967  1
  S2-  S176  1  0.57387098  0.00189567  0.33646038  1
  S2-  S177  1  0.63022375  0.06625531  0.84632085  1
  S2-  S178  1  0.66879229  0.24845228  0.32377054  1
  S2-  S179  1  0.75361328  0.25080885  0.85471795  1
  S2-  S180  1  0.68746439  0.51131399  0.35125374  1
  S2-  S181  1  0.62323265  0.61283465  0.85514933  1
  S2-  S182  1  0.67221237  0.76990001  0.32883977  1
  S2-  S183  1  0.75161312  0.78366572  0.84932502  1
  S2-  S184  1  0.88208270  -0.11518736  0.35682850  1
  S2-  S185  1  0.88698134  0.01148571  0.84396919  1
  S2-  S186  1  0.85362358  0.35299559  0.34952940  1
  S2-  S187  1  0.97781888  0.21681703  0.84360495  1
  S2-  S188  1  0.86055655  0.51069332  0.26099280  1
  S2-  S189  1  0.86048788  0.60446471  0.85549220  1
  S2-  S190  1  0.87181255  0.66011937  0.34729400  1
  S2-  S191  1  1.00167404  0.77481479  0.84561156  1
  S2-  S192  1  -0.01740265  0.13582332  0.46724195  1
  S2-  S193  1  0.01341199  0.12518803  0.96100830  1
  S2-  S194  1  -0.01674535  0.38520918  0.45420479  1
  S2-  S195  1  0.01965857  0.36112546  0.94734976  1
  S2-  S196  1  -0.02329634  0.63269490  0.45929716  1
  S2-  S197  1  0.01276913  0.62472930  0.95363960  1
  S2-  S198  1  -0.01692505  0.88644034  0.46383118  1
  S2-  S199  1  0.01189751  0.88043854  0.95058164  1
  S2-  S200  1  0.22913669  0.13260248  0.46630743  1
  S2-  S201  1  0.26007795  0.12525818  0.95537426  1
  S2-  S202  1  0.22834487  0.38496889  0.46393361  1
  S2-  S203  1  0.25566384  0.36419277  0.94628586  1
  S2-  S204  1  0.23449410  0.64327796  0.47052465  1
  S2-  S205  1  0.25997679  0.62606227  0.95348577  1
  S2-  S206  1  0.23057124  0.88396702  0.46496221  1
  S2-  S207  1  0.26018701  0.87502341  0.94502973  1
  S2-  S208  1  0.47714149  0.13519490  0.45836848  1
  S2-  S209  1  0.50837554  0.12626271  0.94784151  1
  S2-  S210  1  0.47699718  0.39111721  0.45072141  1
  S2-  S211  1  0.51038453  0.37469877  0.95307707  1
  S2-  S212  1  0.47919803  0.63053334  0.45788647  1
  S2-  S213  1  0.50895582  0.62454488  0.95778666  1
  S2-  S214  1  0.47933841  0.88824992  0.45592908  1
  S2-  S215  1  0.51031802  0.87186488  0.95309407  1
  S2-  S216  1  0.72908372  0.13673554  0.44803100  1
  S2-  S217  1  0.76011555  0.12177549  0.95903623  1
  S2-  S218  1  0.72962836  0.38411705  0.45233463  1
  S2-  S219  1  0.76151029  0.38042741  0.94874346  1
  S2-  S220  1  0.72958765  0.63443023  0.45362765  1
  S2-  S221  1  0.75905672  0.62266408  0.95955152  1
  S2-  S222  1  0.72448186  0.88872755  0.44678842  1
  S2-  S223  1  0.76138209  0.87943203  0.95075568  1
  S2-  S224  1  0.13752485  -0.00087355  0.05026930  1
  S2-  S225  1  0.10287177  0.01043088  0.56456717  1
  S2-  S226  1  0.13663264  0.24642070  0.06309347  1
  S2-  S227  1  0.10605715  0.25923220  0.55283754  1
  S2-  S228  1  0.13719539  0.49641185  0.03364662  1
  S2-  S229  1  0.10888448  0.50813636  0.54542915  1
  S2-  S230  1  0.13735547  0.75006847  0.03541409  1
  S2-  S231  1  0.10045195  0.76470366  0.55365173  1
  S2-  S232  1  0.38555680  -0.00096134  0.04929040  1
  S2-  S233  1  0.35772942  0.01017149  0.56087413  1
  S2-  S234  1  0.38720275  0.24615456  0.04494639  1
  S2-  S235  1  0.35481501  0.26091459  0.54986972  1
  S2-  S236  1  0.38654868  0.49660840  0.03610663  1
  S2-  S237  1  0.35838342  0.51173594  0.55787590  1
  S2-  S238  1  0.38177076  0.74630010  0.04022651  1
  S2-  S239  1  0.36545045  0.76028518  0.55018016  1
  S2-  S240  1  0.63890721  -0.00606103  0.04809639  1
  S2-  S241  1  0.60466340  0.01418438  0.53950467  1
  S2-  S242  1  0.63863833  0.25295752  0.03909923  1
  S2-  S243  1  0.60230582  0.26283981  0.53509759  1
  S2-  S244  1  0.63431757  0.49638586  0.04454389  1
  S2-  S245  1  0.60501771  0.50785828  0.54335354  1
  S2-  S246  1  0.63801216  0.74846045  0.03590311  1
  S2-  S247  1  0.60364957  0.75918132  0.53345859  1
  S2-  S248  1  0.88322594  -0.00433678  0.05024174  1
  S2-  S249  1  0.85084490  0.01243189  0.53668020  1
  S2-  S250  1  0.88303558  0.25279649  0.04011300  1
  S2-  S251  1  0.85975946  0.26164506  0.54320275  1
  S2-  S252  1  0.88566973  0.49733721  0.03971413  1
  S2-  S253  1  0.85234932  0.50508420  0.55532120  1
  S2-  S254  1  0.88791110  0.75150498  0.03556281  1
  S2-  S255  1  0.85003470  0.76316870  0.53729499  1
