# generated using pymatgen
data_La9Ce10Pr6Nd4Sm3(BiS2)32
_symmetry_space_group_name_H-M   'P 1'
_cell_length_a   16.23932337
_cell_length_b   16.22785996
_cell_length_c   27.14797060
_cell_angle_alpha   89.89130464
_cell_angle_beta   89.84930873
_cell_angle_gamma   89.93619352
_symmetry_Int_Tables_number   1
_chemical_formula_structural   La9Ce10Pr6Nd4Sm3(BiS2)32
_chemical_formula_sum   'La18 Ce20 Pr12 Nd8 Sm6 Bi64 S128'
_cell_volume   7154.24816860
_cell_formula_units_Z   2
loop_
 _symmetry_equiv_pos_site_id
 _symmetry_equiv_pos_as_xyz
  1  'x, y, z'
loop_
 _atom_type_symbol
 _atom_type_oxidation_number
  La3+  3.0
  Ce3+  3.0
  Pr3+  3.0
  Nd3+  3.0
  Sm3+  3.0
  Bi2+  2.0
  S2-  -2.0
loop_
 _atom_site_type_symbol
 _atom_site_label
 _atom_site_symmetry_multiplicity
 _atom_site_fract_x
 _atom_site_fract_y
 _atom_site_fract_z
 _atom_site_occupancy
  La3+  La0  1  0.25345423  0.10857951  0.06919909  1
  La3+  La1  1  0.37339242  0.25119686  0.40079831  1
  La3+  La2  1  0.00686183  0.61533698  0.07577942  1
  La3+  La3  1  0.62132652  0.75935103  0.42612167  1
  La3+  La4  1  0.75533847  0.60972160  0.08214781  1
  La3+  La5  1  0.49522976  0.62772257  0.56362520  1
  La3+  La6  1  0.88247921  0.75130266  0.40647434  1
  La3+  La7  1  0.38234995  0.00192600  0.91031834  1
  La3+  La8  1  0.24054713  0.87422164  0.60143181  1
  La3+  La9  1  0.37118870  0.00577541  0.44135668  1
  La3+  La10  1  0.49517270  0.11898940  0.57549467  1
  La3+  La11  1  0.37434508  0.50797351  0.42298599  1
  La3+  La12  1  0.61687050  0.48121170  0.89122229  1
  La3+  La13  1  0.48739665  0.37599793  0.56661663  1
  La3+  La14  1  0.13000624  0.24029236  0.94331686  1
  La3+  La15  1  0.61950854  0.50377606  0.42965564  1
  La3+  La16  1  0.12606885  0.49896458  0.43234012  1
  La3+  La17  1  0.74580071  0.12629045  0.56558650  1
  Ce3+  Ce18  1  0.12460978  0.49435855  0.93483248  1
  Ce3+  Ce19  1  0.86344951  0.50222597  0.42711854  1
  Ce3+  Ce20  1  0.49525132  0.87811708  0.56083828  1
  Ce3+  Ce21  1  0.75144101  0.11836397  0.05212475  1
  Ce3+  Ce22  1  0.50450515  0.11570776  0.06044862  1
  Ce3+  Ce23  1  0.24917865  0.37444342  0.55777673  1
  Ce3+  Ce24  1  -0.00558656  0.37602410  0.55090423  1
  Ce3+  Ce25  1  0.37905405  0.74161229  0.94094825  1
  Ce3+  Ce26  1  0.13015769  0.74505564  0.94436270  1
  Ce3+  Ce27  1  0.12620410  0.24947455  0.44422960  1
  Ce3+  Ce28  1  0.50293461  0.86754460  0.05252855  1
  Ce3+  Ce29  1  0.36940249  0.75246345  0.44484319  1
  Ce3+  Ce30  1  0.00133316  0.36956008  0.06245229  1
  Ce3+  Ce31  1  0.38020562  0.24242782  0.94347562  1
  Ce3+  Ce32  1  0.25519493  0.87136089  0.05509131  1
  Ce3+  Ce33  1  0.24448932  0.12316534  0.56471000  1
  Ce3+  Ce34  1  0.37924574  0.49058231  0.94073830  1
  Ce3+  Ce35  1  -0.00212397  0.87273644  0.56584282  1
  Ce3+  Ce36  1  0.25228733  0.36566448  0.05875186  1
  Ce3+  Ce37  1  0.24473354  0.62550509  0.55801694  1
  Pr3+  Pr38  1  0.74674072  0.62746693  0.55351876  1
  Pr3+  Pr39  1  0.50412051  0.61327700  0.06130245  1
  Pr3+  Pr40  1  0.63108551  0.73367606  0.94405932  1
  Pr3+  Pr41  1  0.87802198  0.49618236  0.93441710  1
  Pr3+  Pr42  1  -0.00205826  0.12603661  0.55750281  1
  Pr3+  Pr43  1  0.74813836  0.87285240  0.55224924  1
  Pr3+  Pr44  1  0.75084537  0.86634089  0.06387187  1
  Pr3+  Pr45  1  0.12038039  0.75491061  0.43776298  1
  Pr3+  Pr46  1  -0.00205823  0.62430522  0.55877103  1
  Pr3+  Pr47  1  0.62133870  0.00514369  0.43436276  1
  Pr3+  Pr48  1  0.87453537  -0.00931601  0.93755411  1
  Pr3+  Pr49  1  0.75456105  0.38187901  0.57581830  1
  Nd3+  Nd50  1  0.12027325  0.00031001  0.44378667  1
  Nd3+  Nd51  1  0.11818540  -0.00331242  0.93178491  1
  Nd3+  Nd52  1  0.87432790  0.24618023  0.94041861  1
  Nd3+  Nd53  1  0.86763127  0.25347278  0.43666383  1
  Nd3+  Nd54  1  0.87872470  0.73846403  0.94720507  1
  Nd3+  Nd55  1  0.62368809  0.25548679  0.44326804  1
  Nd3+  Nd56  1  0.62506654  0.24437212  0.93775482  1
  Nd3+  Nd57  1  0.62817702  -0.00884392  0.93561662  1
  Sm3+  Sm58  1  0.87301043  0.00259527  0.44414212  1
  Sm3+  Sm59  1  0.00205882  0.87275570  0.06306977  1
  Sm3+  Sm60  1  0.75165216  0.37096193  0.05642615  1
  Sm3+  Sm61  1  0.25397111  0.61658473  0.05331016  1
  Sm3+  Sm62  1  0.50262312  0.36601458  0.06209734  1
  Sm3+  Sm63  1  -0.00085604  0.11788578  0.06089916  1
  Bi2+  Bi64  1  -0.02252544  0.19478213  0.30238362  1
  Bi2+  Bi65  1  -0.03740462  0.14364707  0.79985890  1
  Bi2+  Bi66  1  -0.04460152  0.38548175  0.30422626  1
  Bi2+  Bi67  1  0.02303016  0.37158573  0.78919360  1
  Bi2+  Bi68  1  0.05044392  0.64107798  0.29418462  1
  Bi2+  Bi69  1  0.00407982  0.63950559  0.79839975  1
  Bi2+  Bi70  1  0.09808483  0.88267321  0.27513593  1
  Bi2+  Bi71  1  -0.00663956  0.88495919  0.78052338  1
  Bi2+  Bi72  1  0.23536797  0.11016838  0.29199404  1
  Bi2+  Bi73  1  0.22674384  0.10419261  0.79662030  1
  Bi2+  Bi74  1  0.21554040  0.37049789  0.28657698  1
  Bi2+  Bi75  1  0.23254548  0.36980626  0.80216333  1
  Bi2+  Bi76  1  0.24540448  0.66265865  0.29374822  1
  Bi2+  Bi77  1  0.20659322  0.56545280  0.79417257  1
  Bi2+  Bi78  1  0.28555865  0.86771497  0.30885029  1
  Bi2+  Bi79  1  0.25668588  0.83768530  0.79270127  1
  Bi2+  Bi80  1  0.50694875  0.03828232  0.29346527  1
  Bi2+  Bi81  1  0.57068173  0.15033857  0.81263051  1
  Bi2+  Bi82  1  0.54720997  0.35083714  0.28911206  1
  Bi2+  Bi83  1  0.43239006  0.32138563  0.81921958  1
  Bi2+  Bi84  1  0.48961542  0.61179899  0.28586422  1
  Bi2+  Bi85  1  0.49415944  0.64193967  0.79909732  1
  Bi2+  Bi86  1  0.48247396  0.84155591  0.28615865  1
  Bi2+  Bi87  1  0.54588222  0.82755833  0.74799688  1
  Bi2+  Bi88  1  0.71510174  0.13561807  0.29987366  1
  Bi2+  Bi89  1  0.76628751  0.13066361  0.79376586  1
  Bi2+  Bi90  1  0.76546559  0.34804155  0.27149695  1
  Bi2+  Bi91  1  0.83092905  0.39195727  0.76596997  1
  Bi2+  Bi92  1  0.75397181  0.61244720  0.29445595  1
  Bi2+  Bi93  1  0.75245886  0.62743071  0.79290058  1
  Bi2+  Bi94  1  0.75637213  0.94451380  0.29883312  1
  Bi2+  Bi95  1  0.76738821  0.94111522  0.81258502  1
  Bi2+  Bi96  1  0.13675600  0.03456783  0.20766472  1
  Bi2+  Bi97  1  0.11097962  0.00120691  0.71622866  1
  Bi2+  Bi98  1  0.10597111  0.24289788  0.21743393  1
  Bi2+  Bi99  1  0.15597928  0.27159545  0.70285174  1
  Bi2+  Bi100  1  0.08821497  0.48036104  0.23590641  1
  Bi2+  Bi101  1  0.12819050  0.46902171  0.69957344  1
  Bi2+  Bi102  1  0.13338416  0.72853763  0.20023682  1
  Bi2+  Bi103  1  0.11621789  0.71945818  0.71353034  1
  Bi2+  Bi104  1  0.38186696  -0.03330901  0.21199670  1
  Bi2+  Bi105  1  0.38560903  0.01125906  0.71093011  1
  Bi2+  Bi106  1  0.37678920  0.25388174  0.20178059  1
  Bi2+  Bi107  1  0.34732529  0.27078334  0.72020527  1
  Bi2+  Bi108  1  0.35229904  0.51694304  0.19849463  1
  Bi2+  Bi109  1  0.32151236  0.52171621  0.70915639  1
  Bi2+  Bi110  1  0.32352999  0.77605738  0.20800798  1
  Bi2+  Bi111  1  0.41622765  0.71081748  0.70148465  1
  Bi2+  Bi112  1  0.63411385  0.03206034  0.20835024  1
  Bi2+  Bi113  1  0.63926801  -0.00969766  0.71934411  1
  Bi2+  Bi114  1  0.64078680  0.23519319  0.20995399  1
  Bi2+  Bi115  1  0.60439081  0.23777130  0.71116856  1
  Bi2+  Bi116  1  0.60490970  0.51540178  0.19384454  1
  Bi2+  Bi117  1  0.63610875  0.48556633  0.68976148  1
  Bi2+  Bi118  1  0.63204122  0.81282865  0.20776045  1
  Bi2+  Bi119  1  0.66820381  0.72554821  0.68867425  1
  Bi2+  Bi120  1  0.88376165  0.09683836  0.22026884  1
  Bi2+  Bi121  1  0.88249229  0.00533602  0.71765471  1
  Bi2+  Bi122  1  0.91820113  0.28168851  0.19406000  1
  Bi2+  Bi123  1  0.95963868  0.25904970  0.69837211  1
  Bi2+  Bi124  1  0.88021732  0.49782278  0.20651463  1
  Bi2+  Bi125  1  0.93410518  0.52747396  0.70825967  1
  Bi2+  Bi126  1  0.87743155  0.77621280  0.21322514  1
  Bi2+  Bi127  1  0.83674042  0.81126009  0.72955293  1
  S2-  S128  1  -0.00117851  0.04350751  0.14963484  1
  S2-  S129  1  -0.00324715  0.09813985  0.65736267  1
  S2-  S130  1  0.01885231  0.47279870  0.14072104  1
  S2-  S131  1  -0.08572057  0.39600351  0.63540976  1
  S2-  S132  1  -0.11147428  0.63778723  0.15261926  1
  S2-  S133  1  -0.01212963  0.66760274  0.65757683  1
  S2-  S134  1  0.00155286  0.82560464  0.15857588  1
  S2-  S135  1  0.08676735  0.87112346  0.65144691  1
  S2-  S136  1  0.24701968  0.18265867  0.16221868  1
  S2-  S137  1  0.24223187  0.04323461  0.65386486  1
  S2-  S138  1  0.28990243  0.38478094  0.15494847  1
  S2-  S139  1  0.33576268  0.39525082  0.64242213  1
  S2-  S140  1  0.23411676  0.59765209  0.15075460  1
  S2-  S141  1  0.23436564  0.68161486  0.65077234  1
  S2-  S142  1  0.25161297  0.96420474  0.13824353  1
  S2-  S143  1  0.31965486  0.86274140  0.69265632  1
  S2-  S144  1  0.48621553  0.16691092  0.15437813  1
  S2-  S145  1  0.45624468  0.16365870  0.67420428  1
  S2-  S146  1  0.50958080  0.40176745  0.16016204  1
  S2-  S147  1  0.53633665  0.36483647  0.66538391  1
  S2-  S148  1  0.47572019  0.62028076  0.16238545  1
  S2-  S149  1  0.49243831  0.57552254  0.66051040  1
  S2-  S150  1  0.51080287  0.90016055  0.14819680  1
  S2-  S151  1  0.50912620  0.97071922  0.64374283  1
  S2-  S152  1  0.74620557  0.12626239  0.14998401  1
  S2-  S153  1  0.69818753  0.11653111  0.66252177  1
  S2-  S154  1  0.75069452  0.45644940  0.14379852  1
  S2-  S155  1  0.73094583  0.34482605  0.67829197  1
  S2-  S156  1  0.68535070  0.67387788  0.17414049  1
  S2-  S157  1  0.76053242  0.59340920  0.65308338  1
  S2-  S158  1  0.77943889  0.87790463  0.16416109  1
  S2-  S159  1  0.73196658  0.87941497  0.65240264  1
  S2-  S160  1  0.12541680  0.01613218  0.34390448  1
  S2-  S161  1  0.17517382  -0.03436329  0.83964994  1
  S2-  S162  1  0.20110895  0.24442384  0.35578557  1
  S2-  S163  1  0.11142570  0.17333457  0.85040780  1
  S2-  S164  1  0.23660718  0.49705909  0.35350924  1
  S2-  S165  1  0.00861016  0.49862536  0.86194716  1
  S2-  S166  1  0.02970809  0.78717819  0.35231522  1
  S2-  S167  1  0.12284215  0.74598214  0.84658606  1
  S2-  S168  1  0.37132503  0.09323203  0.35274255  1
  S2-  S169  1  0.35802460  -0.03884252  0.80869340  1
  S2-  S170  1  0.37866423  0.32050240  0.30037500  1
  S2-  S171  1  0.36093953  0.16411641  0.85692440  1
  S2-  S172  1  0.50200412  0.48445661  0.35129237  1
  S2-  S173  1  0.44676069  0.49463756  0.85039412  1
  S2-  S174  1  0.38118469  0.66459862  0.35977861  1
  S2-  S175  1  0.36894504  0.74563451  0.84300536  1
  S2-  S176  1  0.61123045  -0.10287371  0.35399991  1
  S2-  S177  1  0.53778817  0.00326411  0.85223368  1
  S2-  S178  1  0.53427588  0.23994784  0.35748087  1
  S2-  S179  1  0.60381573  0.32001542  0.84734156  1
  S2-  S180  1  0.73685845  0.48530496  0.35334070  1
  S2-  S181  1  0.61489029  0.52307152  0.78551813  1
  S2-  S182  1  0.61726245  0.66302051  0.34012115  1
  S2-  S183  1  0.63189368  0.71590601  0.84368987  1
  S2-  S184  1  0.88045650  0.01218861  0.34592665  1
  S2-  S185  1  0.97641703  -0.00497054  0.85629829  1
  S2-  S186  1  0.74777696  0.26367948  0.36426399  1
  S2-  S187  1  0.84416773  0.26737373  0.84237094  1
  S2-  S188  1  0.90161615  0.60201246  0.34841780  1
  S2-  S189  1  0.78013902  0.49259021  0.84911717  1
  S2-  S190  1  0.80713530  0.78285446  0.31373569  1
  S2-  S191  1  0.87471768  0.70738584  0.84792594  1
  S2-  S192  1  -0.00510234  0.12851389  0.45046450  1
  S2-  S193  1  -0.00423845  0.12097318  0.95783052  1
  S2-  S194  1  -0.00306925  0.37438878  0.44484702  1
  S2-  S195  1  0.00239724  0.36326040  0.95571364  1
  S2-  S196  1  0.00169940  0.62494647  0.45240549  1
  S2-  S197  1  0.00765337  0.62217742  0.96372543  1
  S2-  S198  1  -0.00751784  0.87963407  0.45864439  1
  S2-  S199  1  0.00178057  0.86502725  0.95672241  1
  S2-  S200  1  0.24356075  0.12460587  0.45915711  1
  S2-  S201  1  0.25050837  0.11214092  0.95862595  1
  S2-  S202  1  0.25409811  0.37034675  0.45354299  1
  S2-  S203  1  0.25343537  0.36763723  0.95095166  1
  S2-  S204  1  0.24250771  0.63126411  0.45449723  1
  S2-  S205  1  0.25342399  0.61636507  0.94809784  1
  S2-  S206  1  0.24552795  0.87780098  0.44641828  1
  S2-  S207  1  0.25667013  0.87156882  0.94980783  1
  S2-  S208  1  0.49922313  0.12515376  0.46260387  1
  S2-  S209  1  0.50520920  0.11936329  0.95592458  1
  S2-  S210  1  0.49303771  0.37370371  0.45720457  1
  S2-  S211  1  0.50366885  0.36894536  0.95697192  1
  S2-  S212  1  0.50053820  0.63275624  0.45697879  1
  S2-  S213  1  0.50459453  0.61299309  0.95322909  1
  S2-  S214  1  0.49325662  0.87811537  0.45474819  1
  S2-  S215  1  0.50489168  0.86368997  0.94659113  1
  S2-  S216  1  0.74861993  0.12270457  0.45688911  1
  S2-  S217  1  0.75103161  0.11862649  0.94568582  1
  S2-  S218  1  0.74847554  0.37944211  0.46592175  1
  S2-  S219  1  0.74840429  0.36862662  0.95281985  1
  S2-  S220  1  0.75025858  0.63681494  0.44790805  1
  S2-  S221  1  0.75583558  0.61655603  0.96124148  1
  S2-  S222  1  0.75538588  0.87689170  0.44669687  1
  S2-  S223  1  0.75192787  0.86488242  0.95435646  1
  S2-  S224  1  0.12000578  -0.00619074  0.04059267  1
  S2-  S225  1  0.12074346  -0.00192317  0.54856670  1
  S2-  S226  1  0.12376119  0.24007912  0.05259435  1
  S2-  S227  1  0.12101157  0.25223049  0.55135499  1
  S2-  S228  1  0.13371821  0.49198298  0.04081177  1
  S2-  S229  1  0.12233383  0.49827921  0.54356078  1
  S2-  S230  1  0.13138577  0.74467745  0.05147675  1
  S2-  S231  1  0.12240234  0.75285518  0.54487290  1
  S2-  S232  1  0.38434775  -0.00759576  0.03956459  1
  S2-  S233  1  0.36370004  -0.00587317  0.54979940  1
  S2-  S234  1  0.37782947  0.24219690  0.04832343  1
  S2-  S235  1  0.36728850  0.24331438  0.55535182  1
  S2-  S236  1  0.37670792  0.49122557  0.04687851  1
  S2-  S237  1  0.36885701  0.50753020  0.53804481  1
  S2-  S238  1  0.37672009  0.74118081  0.04887619  1
  S2-  S239  1  0.36768579  0.75650143  0.55262113  1
  S2-  S240  1  0.62927111  -0.00753898  0.04320286  1
  S2-  S241  1  0.62489891  -0.00121362  0.54129556  1
  S2-  S242  1  0.62862031  0.24647872  0.04667682  1
  S2-  S243  1  0.62196969  0.25162344  0.55287295  1
  S2-  S244  1  0.62447134  0.48849822  0.05074968  1
  S2-  S245  1  0.62145098  0.50067654  0.54736303  1
  S2-  S246  1  0.62780440  0.74036133  0.05104094  1
  S2-  S247  1  0.61985472  0.75311590  0.54248964  1
  S2-  S248  1  0.87662189  -0.00776608  0.04552091  1
  S2-  S249  1  0.87273040  0.00020770  0.55111362  1
  S2-  S250  1  0.87558405  0.24400740  0.04821356  1
  S2-  S251  1  0.87124367  0.24893180  0.54421813  1
  S2-  S252  1  0.87861964  0.48990276  0.04242518  1
  S2-  S253  1  0.87282715  0.50576651  0.53687382  1
  S2-  S254  1  0.87983630  0.74735336  0.05124929  1
  S2-  S255  1  0.87394521  0.75026050  0.54996276  1
