# generated using pymatgen
data_La9Ce10Pr6Nd4Sm3(BiS2)32
_symmetry_space_group_name_H-M   'P 1'
_cell_length_a   16.15094562
_cell_length_b   16.14304484
_cell_length_c   27.36968941
_cell_angle_alpha   89.39182609
_cell_angle_beta   89.96676069
_cell_angle_gamma   90.17233404
_symmetry_Int_Tables_number   1
_chemical_formula_structural   La9Ce10Pr6Nd4Sm3(BiS2)32
_chemical_formula_sum   'La18 Ce20 Pr12 Nd8 Sm6 Bi64 S128'
_cell_volume   7135.53867675
_cell_formula_units_Z   2
loop_
 _symmetry_equiv_pos_site_id
 _symmetry_equiv_pos_as_xyz
  1  'x, y, z'
loop_
 _atom_type_symbol
 _atom_type_oxidation_number
  La3+  3.0
  Ce3+  3.0
  Pr3+  3.0
  Nd3+  3.0
  Sm3+  3.0
  Bi2+  2.0
  S2-  -2.0
loop_
 _atom_site_type_symbol
 _atom_site_label
 _atom_site_symmetry_multiplicity
 _atom_site_fract_x
 _atom_site_fract_y
 _atom_site_fract_z
 _atom_site_occupancy
  La3+  La0  1  0.48046207  0.64310059  0.06479240  1
  La3+  La1  1  0.11854360  0.77028432  0.41939076  1
  La3+  La2  1  -0.00335229  0.14081085  0.07083957  1
  La3+  La3  1  0.74211990  0.38284508  0.56316852  1
  La3+  La4  1  0.10651816  0.01890397  0.92792008  1
  La3+  La5  1  0.10763185  0.26629545  0.91977946  1
  La3+  La6  1  0.23333228  0.88045939  0.57355624  1
  La3+  La7  1  0.23576400  0.38754430  0.06216475  1
  La3+  La8  1  0.73398132  0.39061013  0.07257630  1
  La3+  La9  1  0.23978543  0.88796792  0.06157531  1
  La3+  La10  1  0.85685013  0.75784474  0.43094314  1
  La3+  La11  1  0.73566149  0.89071640  0.07549918  1
  La3+  La12  1  0.48876684  0.38173297  0.57270920  1
  La3+  La13  1  0.49149735  0.63524183  0.61435813  1
  La3+  La14  1  0.36059520  0.77124017  0.92004399  1
  La3+  La15  1  0.61436908  0.26300408  0.42374760  1
  La3+  La16  1  0.48801077  0.88983463  0.06415294  1
  La3+  La17  1  0.87191924  0.26231819  0.43150723  1
  Ce3+  Ce18  1  0.49716204  0.88306963  0.56417574  1
  Ce3+  Ce19  1  0.37263842  0.51377140  0.44182202  1
  Ce3+  Ce20  1  0.49161549  0.14302996  0.04730356  1
  Ce3+  Ce21  1  0.62168450  0.01511364  0.43415236  1
  Ce3+  Ce22  1  0.36508251  0.01490559  0.93608600  1
  Ce3+  Ce23  1  0.61810088  0.27343829  0.92880272  1
  Ce3+  Ce24  1  0.73533414  0.64116572  0.06532518  1
  Ce3+  Ce25  1  -0.00668668  0.63378601  0.54583589  1
  Ce3+  Ce26  1  0.23781417  0.14016573  0.05133994  1
  Ce3+  Ce27  1  0.86673759  0.01615497  0.43498044  1
  Ce3+  Ce28  1  0.12138777  0.51063425  0.44014976  1
  Ce3+  Ce29  1  0.86474938  0.51489372  0.94950424  1
  Ce3+  Ce30  1  0.86422396  0.76885595  0.95156054  1
  Ce3+  Ce31  1  0.24830014  0.38560536  0.55517373  1
  Ce3+  Ce32  1  -0.00553606  0.89552226  0.07410496  1
  Ce3+  Ce33  1  0.24619097  0.63476167  0.55520820  1
  Ce3+  Ce34  1  0.37077881  0.76306047  0.44572789  1
  Ce3+  Ce35  1  0.11891515  0.01251074  0.44153362  1
  Ce3+  Ce36  1  0.74081655  0.62658874  0.56646429  1
  Ce3+  Ce37  1  0.11578405  0.77070928  0.92662780  1
  Pr3+  Pr38  1  0.61686923  0.50900239  0.43775681  1
  Pr3+  Pr39  1  0.61674906  0.51813972  0.93690658  1
  Pr3+  Pr40  1  0.23247443  0.64169599  0.05873223  1
  Pr3+  Pr41  1  0.61691800  0.01295227  0.93250690  1
  Pr3+  Pr42  1  0.74772974  0.13759079  0.56658488  1
  Pr3+  Pr43  1  0.24067516  0.13427843  0.57070036  1
  Pr3+  Pr44  1  0.86883918  0.50826050  0.43263799  1
  Pr3+  Pr45  1  0.36567885  0.27081462  0.93746386  1
  Pr3+  Pr46  1  0.74205440  0.88357719  0.56247636  1
  Pr3+  Pr47  1  0.61164994  0.76299594  0.92077433  1
  Pr3+  Pr48  1  0.73746209  0.14531560  0.06586303  1
  Pr3+  Pr49  1  0.36682979  0.01004730  0.44796070  1
  Nd3+  Nd50  1  0.86085508  0.27001073  0.93461467  1
  Nd3+  Nd51  1  0.36805708  0.26051266  0.43373522  1
  Nd3+  Nd52  1  0.49516505  0.13589088  0.56049506  1
  Nd3+  Nd53  1  -0.00807107  0.13883803  0.58218863  1
  Nd3+  Nd54  1  0.49040968  0.38673093  0.06614635  1
  Nd3+  Nd55  1  0.86119741  0.01636128  0.94911115  1
  Nd3+  Nd56  1  0.36426241  0.51793146  0.93990799  1
  Nd3+  Nd57  1  -0.00588530  0.38392925  0.06568725  1
  Sm3+  Sm58  1  -0.00549784  0.38247568  0.56124356  1
  Sm3+  Sm59  1  -0.00567232  0.64128835  0.05495928  1
  Sm3+  Sm60  1  -0.00772914  0.88208914  0.55250689  1
  Sm3+  Sm61  1  0.11976736  0.26013832  0.44746537  1
  Sm3+  Sm62  1  0.61567449  0.76800638  0.43900338  1
  Sm3+  Sm63  1  0.11330955  0.51549719  0.93286758  1
  Bi2+  Bi64  1  0.00531457  0.12826756  0.27921022  1
  Bi2+  Bi65  1  0.00662448  0.12822532  0.78672274  1
  Bi2+  Bi66  1  0.02936806  0.37572451  0.29447285  1
  Bi2+  Bi67  1  -0.01664423  0.38449594  0.78927771  1
  Bi2+  Bi68  1  0.00431498  0.58286136  0.25448348  1
  Bi2+  Bi69  1  -0.05916530  0.59655472  0.80645809  1
  Bi2+  Bi70  1  0.03970536  0.80145684  0.26050878  1
  Bi2+  Bi71  1  -0.02199596  0.81931955  0.78900835  1
  Bi2+  Bi72  1  0.25775038  0.20994156  0.30814695  1
  Bi2+  Bi73  1  0.25274690  0.09497056  0.77091711  1
  Bi2+  Bi74  1  0.29435241  0.40004795  0.28733891  1
  Bi2+  Bi75  1  0.25051723  0.37360049  0.79466549  1
  Bi2+  Bi76  1  0.31740306  0.62160034  0.24293054  1
  Bi2+  Bi77  1  0.13495671  0.61683038  0.78651659  1
  Bi2+  Bi78  1  0.26320624  0.85349951  0.30848760  1
  Bi2+  Bi79  1  0.22592831  0.87944245  0.79415320  1
  Bi2+  Bi80  1  0.44526837  0.12350805  0.28917415  1
  Bi2+  Bi81  1  0.56053725  0.13182326  0.81102886  1
  Bi2+  Bi82  1  0.50979379  0.38695478  0.28693926  1
  Bi2+  Bi83  1  0.48550180  0.31862374  0.79115692  1
  Bi2+  Bi84  1  0.51539340  0.60833487  0.25729242  1
  Bi2+  Bi85  1  0.49709041  0.59004626  0.81307855  1
  Bi2+  Bi86  1  0.48086715  0.86952992  0.29592776  1
  Bi2+  Bi87  1  0.49815815  0.94777133  0.78601548  1
  Bi2+  Bi88  1  0.72042298  0.06807725  0.27814723  1
  Bi2+  Bi89  1  0.76250245  0.08664066  0.80054935  1
  Bi2+  Bi90  1  0.75599951  0.28813307  0.30768917  1
  Bi2+  Bi91  1  0.73569427  0.37263467  0.79677674  1
  Bi2+  Bi92  1  0.84291567  0.62402055  0.31897965  1
  Bi2+  Bi93  1  0.75026861  0.60992490  0.77399365  1
  Bi2+  Bi94  1  0.73957910  0.83553908  0.30395385  1
  Bi2+  Bi95  1  0.75929374  0.89044492  0.78825277  1
  Bi2+  Bi96  1  0.17784634  0.03844843  0.27216484  1
  Bi2+  Bi97  1  0.09044769  -0.01247990  0.71597500  1
  Bi2+  Bi98  1  0.12607419  0.25818757  0.19944947  1
  Bi2+  Bi99  1  0.16197600  0.24443548  0.71814383  1
  Bi2+  Bi100  1  0.16878197  0.49901569  0.21895529  1
  Bi2+  Bi101  1  0.11057971  0.46363021  0.70855665  1
  Bi2+  Bi102  1  0.18904678  0.74743110  0.18958679  1
  Bi2+  Bi103  1  0.09977087  0.73918078  0.70378000  1
  Bi2+  Bi104  1  0.34478964  0.01004227  0.21142415  1
  Bi2+  Bi105  1  0.40038340  0.03595040  0.70020995  1
  Bi2+  Bi106  1  0.36057998  0.20578113  0.19255145  1
  Bi2+  Bi107  1  0.35054395  0.22328112  0.69315374  1
  Bi2+  Bi108  1  0.39813262  0.39376565  0.18883545  1
  Bi2+  Bi109  1  0.30016559  0.49931235  0.71571983  1
  Bi2+  Bi110  1  0.43878180  0.76259734  0.19759057  1
  Bi2+  Bi111  1  0.35053034  0.76331897  0.71337121  1
  Bi2+  Bi112  1  0.55431137  -0.00234137  0.22388597  1
  Bi2+  Bi113  1  0.61017387  0.03911906  0.70531534  1
  Bi2+  Bi114  1  0.63671303  0.25220272  0.19271185  1
  Bi2+  Bi115  1  0.61511680  0.24405436  0.71780052  1
  Bi2+  Bi116  1  0.70015368  0.55225411  0.25355171  1
  Bi2+  Bi117  1  0.64896859  0.47266098  0.71435566  1
  Bi2+  Bi118  1  0.67819435  0.75203397  0.19384590  1
  Bi2+  Bi119  1  0.61470580  0.77744787  0.71449497  1
  Bi2+  Bi120  1  0.92629641  -0.03605501  0.23236661  1
  Bi2+  Bi121  1  0.89342276  -0.01958596  0.72259353  1
  Bi2+  Bi122  1  0.87176729  0.18013784  0.20211961  1
  Bi2+  Bi123  1  0.86195789  0.23733887  0.70462716  1
  Bi2+  Bi124  1  0.86134579  0.44157809  0.25118102  1
  Bi2+  Bi125  1  0.91099026  0.49915954  0.70101173  1
  Bi2+  Bi126  1  0.88697551  0.72449664  0.20525560  1
  Bi2+  Bi127  1  0.88057706  0.71354812  0.71149063  1
  S2-  S128  1  -0.02058056  0.01925652  0.14882404  1
  S2-  S129  1  -0.13926532  0.09555803  0.64732116  1
  S2-  S130  1  -0.01727284  0.26415284  0.14395014  1
  S2-  S131  1  -0.02568715  0.28762741  0.64450092  1
  S2-  S132  1  0.10178880  0.64207352  0.13209940  1
  S2-  S133  1  -0.00277566  0.63853158  0.64359603  1
  S2-  S134  1  0.12752035  0.87437373  0.14080999  1
  S2-  S135  1  0.08210777  0.87120178  0.63675440  1
  S2-  S136  1  0.16733710  0.14177352  0.14002872  1
  S2-  S137  1  0.12635650  0.11483909  0.64807149  1
  S2-  S138  1  0.12459940  0.40449008  0.13959403  1
  S2-  S139  1  0.32403301  0.37939324  0.64235990  1
  S2-  S140  1  0.34117543  0.65090414  0.13974354  1
  S2-  S141  1  0.31257346  0.63184612  0.64765106  1
  S2-  S142  1  0.36594128  0.88477166  0.13901900  1
  S2-  S143  1  0.29165524  0.89273853  0.67086193  1
  S2-  S144  1  0.51017783  0.16768922  0.14242903  1
  S2-  S145  1  0.50039623  0.24001858  0.63958803  1
  S2-  S146  1  0.59538810  0.39130574  0.14600088  1
  S2-  S147  1  0.52162612  0.47597288  0.65659589  1
  S2-  S148  1  0.56060743  0.64449923  0.15563362  1
  S2-  S149  1  0.48944315  0.65381017  0.72522393  1
  S2-  S150  1  0.60036572  0.89164135  0.14754558  1
  S2-  S151  1  0.48202623  0.80673867  0.65135691  1
  S2-  S152  1  0.73068093  0.10065207  0.16559367  1
  S2-  S153  1  0.73489880  0.26493869  0.64052230  1
  S2-  S154  1  0.78002855  0.30984346  0.16046575  1
  S2-  S155  1  0.77358585  0.49563528  0.64066640  1
  S2-  S156  1  0.77412959  0.60960978  0.16026161  1
  S2-  S157  1  0.65884360  0.67302059  0.64878708  1
  S2-  S158  1  0.81921473  0.86885430  0.16938474  1
  S2-  S159  1  0.68020812  0.90498076  0.65678807  1
  S2-  S160  1  0.12730576  -0.06751564  0.35593061  1
  S2-  S161  1  0.09262700  -0.10349453  0.85503663  1
  S2-  S162  1  0.10008120  0.25121641  0.34993342  1
  S2-  S163  1  0.13712725  0.13239189  0.84773480  1
  S2-  S164  1  0.11154494  0.49375555  0.34405074  1
  S2-  S165  1  0.11550367  0.40963842  0.85462354  1
  S2-  S166  1  0.15639219  0.72423649  0.32430937  1
  S2-  S167  1  0.22981813  0.73812211  0.84729000  1
  S2-  S168  1  0.37638132  -0.00939835  0.34808476  1
  S2-  S169  1  0.36121470  -0.06992236  0.85126342  1
  S2-  S170  1  0.47175317  0.26029193  0.35300528  1
  S2-  S171  1  0.35308965  0.25036601  0.83796364  1
  S2-  S172  1  0.40342040  0.48786041  0.34696239  1
  S2-  S173  1  0.35371784  0.51160565  0.83992412  1
  S2-  S174  1  0.38103545  0.75333267  0.34738471  1
  S2-  S175  1  0.47979876  0.73790813  0.85009440  1
  S2-  S176  1  0.60923419  -0.10367391  0.36082621  1
  S2-  S177  1  0.62808248  -0.09930451  0.85399038  1
  S2-  S178  1  0.64520906  0.12859213  0.35436259  1
  S2-  S179  1  0.74434021  0.24413010  0.85794636  1
  S2-  S180  1  0.63585336  0.40337312  0.35445235  1
  S2-  S181  1  0.59469128  0.40201017  0.85774923  1
  S2-  S182  1  0.69552553  0.70961096  0.35727849  1
  S2-  S183  1  0.65418774  0.62797059  0.85470893  1
  S2-  S184  1  0.82550363  -0.02437742  0.34097928  1
  S2-  S185  1  0.89907065  0.03388707  0.85146773  1
  S2-  S186  1  0.86947451  0.18221674  0.33986587  1
  S2-  S187  1  0.96718683  0.25565290  0.85224534  1
  S2-  S188  1  0.87206746  0.39292804  0.35513686  1
  S2-  S189  1  0.85428171  0.45319329  0.85898805  1
  S2-  S190  1  0.91960971  0.78002129  0.33712053  1
  S2-  S191  1  0.84528873  0.79275760  0.85502129  1
  S2-  S192  1  -0.00222436  0.13547409  0.45308978  1
  S2-  S193  1  -0.01607355  0.14156860  0.95840190  1
  S2-  S194  1  0.00078401  0.38555817  0.45704201  1
  S2-  S195  1  -0.01141159  0.39338467  0.95919980  1
  S2-  S196  1  -0.00521024  0.63625610  0.44042733  1
  S2-  S197  1  -0.00847381  0.64100223  0.94974363  1
  S2-  S198  1  -0.01174669  0.88580765  0.45031382  1
  S2-  S199  1  -0.01606529  0.89188195  0.96245145  1
  S2-  S200  1  0.24233581  0.13653115  0.45785838  1
  S2-  S201  1  0.24427884  0.14200388  0.94765061  1
  S2-  S202  1  0.24494629  0.38456872  0.44880990  1
  S2-  S203  1  0.24004365  0.39253010  0.95320384  1
  S2-  S204  1  0.24400279  0.63753414  0.44792875  1
  S2-  S205  1  0.23553138  0.63571566  0.95164071  1
  S2-  S206  1  0.24287764  0.88521044  0.46112045  1
  S2-  S207  1  0.23806697  0.89589632  0.95308479  1
  S2-  S208  1  0.49049980  0.13308719  0.45574861  1
  S2-  S209  1  0.49134786  0.14286080  0.94255759  1
  S2-  S210  1  0.48814040  0.38571997  0.45919822  1
  S2-  S211  1  0.48633096  0.39398265  0.95968202  1
  S2-  S212  1  0.49686220  0.63980158  0.44064071  1
  S2-  S213  1  0.48818026  0.63882746  0.95581296  1
  S2-  S214  1  0.49292333  0.88848029  0.46008903  1
  S2-  S215  1  0.49034304  0.89305310  0.95587755  1
  S2-  S216  1  0.74798083  0.13629818  0.45896679  1
  S2-  S217  1  0.73566097  0.13860065  0.95857707  1
  S2-  S218  1  0.74469488  0.38509138  0.45687035  1
  S2-  S219  1  0.73945380  0.39429390  0.96306664  1
  S2-  S220  1  0.74337314  0.62839909  0.46045585  1
  S2-  S221  1  0.74422152  0.64221080  0.96069286  1
  S2-  S222  1  0.74490561  0.88852368  0.45658148  1
  S2-  S223  1  0.73833704  0.88947941  0.96274431  1
  S2-  S224  1  0.11603183  0.01588085  0.03676021  1
  S2-  S225  1  0.11366266  0.01127443  0.54442017  1
  S2-  S226  1  0.11705244  0.26468721  0.03278784  1
  S2-  S227  1  0.12085838  0.26178781  0.55031434  1
  S2-  S228  1  0.11210443  0.51366609  0.03457474  1
  S2-  S229  1  0.11963072  0.50741943  0.54809497  1
  S2-  S230  1  0.11018592  0.76720632  0.03268449  1
  S2-  S231  1  0.11699370  0.75601552  0.53413661  1
  S2-  S232  1  0.36558063  0.02146280  0.04091769  1
  S2-  S233  1  0.36585399  0.00952387  0.55511888  1
  S2-  S234  1  0.36398331  0.26609580  0.04494980  1
  S2-  S235  1  0.36279181  0.25359217  0.53949890  1
  S2-  S236  1  0.36230606  0.50941209  0.04699183  1
  S2-  S237  1  0.37065662  0.51484476  0.54543486  1
  S2-  S238  1  0.36022053  0.76414143  0.03170867  1
  S2-  S239  1  0.36671950  0.76175235  0.54916468  1
  S2-  S240  1  0.61472752  0.01897556  0.04225804  1
  S2-  S241  1  0.61997382  0.01365442  0.54618650  1
  S2-  S242  1  0.61402787  0.26715988  0.03785193  1
  S2-  S243  1  0.61655657  0.25761411  0.53638343  1
  S2-  S244  1  0.61179925  0.51863783  0.04526378  1
  S2-  S245  1  0.61388546  0.51100404  0.54410995  1
  S2-  S246  1  0.61473010  0.76314956  0.04425018  1
  S2-  S247  1  0.61765839  0.76064268  0.54224221  1
  S2-  S248  1  0.85883248  0.01594496  0.05306985  1
  S2-  S249  1  0.87278040  0.00485877  0.54279005  1
  S2-  S250  1  0.86185931  0.26639512  0.04226296  1
  S2-  S251  1  0.87645880  0.25801223  0.53942287  1
  S2-  S252  1  0.87071656  0.51362959  0.05598024  1
  S2-  S253  1  0.87674659  0.50599791  0.53803217  1
  S2-  S254  1  0.86974797  0.76346901  0.05690540  1
  S2-  S255  1  0.86730906  0.75866765  0.54491144  1
