# generated using pymatgen
data_La9Ce10Pr6Nd4Sm3(BiS2)32
_symmetry_space_group_name_H-M   'P 1'
_cell_length_a   16.20416901
_cell_length_b   16.17993978
_cell_length_c   27.01832063
_cell_angle_alpha   89.83190851
_cell_angle_beta   89.92361937
_cell_angle_gamma   89.98314747
_symmetry_Int_Tables_number   1
_chemical_formula_structural   La9Ce10Pr6Nd4Sm3(BiS2)32
_chemical_formula_sum   'La18 Ce20 Pr12 Nd8 Sm6 Bi64 S128'
_cell_volume   7083.69320208
_cell_formula_units_Z   2
loop_
 _symmetry_equiv_pos_site_id
 _symmetry_equiv_pos_as_xyz
  1  'x, y, z'
loop_
 _atom_type_symbol
 _atom_type_oxidation_number
  La3+  3.0
  Ce3+  3.0
  Pr3+  3.0
  Nd3+  3.0
  Sm3+  3.0
  Bi2+  2.0
  S2-  -2.0
loop_
 _atom_site_type_symbol
 _atom_site_label
 _atom_site_symmetry_multiplicity
 _atom_site_fract_x
 _atom_site_fract_y
 _atom_site_fract_z
 _atom_site_occupancy
  La3+  La0  1  0.50666304  0.87102807  0.56440222  1
  La3+  La1  1  0.88509756  0.50061664  0.42596860  1
  La3+  La2  1  0.13115570  0.76089855  0.43516031  1
  La3+  La3  1  0.50132994  0.62865093  0.08566683  1
  La3+  La4  1  -0.00205276  0.86521699  0.58374644  1
  La3+  La5  1  0.37841776  0.50662521  0.42068808  1
  La3+  La6  1  0.48886236  0.13551584  0.58590593  1
  La3+  La7  1  0.26003430  0.61986906  0.56723394  1
  La3+  La8  1  0.38354339  0.76242837  0.42115134  1
  La3+  La9  1  0.63990821  0.75239669  0.39869540  1
  La3+  La10  1  0.26055139  0.86737888  0.58069176  1
  La3+  La11  1  0.62148731  0.26273013  0.88053228  1
  La3+  La12  1  0.13049516  0.00328316  0.44220705  1
  La3+  La13  1  0.76892275  0.87856083  0.10811633  1
  La3+  La14  1  0.76333863  0.62140887  0.08677273  1
  La3+  La15  1  0.64447071  0.50995766  0.93433783  1
  La3+  La16  1  0.87942489  0.25337811  0.92966624  1
  La3+  La17  1  0.38723045  0.24972450  0.93327626  1
  Ce3+  Ce18  1  0.39144790  0.50344923  0.94220758  1
  Ce3+  Ce19  1  0.62690311  0.25175471  0.43842940  1
  Ce3+  Ce20  1  0.25289996  0.87524832  0.06165417  1
  Ce3+  Ce21  1  0.62852653  0.00041215  0.44494959  1
  Ce3+  Ce22  1  0.13471875  0.50272180  0.94432075  1
  Ce3+  Ce23  1  0.88530185  0.75603407  0.43215914  1
  Ce3+  Ce24  1  0.50987690  0.62266814  0.54390831  1
  Ce3+  Ce25  1  0.63778991  0.74889783  0.95393166  1
  Ce3+  Ce26  1  0.76234724  0.12183382  0.05449211  1
  Ce3+  Ce27  1  0.25513538  0.37716887  0.55780068  1
  Ce3+  Ce28  1  0.00048062  0.62620717  0.56207080  1
  Ce3+  Ce29  1  -0.00019388  0.37274477  0.56148951  1
  Ce3+  Ce30  1  0.01105174  0.62856740  0.06581963  1
  Ce3+  Ce31  1  0.75841468  0.37716548  0.55950052  1
  Ce3+  Ce32  1  0.13199187  0.24714895  0.43435595  1
  Ce3+  Ce33  1  0.38516789  0.74916707  0.94612379  1
  Ce3+  Ce34  1  0.63580546  0.00289612  0.93835878  1
  Ce3+  Ce35  1  0.00870542  0.37351787  0.06316582  1
  Ce3+  Ce36  1  0.75520844  0.62281203  0.54555286  1
  Ce3+  Ce37  1  0.13482262  0.25034750  0.94537976  1
  Pr3+  Pr38  1  0.88659033  -0.00462646  0.93498829  1
  Pr3+  Pr39  1  0.51390034  0.12513206  0.06391879  1
  Pr3+  Pr40  1  0.00988765  0.12028830  0.05590361  1
  Pr3+  Pr41  1  0.26185400  0.37604281  0.05469475  1
  Pr3+  Pr42  1  0.13218749  0.50164798  0.44658629  1
  Pr3+  Pr43  1  0.14035845  0.00931807  0.92814792  1
  Pr3+  Pr44  1  0.88758914  0.50273862  0.94184401  1
  Pr3+  Pr45  1  0.00574183  0.12497930  0.56732152  1
  Pr3+  Pr46  1  0.51101223  0.87413499  0.06481208  1
  Pr3+  Pr47  1  0.88099479  0.24685890  0.43808034  1
  Pr3+  Pr48  1  0.63053624  0.49456918  0.41880803  1
  Pr3+  Pr49  1  0.76674638  0.37404830  0.06991117  1
  Nd3+  Nd50  1  0.26883932  0.12826760  0.07081982  1
  Nd3+  Nd51  1  0.14560873  0.74209145  0.92093417  1
  Nd3+  Nd52  1  0.88814703  0.75275413  0.94901962  1
  Nd3+  Nd53  1  0.75316242  0.87157461  0.56188945  1
  Nd3+  Nd54  1  0.75050969  0.12704981  0.56137547  1
  Nd3+  Nd55  1  0.38582098  -0.00140659  0.94358138  1
  Nd3+  Nd56  1  0.51179521  0.38719579  0.56927964  1
  Nd3+  Nd57  1  0.51658563  0.37774001  0.05789496  1
  Sm3+  Sm58  1  0.01578695  0.87384714  0.06292463  1
  Sm3+  Sm59  1  0.25276139  0.12388385  0.55871263  1
  Sm3+  Sm60  1  0.87942549  -0.00240263  0.45088283  1
  Sm3+  Sm61  1  0.25764968  0.62493706  0.06504079  1
  Sm3+  Sm62  1  0.38458668  0.25152084  0.44303157  1
  Sm3+  Sm63  1  0.38423150  0.00213952  0.44369554  1
  Bi2+  Bi64  1  -0.01494872  0.15213074  0.29199740  1
  Bi2+  Bi65  1  0.01022948  0.21625719  0.80312730  1
  Bi2+  Bi66  1  0.01815423  0.34568761  0.27742607  1
  Bi2+  Bi67  1  0.00833933  0.40584227  0.81459853  1
  Bi2+  Bi68  1  0.01226319  0.58964017  0.29936100  1
  Bi2+  Bi69  1  -0.06113821  0.58916465  0.80691406  1
  Bi2+  Bi70  1  0.00197615  0.87104592  0.29736947  1
  Bi2+  Bi71  1  -0.02370721  0.87795698  0.81174021  1
  Bi2+  Bi72  1  0.25059198  0.13591633  0.29387105  1
  Bi2+  Bi73  1  0.20312514  0.20650101  0.75593195  1
  Bi2+  Bi74  1  0.21071577  0.32927502  0.28757152  1
  Bi2+  Bi75  1  0.21113460  0.40162759  0.78746962  1
  Bi2+  Bi76  1  0.22204460  0.61076634  0.27339044  1
  Bi2+  Bi77  1  0.26584742  0.59679623  0.79784761  1
  Bi2+  Bi78  1  0.23792041  0.80768026  0.29456459  1
  Bi2+  Bi79  1  0.25842344  0.88844886  0.81454791  1
  Bi2+  Bi80  1  0.55581148  0.12022166  0.33466720  1
  Bi2+  Bi81  1  0.49366397  0.07199478  0.78034283  1
  Bi2+  Bi82  1  0.49931756  0.29958000  0.29397532  1
  Bi2+  Bi83  1  0.48649686  0.38758874  0.78241595  1
  Bi2+  Bi84  1  0.47674698  0.60637106  0.29361284  1
  Bi2+  Bi85  1  0.51818282  0.66616384  0.78707700  1
  Bi2+  Bi86  1  0.49021672  0.93497711  0.30317838  1
  Bi2+  Bi87  1  0.50744343  0.87768691  0.79684384  1
  Bi2+  Bi88  1  0.73219072  0.12441252  0.28469721  1
  Bi2+  Bi89  1  0.74123124  0.05199886  0.77796450  1
  Bi2+  Bi90  1  0.74631732  0.32509233  0.27515246  1
  Bi2+  Bi91  1  0.75097549  0.39927201  0.78711349  1
  Bi2+  Bi92  1  0.77092314  0.65000568  0.27197433  1
  Bi2+  Bi93  1  0.71003799  0.69266193  0.77293832  1
  Bi2+  Bi94  1  0.76760028  0.91365426  0.28826176  1
  Bi2+  Bi95  1  0.69827864  0.87595927  0.82257390  1
  Bi2+  Bi96  1  0.16249493  -0.05470405  0.22595008  1
  Bi2+  Bi97  1  0.11941798  0.03180421  0.72399661  1
  Bi2+  Bi98  1  0.11521081  0.20346347  0.20717274  1
  Bi2+  Bi99  1  0.10630264  0.31400991  0.67497457  1
  Bi2+  Bi100  1  0.10051123  0.47751645  0.20446859  1
  Bi2+  Bi101  1  0.08169530  0.49658173  0.71520199  1
  Bi2+  Bi102  1  0.13969463  0.66128050  0.17401084  1
  Bi2+  Bi103  1  0.13370728  0.77063949  0.71372897  1
  Bi2+  Bi104  1  0.36610323  0.02855748  0.21671997  1
  Bi2+  Bi105  1  0.35888666  0.00904394  0.71253990  1
  Bi2+  Bi106  1  0.35111206  0.25959061  0.21652557  1
  Bi2+  Bi107  1  0.31274548  0.33616865  0.69323026  1
  Bi2+  Bi108  1  0.36674804  0.47659364  0.20640602  1
  Bi2+  Bi109  1  0.37950725  0.56017604  0.70695426  1
  Bi2+  Bi110  1  0.32729120  0.84075489  0.19472376  1
  Bi2+  Bi111  1  0.39887554  0.75585784  0.71355004  1
  Bi2+  Bi112  1  0.56586197  0.05318550  0.21749608  1
  Bi2+  Bi113  1  0.64119036  -0.08365282  0.71058676  1
  Bi2+  Bi114  1  0.62610202  0.23717638  0.19788253  1
  Bi2+  Bi115  1  0.63196771  0.23853483  0.67956209  1
  Bi2+  Bi116  1  0.61992544  0.47410178  0.22347337  1
  Bi2+  Bi117  1  0.63810331  0.54697820  0.68904147  1
  Bi2+  Bi118  1  0.60719343  0.76781563  0.22146296  1
  Bi2+  Bi119  1  0.58990293  0.73976412  0.67137686  1
  Bi2+  Bi120  1  0.90858792  0.00285300  0.21477945  1
  Bi2+  Bi121  1  0.88455315  -0.02367821  0.72140109  1
  Bi2+  Bi122  1  0.82170719  0.20857146  0.18726691  1
  Bi2+  Bi123  1  0.91031433  0.24594702  0.70618245  1
  Bi2+  Bi124  1  0.88008949  0.47539243  0.20934215  1
  Bi2+  Bi125  1  0.88417396  0.49598133  0.71226645  1
  Bi2+  Bi126  1  0.97585382  0.73136231  0.21718573  1
  Bi2+  Bi127  1  0.86947486  0.72500240  0.70993583  1
  S2-  S128  1  -0.00017716  0.10653820  0.15716660  1
  S2-  S129  1  -0.00952232  0.10856254  0.66860322  1
  S2-  S130  1  -0.09126099  0.34889596  0.14293838  1
  S2-  S131  1  -0.11879388  0.37610204  0.63658416  1
  S2-  S132  1  -0.08522348  0.60919871  0.14916008  1
  S2-  S133  1  0.00946016  0.70872689  0.65039411  1
  S2-  S134  1  -0.07216303  0.87150720  0.15300544  1
  S2-  S135  1  0.02774508  0.90427186  0.68569506  1
  S2-  S136  1  0.20711070  0.07898435  0.16066837  1
  S2-  S137  1  0.32884300  0.12493260  0.64705919  1
  S2-  S138  1  0.25896534  0.37690666  0.15616204  1
  S2-  S139  1  0.27722882  0.48201862  0.63776478  1
  S2-  S140  1  0.35341069  0.60633874  0.14880102  1
  S2-  S141  1  0.24602659  0.71973263  0.65223988  1
  S2-  S142  1  0.13980259  0.86671825  0.13555089  1
  S2-  S143  1  0.21788191  0.92450108  0.67978817  1
  S2-  S144  1  0.40399248  0.15160471  0.14206377  1
  S2-  S145  1  0.54742007  0.08440440  0.68008674  1
  S2-  S146  1  0.50065986  0.40971021  0.15821051  1
  S2-  S147  1  0.47295049  0.28904866  0.65094522  1
  S2-  S148  1  0.56572085  0.60979662  0.18296637  1
  S2-  S149  1  0.49670374  0.53600761  0.63125051  1
  S2-  S150  1  0.48479600  0.80207601  0.15640201  1
  S2-  S151  1  0.40771382  0.88799424  0.64696653  1
  S2-  S152  1  0.78385114  0.05394484  0.14437764  1
  S2-  S153  1  0.77888021  0.15598960  0.65963158  1
  S2-  S154  1  0.73926169  0.47821926  0.15415368  1
  S2-  S155  1  0.65781306  0.39957583  0.63962468  1
  S2-  S156  1  0.74630974  0.72839671  0.17249672  1
  S2-  S157  1  0.79094134  0.60935955  0.64365531  1
  S2-  S158  1  0.67065476  0.91121372  0.19586947  1
  S2-  S159  1  0.84028367  0.86273413  0.64950717  1
  S2-  S160  1  0.13397030  -0.10196600  0.36092212  1
  S2-  S161  1  0.11967098  -0.01974267  0.82727303  1
  S2-  S162  1  0.11294001  0.13098126  0.36048201  1
  S2-  S163  1  0.15504547  0.17603985  0.85886872  1
  S2-  S164  1  0.14789458  0.51222842  0.34579004  1
  S2-  S165  1  0.13640710  0.59324327  0.86100905  1
  S2-  S166  1  0.00853894  0.73536993  0.36069110  1
  S2-  S167  1  0.11352926  0.78659658  0.81996658  1
  S2-  S168  1  0.35744831  -0.08898080  0.35879640  1
  S2-  S169  1  0.34951252  0.02276191  0.84555235  1
  S2-  S170  1  0.39210233  0.18602149  0.35051536  1
  S2-  S171  1  0.45287956  0.25632351  0.83983366  1
  S2-  S172  1  0.42840042  0.45014919  0.32570543  1
  S2-  S173  1  0.39141383  0.49553609  0.84313856  1
  S2-  S174  1  0.34780084  0.63886458  0.34958080  1
  S2-  S175  1  0.30997398  0.74158693  0.85714533  1
  S2-  S176  1  0.64738225  -0.07947802  0.35592000  1
  S2-  S177  1  0.61921716  0.09043886  0.85045186  1
  S2-  S178  1  0.63586258  0.35108088  0.35469053  1
  S2-  S179  1  0.62314469  0.28143601  0.77095346  1
  S2-  S180  1  0.64176624  0.58831368  0.32896492  1
  S2-  S181  1  0.60738710  0.43121938  0.84431248  1
  S2-  S182  1  0.50968447  0.76212577  0.32896675  1
  S2-  S183  1  0.62974438  0.65867107  0.86942723  1
  S2-  S184  1  0.89418727  -0.01982837  0.35210582  1
  S2-  S185  1  0.89186666  0.03273551  0.83395062  1
  S2-  S186  1  0.88788101  0.28173406  0.33904062  1
  S2-  S187  1  0.78950546  0.27083270  0.84346139  1
  S2-  S188  1  0.85888693  0.52259331  0.32486108  1
  S2-  S189  1  0.79878398  0.51710988  0.85493163  1
  S2-  S190  1  0.79230705  0.76043584  0.34204230  1
  S2-  S191  1  0.89755153  0.74882351  0.84712493  1
  S2-  S192  1  0.00047012  0.12329044  0.46032088  1
  S2-  S193  1  0.00776743  0.12587105  0.94890234  1
  S2-  S194  1  0.00837172  0.37221702  0.44987310  1
  S2-  S195  1  0.01187724  0.37438411  0.95514320  1
  S2-  S196  1  0.00688800  0.62321394  0.45729737  1
  S2-  S197  1  0.01094566  0.62806452  0.95835672  1
  S2-  S198  1  0.00239597  0.88073492  0.46692528  1
  S2-  S199  1  0.01875235  0.87492375  0.95032477  1
  S2-  S200  1  0.26133925  0.12640386  0.45462202  1
  S2-  S201  1  0.26545726  0.12602295  0.96201050  1
  S2-  S202  1  0.25717115  0.37218967  0.44625321  1
  S2-  S203  1  0.26028202  0.37682107  0.94650493  1
  S2-  S204  1  0.25146217  0.63034095  0.45670553  1
  S2-  S205  1  0.26487669  0.62125579  0.96100115  1
  S2-  S206  1  0.25927924  0.87922111  0.46687480  1
  S2-  S207  1  0.25835329  0.87639622  0.95371097  1
  S2-  S208  1  0.50364797  0.12637348  0.46587948  1
  S2-  S209  1  0.50832579  0.12348478  0.95708854  1
  S2-  S210  1  0.50272634  0.37431778  0.45293620  1
  S2-  S211  1  0.51460773  0.37456279  0.95182284  1
  S2-  S212  1  0.51213242  0.62950722  0.43921355  1
  S2-  S213  1  0.50633639  0.62854150  0.96807412  1
  S2-  S214  1  0.50800032  0.87771217  0.45579044  1
  S2-  S215  1  0.51039433  0.87475949  0.95528689  1
  S2-  S216  1  0.75524110  0.12345978  0.45201813  1
  S2-  S217  1  0.76256099  0.12083970  0.94909924  1
  S2-  S218  1  0.76083776  0.37486124  0.45033842  1
  S2-  S219  1  0.76166742  0.37882802  0.95978119  1
  S2-  S220  1  0.75814396  0.62524399  0.44045916  1
  S2-  S221  1  0.76749824  0.63109631  0.96998563  1
  S2-  S222  1  0.75699645  0.87566815  0.45726277  1
  S2-  S223  1  0.75945952  0.87417608  0.94972990  1
  S2-  S224  1  0.13661057  0.00318834  0.03823988  1
  S2-  S225  1  0.13054684  -0.00020462  0.55598287  1
  S2-  S226  1  0.13677045  0.24816638  0.05307289  1
  S2-  S227  1  0.13079677  0.24887256  0.54276776  1
  S2-  S228  1  0.13421805  0.49981672  0.05152389  1
  S2-  S229  1  0.12264769  0.49899981  0.55264500  1
  S2-  S230  1  0.13696271  0.74581077  0.03585674  1
  S2-  S231  1  0.12837857  0.74884066  0.54699210  1
  S2-  S232  1  0.38455715  -0.00325876  0.05152226  1
  S2-  S233  1  0.37921581  0.00335169  0.54679781  1
  S2-  S234  1  0.38938510  0.25619774  0.04195618  1
  S2-  S235  1  0.37247240  0.25415795  0.54470074  1
  S2-  S236  1  0.38589673  0.49825860  0.04698385  1
  S2-  S237  1  0.38219772  0.49767152  0.52999229  1
  S2-  S238  1  0.37739182  0.75252091  0.05010428  1
  S2-  S239  1  0.38537860  0.74430742  0.54249504  1
  S2-  S240  1  0.63600899  -0.00315192  0.05036531  1
  S2-  S241  1  0.63002695  0.00028794  0.55503085  1
  S2-  S242  1  0.63829426  0.24975674  0.05830630  1
  S2-  S243  1  0.62718771  0.25026790  0.54592529  1
  S2-  S244  1  0.63334973  0.50472294  0.04932568  1
  S2-  S245  1  0.63515505  0.50084668  0.52768922  1
  S2-  S246  1  0.63868692  0.75340807  0.06024904  1
  S2-  S247  1  0.63345724  0.74746549  0.54271816  1
  S2-  S248  1  0.88922945  -0.00739175  0.04236878  1
  S2-  S249  1  0.87735240  0.00253438  0.55582799  1
  S2-  S250  1  0.88634471  0.24482689  0.03894720  1
  S2-  S251  1  0.87966405  0.24448809  0.54426349  1
  S2-  S252  1  0.89073255  0.49848165  0.04736011  1
  S2-  S253  1  0.88292700  0.50089428  0.53570682  1
  S2-  S254  1  0.88725409  0.75565776  0.05384126  1
  S2-  S255  1  0.87735642  0.74834856  0.54067820  1
