# generated using pymatgen
data_La9Ce10Pr6Nd4Sm3(BiS2)32
_symmetry_space_group_name_H-M   'P 1'
_cell_length_a   16.25542507
_cell_length_b   16.26150137
_cell_length_c   27.05856828
_cell_angle_alpha   90.03187910
_cell_angle_beta   89.88577626
_cell_angle_gamma   90.00403549
_symmetry_Int_Tables_number   1
_chemical_formula_structural   La9Ce10Pr6Nd4Sm3(BiS2)32
_chemical_formula_sum   'La18 Ce20 Pr12 Nd8 Sm6 Bi64 S128'
_cell_volume   7152.58212095
_cell_formula_units_Z   2
loop_
 _symmetry_equiv_pos_site_id
 _symmetry_equiv_pos_as_xyz
  1  'x, y, z'
loop_
 _atom_type_symbol
 _atom_type_oxidation_number
  La3+  3.0
  Ce3+  3.0
  Pr3+  3.0
  Nd3+  3.0
  Sm3+  3.0
  Bi2+  2.0
  S2-  -2.0
loop_
 _atom_site_type_symbol
 _atom_site_label
 _atom_site_symmetry_multiplicity
 _atom_site_fract_x
 _atom_site_fract_y
 _atom_site_fract_z
 _atom_site_occupancy
  La3+  La0  1  0.12507478  0.25171294  0.44069264  1
  La3+  La1  1  0.49268731  0.88458475  0.07369415  1
  La3+  La2  1  -0.00358067  0.63725425  0.06798310  1
  La3+  La3  1  0.12216716  0.74748442  0.43640960  1
  La3+  La4  1  0.75249379  0.12542695  0.10471373  1
  La3+  La5  1  0.61886671  0.51506627  0.92062216  1
  La3+  La6  1  0.74267901  0.37708599  0.56958692  1
  La3+  La7  1  0.49885223  0.38539016  0.06142933  1
  La3+  La8  1  0.24882188  0.62504354  0.55893539  1
  La3+  La9  1  0.75328341  0.39103903  0.07927753  1
  La3+  La10  1  0.87886923  -0.00156526  0.42683416  1
  La3+  La11  1  0.62164756  0.00846241  0.94863470  1
  La3+  La12  1  0.24812931  0.12542906  0.60852483  1
  La3+  La13  1  0.88101056  0.76203192  0.92632714  1
  La3+  La14  1  0.49085233  0.13779263  0.07650815  1
  La3+  La15  1  0.48901355  0.62970341  0.07159742  1
  La3+  La16  1  0.11660384  0.26260445  0.92029227  1
  La3+  La17  1  0.50305136  0.12389506  0.56810467  1
  Ce3+  Ce18  1  -0.00179123  0.62507333  0.56012897  1
  Ce3+  Ce19  1  0.24871631  0.88801979  0.06446129  1
  Ce3+  Ce20  1  -0.00069321  0.37261920  0.56410988  1
  Ce3+  Ce21  1  0.12303802  0.75939028  0.94529157  1
  Ce3+  Ce22  1  0.86868618  0.50763621  0.93845250  1
  Ce3+  Ce23  1  0.87101010  0.25221006  0.44977959  1
  Ce3+  Ce24  1  0.24422212  0.13652802  0.05957527  1
  Ce3+  Ce25  1  0.74962145  0.87662878  0.55576436  1
  Ce3+  Ce26  1  0.00069979  0.12424358  0.56171355  1
  Ce3+  Ce27  1  0.24872352  0.37022392  0.56737771  1
  Ce3+  Ce28  1  -0.00354119  0.13489680  0.05944029  1
  Ce3+  Ce29  1  0.37414692  0.49802146  0.44106982  1
  Ce3+  Ce30  1  0.74600043  0.12108230  0.55903959  1
  Ce3+  Ce31  1  0.49828918  0.87784962  0.55378277  1
  Ce3+  Ce32  1  0.37126180  0.01005959  0.94205436  1
  Ce3+  Ce33  1  0.37331232  0.51047538  0.93388374  1
  Ce3+  Ce34  1  0.87082643  0.00933926  0.94738022  1
  Ce3+  Ce35  1  0.62594560  0.24848700  0.43205298  1
  Ce3+  Ce36  1  0.74546870  0.63128252  0.05536822  1
  Ce3+  Ce37  1  0.37539008  0.24738671  0.44515683  1
  Pr3+  Pr38  1  0.62396442  0.74839567  0.43721759  1
  Pr3+  Pr39  1  0.37513400  0.25723640  0.93523353  1
  Pr3+  Pr40  1  0.63202267  -0.00060283  0.42406247  1
  Pr3+  Pr41  1  0.49884334  0.37477496  0.55311078  1
  Pr3+  Pr42  1  0.37521592  0.75115592  0.43830565  1
  Pr3+  Pr43  1  0.37525870  0.00403947  0.44235229  1
  Pr3+  Pr44  1  0.61823130  0.75892745  0.94166525  1
  Pr3+  Pr45  1  0.49758956  0.62753412  0.56118046  1
  Pr3+  Pr46  1  0.74209058  0.87886896  0.07106654  1
  Pr3+  Pr47  1  0.12250405  0.00145021  0.43558915  1
  Pr3+  Pr48  1  0.87236664  0.74581301  0.43946101  1
  Pr3+  Pr49  1  -0.00499122  0.88456753  0.06818583  1
  Nd3+  Nd50  1  0.87242489  0.49861353  0.44940868  1
  Nd3+  Nd51  1  0.24340268  0.38155877  0.05051949  1
  Nd3+  Nd52  1  0.24104342  0.62898530  0.06174660  1
  Nd3+  Nd53  1  0.86599631  0.25992862  0.94479153  1
  Nd3+  Nd54  1  0.62397150  0.50184330  0.43800704  1
  Nd3+  Nd55  1  -0.00371910  0.38037930  0.05881734  1
  Nd3+  Nd56  1  0.12107728  0.00957886  0.93756386  1
  Nd3+  Nd57  1  0.00051501  0.87647964  0.56040386  1
  Sm3+  Sm58  1  0.36991109  0.75821590  0.94541078  1
  Sm3+  Sm59  1  0.74768852  0.63481393  0.56898088  1
  Sm3+  Sm60  1  0.12438397  0.49802157  0.44998707  1
  Sm3+  Sm61  1  0.24717320  0.87901801  0.55518336  1
  Sm3+  Sm62  1  0.11939485  0.50957179  0.93324629  1
  Sm3+  Sm63  1  0.62665492  0.25904083  0.95248297  1
  Bi2+  Bi64  1  0.01783408  0.10362637  0.26948290  1
  Bi2+  Bi65  1  -0.02389840  0.05142446  0.78261197  1
  Bi2+  Bi66  1  0.03218473  0.37604284  0.29640492  1
  Bi2+  Bi67  1  -0.00153366  0.36560179  0.78888181  1
  Bi2+  Bi68  1  0.04932833  0.63054032  0.27997893  1
  Bi2+  Bi69  1  0.09852448  0.61319431  0.80217346  1
  Bi2+  Bi70  1  0.01053222  0.87489130  0.28803303  1
  Bi2+  Bi71  1  -0.03661871  0.84048049  0.78985948  1
  Bi2+  Bi72  1  0.20872055  0.13189485  0.27955192  1
  Bi2+  Bi73  1  0.24814457  0.08897958  0.81092434  1
  Bi2+  Bi74  1  0.22772909  0.40685112  0.29532480  1
  Bi2+  Bi75  1  0.26732980  0.43279389  0.79425394  1
  Bi2+  Bi76  1  0.23840172  0.58938436  0.25467743  1
  Bi2+  Bi77  1  0.29121526  0.63859086  0.80212276  1
  Bi2+  Bi78  1  0.20728748  0.88436337  0.27534841  1
  Bi2+  Bi79  1  0.26789867  0.81767775  0.75160058  1
  Bi2+  Bi80  1  0.46826994  0.11930366  0.30306420  1
  Bi2+  Bi81  1  0.50966788  0.16391605  0.78501026  1
  Bi2+  Bi82  1  0.42009344  0.37779934  0.28492032  1
  Bi2+  Bi83  1  0.45700690  0.42112524  0.76064829  1
  Bi2+  Bi84  1  0.50474195  0.62352734  0.29604697  1
  Bi2+  Bi85  1  0.49008691  0.63292904  0.78878926  1
  Bi2+  Bi86  1  0.48764348  0.87167208  0.30066485  1
  Bi2+  Bi87  1  0.50797566  0.88807600  0.80500771  1
  Bi2+  Bi88  1  0.76541109  0.15454338  0.30785955  1
  Bi2+  Bi89  1  0.70507697  0.14232151  0.79688210  1
  Bi2+  Bi90  1  0.83896637  0.39855098  0.28430631  1
  Bi2+  Bi91  1  0.78195926  0.36429576  0.81111984  1
  Bi2+  Bi92  1  0.76621983  0.60706263  0.28247687  1
  Bi2+  Bi93  1  0.73181166  0.63917248  0.77759727  1
  Bi2+  Bi94  1  0.76923110  0.84267254  0.28140848  1
  Bi2+  Bi95  1  0.75502548  0.90059185  0.78627501  1
  Bi2+  Bi96  1  0.13445564  -0.03874421  0.16969817  1
  Bi2+  Bi97  1  0.10896609  -0.02294852  0.70738989  1
  Bi2+  Bi98  1  0.13234693  0.17561705  0.17228407  1
  Bi2+  Bi99  1  0.10938696  0.24790441  0.71954448  1
  Bi2+  Bi100  1  0.12486526  0.45258128  0.19552282  1
  Bi2+  Bi101  1  0.12634087  0.46648702  0.70841239  1
  Bi2+  Bi102  1  0.12050985  0.74865135  0.19370945  1
  Bi2+  Bi103  1  0.12410680  0.72863202  0.70611657  1
  Bi2+  Bi104  1  0.31896225  0.00819684  0.21070330  1
  Bi2+  Bi105  1  0.42901523  0.01649505  0.72411660  1
  Bi2+  Bi106  1  0.31037325  0.26014842  0.21484093  1
  Bi2+  Bi107  1  0.36458520  0.25893499  0.72761680  1
  Bi2+  Bi108  1  0.40444757  0.49393800  0.19086199  1
  Bi2+  Bi109  1  0.32030063  0.49733061  0.68979894  1
  Bi2+  Bi110  1  0.31921931  0.75640217  0.21494204  1
  Bi2+  Bi111  1  0.43162103  0.75735712  0.70033150  1
  Bi2+  Bi112  1  0.64590786  -0.00295184  0.21881815  1
  Bi2+  Bi113  1  0.64088989  0.00682714  0.70899235  1
  Bi2+  Bi114  1  0.59368054  0.24736233  0.22263447  1
  Bi2+  Bi115  1  0.63309142  0.26363188  0.71006702  1
  Bi2+  Bi116  1  0.64694136  0.48296261  0.21053560  1
  Bi2+  Bi117  1  0.62818689  0.49108034  0.68960516  1
  Bi2+  Bi118  1  0.63182275  0.74054719  0.21870411  1
  Bi2+  Bi119  1  0.62142263  0.80592922  0.72214602  1
  Bi2+  Bi120  1  0.94516013  -0.02530917  0.19482747  1
  Bi2+  Bi121  1  0.83574650  0.02180703  0.69933289  1
  Bi2+  Bi122  1  0.97369063  0.27290230  0.20279182  1
  Bi2+  Bi123  1  0.86782458  0.19920250  0.74076544  1
  Bi2+  Bi124  1  0.91654638  0.54113592  0.21405687  1
  Bi2+  Bi125  1  0.95000296  0.53870668  0.74303625  1
  Bi2+  Bi126  1  0.82288274  0.72421873  0.19198778  1
  Bi2+  Bi127  1  0.87979262  0.77125321  0.70007734  1
  S2-  S128  1  -0.08545530  0.13342608  0.14659586  1
  S2-  S129  1  0.07790341  0.12059168  0.65048030  1
  S2-  S130  1  -0.08736417  0.40330131  0.14564903  1
  S2-  S131  1  0.00722424  0.35400653  0.66169815  1
  S2-  S132  1  0.12429597  0.60134941  0.13737620  1
  S2-  S133  1  -0.01446549  0.64749641  0.65734037  1
  S2-  S134  1  -0.02961371  0.76213477  0.14156234  1
  S2-  S135  1  -0.02784963  0.89764250  0.65826609  1
  S2-  S136  1  0.34499809  0.14091253  0.14226715  1
  S2-  S137  1  0.25130855  0.05631931  0.70777358  1
  S2-  S138  1  0.26993651  0.39694384  0.14970164  1
  S2-  S139  1  0.24188110  0.28258055  0.65501631  1
  S2-  S140  1  0.34912908  0.63291921  0.14169143  1
  S2-  S141  1  0.24959792  0.64401621  0.65884073  1
  S2-  S142  1  0.35923215  0.88354782  0.14457109  1
  S2-  S143  1  0.21065505  0.86822274  0.65203356  1
  S2-  S144  1  0.54886976  0.10325971  0.17200680  1
  S2-  S145  1  0.41145731  0.14210507  0.65465496  1
  S2-  S146  1  0.49623452  0.35166903  0.16103525  1
  S2-  S147  1  0.52480180  0.36135344  0.65223630  1
  S2-  S148  1  0.54273351  0.60549323  0.17071841  1
  S2-  S149  1  0.51594069  0.61373373  0.66083914  1
  S2-  S150  1  0.59087908  0.86512088  0.15815396  1
  S2-  S151  1  0.46699514  0.90586127  0.64814446  1
  S2-  S152  1  0.73055978  0.14787102  0.20938379  1
  S2-  S153  1  0.64016278  0.13402631  0.63749984  1
  S2-  S154  1  0.70705288  0.33907126  0.17587069  1
  S2-  S155  1  0.74780673  0.36863452  0.67139067  1
  S2-  S156  1  0.73617350  0.54063990  0.13819673  1
  S2-  S157  1  0.74666687  0.58887526  0.66532228  1
  S2-  S158  1  0.77472406  0.96629706  0.15714159  1
  S2-  S159  1  0.74455890  0.80201297  0.64443937  1
  S2-  S160  1  0.01346578  0.00395817  0.35566880  1
  S2-  S161  1  0.13492833  -0.01853013  0.83789676  1
  S2-  S162  1  0.11814404  0.24216904  0.33982977  1
  S2-  S163  1  0.13523895  0.19899441  0.82345133  1
  S2-  S164  1  0.10773812  0.50981668  0.35285277  1
  S2-  S165  1  0.12395942  0.40412137  0.85494840  1
  S2-  S166  1  0.13170967  0.75723697  0.33643575  1
  S2-  S167  1  0.04031277  0.75801229  0.86009712  1
  S2-  S168  1  0.38261060  -0.00827404  0.34077736  1
  S2-  S169  1  0.38757140  -0.01097241  0.84465692  1
  S2-  S170  1  0.37548756  0.24159876  0.34725813  1
  S2-  S171  1  0.36965884  0.22257511  0.83510448  1
  S2-  S172  1  0.40216557  0.52565206  0.34445929  1
  S2-  S173  1  0.47897079  0.50160347  0.85555619  1
  S2-  S174  1  0.40229057  0.75113638  0.33817720  1
  S2-  S175  1  0.40368615  0.75711841  0.84808088  1
  S2-  S176  1  0.58399524  0.01423527  0.32465170  1
  S2-  S177  1  0.63250046  -0.02352060  0.84903935  1
  S2-  S178  1  0.61871063  0.24490961  0.33168232  1
  S2-  S179  1  0.65158697  0.27872709  0.85378861  1
  S2-  S180  1  0.62260356  0.53987629  0.33940304  1
  S2-  S181  1  0.69451906  0.49206102  0.82627622  1
  S2-  S182  1  0.62736707  0.79751017  0.34012464  1
  S2-  S183  1  0.61718001  0.67881213  0.85100622  1
  S2-  S184  1  0.77910137  0.00555706  0.34401439  1
  S2-  S185  1  0.88168259  -0.03543546  0.85231546  1
  S2-  S186  1  0.87355562  0.25981987  0.35152663  1
  S2-  S187  1  0.90591152  0.24834589  0.84668031  1
  S2-  S188  1  0.86522065  0.52146132  0.35079640  1
  S2-  S189  1  0.90581435  0.49406243  0.84175971  1
  S2-  S190  1  0.89018609  0.79190957  0.34262994  1
  S2-  S191  1  0.83396700  0.72384239  0.82910265  1
  S2-  S192  1  -0.00263137  0.12934382  0.45561631  1
  S2-  S193  1  -0.00396266  0.13396341  0.95030666  1
  S2-  S194  1  -0.00164203  0.37766968  0.45640224  1
  S2-  S195  1  -0.00746425  0.38388197  0.95290059  1
  S2-  S196  1  -0.00091863  0.62118091  0.45300859  1
  S2-  S197  1  -0.00088267  0.63002012  0.95587816  1
  S2-  S198  1  -0.00029044  0.87089602  0.45405159  1
  S2-  S199  1  -0.00025031  0.88726268  0.95995521  1
  S2-  S200  1  0.24769226  0.12407482  0.44284898  1
  S2-  S201  1  0.24477320  0.13561555  0.94986093  1
  S2-  S202  1  0.24958663  0.37695229  0.45672932  1
  S2-  S203  1  0.25112999  0.38348845  0.94557442  1
  S2-  S204  1  0.24889561  0.62292858  0.44937481  1
  S2-  S205  1  0.24469553  0.63197713  0.95031960  1
  S2-  S206  1  0.24822899  0.87628452  0.44811441  1
  S2-  S207  1  0.24750103  0.88392007  0.95302173  1
  S2-  S208  1  0.50369899  0.12425863  0.45324115  1
  S2-  S209  1  0.49996546  0.13658855  0.95796622  1
  S2-  S210  1  0.50160960  0.37535645  0.44542493  1
  S2-  S211  1  0.50037273  0.37781997  0.95272622  1
  S2-  S212  1  0.49842726  0.62530605  0.45322878  1
  S2-  S213  1  0.49122500  0.63692750  0.95946833  1
  S2-  S214  1  0.50101880  0.87712095  0.44764454  1
  S2-  S215  1  0.49286555  0.88151700  0.96069915  1
  S2-  S216  1  0.74986782  0.12601717  0.45279551  1
  S2-  S217  1  0.74620949  0.13345243  0.95181753  1
  S2-  S218  1  0.74581140  0.37757890  0.45564007  1
  S2-  S219  1  0.74557250  0.38569716  0.95976971  1
  S2-  S220  1  0.74737253  0.62427134  0.45867371  1
  S2-  S221  1  0.74919388  0.63591145  0.94937609  1
  S2-  S222  1  0.75014400  0.87231375  0.44994221  1
  S2-  S223  1  0.74659865  0.88021709  0.95711554  1
  S2-  S224  1  0.12100936  0.01081891  0.04520046  1
  S2-  S225  1  0.12553212  0.00051079  0.54368902  1
  S2-  S226  1  0.11927405  0.26035372  0.03656032  1
  S2-  S227  1  0.12445793  0.24851056  0.54878896  1
  S2-  S228  1  0.11791711  0.50102984  0.03580716  1
  S2-  S229  1  0.12355319  0.49810392  0.55543907  1
  S2-  S230  1  0.12644286  0.76441509  0.04842546  1
  S2-  S231  1  0.12391673  0.75202052  0.54568022  1
  S2-  S232  1  0.37054420  0.01277370  0.04526237  1
  S2-  S233  1  0.36428749  0.00556605  0.54969637  1
  S2-  S234  1  0.37050404  0.26265094  0.04241945  1
  S2-  S235  1  0.37280192  0.24933105  0.54954996  1
  S2-  S236  1  0.36747102  0.50447493  0.04010948  1
  S2-  S237  1  0.37394079  0.49863663  0.54883691  1
  S2-  S238  1  0.36705180  0.75772104  0.04683247  1
  S2-  S239  1  0.37113336  0.75439390  0.54643485  1
  S2-  S240  1  0.62332843  0.01161541  0.05635605  1
  S2-  S241  1  0.62520716  -0.00369264  0.53758903  1
  S2-  S242  1  0.62685562  0.25421868  0.05787911  1
  S2-  S243  1  0.62478450  0.25281201  0.53929960  1
  S2-  S244  1  0.61796747  0.51012921  0.03882775  1
  S2-  S245  1  0.62389711  0.50533846  0.54650227  1
  S2-  S246  1  0.61890592  0.75377328  0.04994751  1
  S2-  S247  1  0.62154583  0.75077521  0.54578977  1
  S2-  S248  1  0.86881356  0.00665651  0.04949264  1
  S2-  S249  1  0.87501660  -0.00016435  0.54282083  1
  S2-  S250  1  0.86758068  0.25629012  0.05035842  1
  S2-  S251  1  0.87070304  0.24813037  0.55778643  1
  S2-  S252  1  0.87626153  0.51308106  0.04297812  1
  S2-  S253  1  0.87093878  0.50173776  0.55613862  1
  S2-  S254  1  0.86623169  0.75994381  0.03799346  1
  S2-  S255  1  0.87547165  0.75010975  0.54645944  1
