# generated using pymatgen
data_La9Ce10Pr6Nd4Sm3(BiS2)32
_symmetry_space_group_name_H-M   'P 1'
_cell_length_a   16.14976757
_cell_length_b   16.12704435
_cell_length_c   27.34572083
_cell_angle_alpha   90.42737431
_cell_angle_beta   90.39095085
_cell_angle_gamma   90.10278146
_symmetry_Int_Tables_number   1
_chemical_formula_structural   La9Ce10Pr6Nd4Sm3(BiS2)32
_chemical_formula_sum   'La18 Ce20 Pr12 Nd8 Sm6 Bi64 S128'
_cell_volume   7121.76274256
_cell_formula_units_Z   2
loop_
 _symmetry_equiv_pos_site_id
 _symmetry_equiv_pos_as_xyz
  1  'x, y, z'
loop_
 _atom_type_symbol
 _atom_type_oxidation_number
  La3+  3.0
  Ce3+  3.0
  Pr3+  3.0
  Nd3+  3.0
  Sm3+  3.0
  Bi2+  2.0
  S2-  -2.0
loop_
 _atom_site_type_symbol
 _atom_site_label
 _atom_site_symmetry_multiplicity
 _atom_site_fract_x
 _atom_site_fract_y
 _atom_site_fract_z
 _atom_site_occupancy
  La3+  La0  1  0.35362938  0.00757796  0.91423044  1
  La3+  La1  1  0.75484420  0.38266217  0.60011928  1
  La3+  La2  1  0.25798206  0.88206984  0.60987428  1
  La3+  La3  1  0.75043536  0.89047174  0.56211127  1
  La3+  La4  1  0.60668722  0.23725247  0.92648860  1
  La3+  La5  1  0.85701885  0.74182045  0.94007899  1
  La3+  La6  1  -0.00118518  0.13937273  0.55290825  1
  La3+  La7  1  0.86372090  -0.00567673  0.38757038  1
  La3+  La8  1  0.63401550  0.75801760  0.42628961  1
  La3+  La9  1  0.74976621  0.64693191  0.57582430  1
  La3+  La10  1  0.48013911  0.12567542  0.07043096  1
  La3+  La11  1  0.37252323  0.51737226  0.40975806  1
  La3+  La12  1  0.25331594  0.63249964  0.56347132  1
  La3+  La13  1  0.85732773  -0.00257572  0.93226717  1
  La3+  La14  1  0.23637803  0.63384754  0.08083732  1
  La3+  La15  1  -0.01155801  0.62164836  0.07244054  1
  La3+  La16  1  0.11228938  0.24827516  0.93115232  1
  La3+  La17  1  0.48037939  0.87482759  0.05556616  1
  Ce3+  Ce18  1  0.74043465  0.63381304  0.07717177  1
  Ce3+  Ce19  1  0.87286019  0.51144213  0.44826888  1
  Ce3+  Ce20  1  0.60994173  0.49796159  0.94704720  1
  Ce3+  Ce21  1  0.23454960  0.12287161  0.06494027  1
  Ce3+  Ce22  1  -0.01279403  0.37259684  0.05536451  1
  Ce3+  Ce23  1  0.24859897  0.39203359  0.55401741  1
  Ce3+  Ce24  1  0.23249190  0.37471793  0.06669223  1
  Ce3+  Ce25  1  0.35676346  0.24912285  0.94363750  1
  Ce3+  Ce26  1  0.12277715  0.26000994  0.43317814  1
  Ce3+  Ce27  1  0.61934640  0.01414948  0.43670761  1
  Ce3+  Ce28  1  0.23233372  0.87406637  0.04917456  1
  Ce3+  Ce29  1  0.00188920  0.63986702  0.56205850  1
  Ce3+  Ce30  1  0.62562113  0.26314764  0.44358400  1
  Ce3+  Ce31  1  0.73648507  0.88217050  0.06599828  1
  Ce3+  Ce32  1  0.60613180  -0.00169713  0.94431228  1
  Ce3+  Ce33  1  0.73430737  0.37182766  0.05862130  1
  Ce3+  Ce34  1  0.35641071  0.49507571  0.94858788  1
  Ce3+  Ce35  1  0.87057178  0.25713777  0.43094235  1
  Ce3+  Ce36  1  0.37511544  0.26280362  0.44155601  1
  Ce3+  Ce37  1  -0.01570810  0.12228427  0.06268831  1
  Pr3+  Pr38  1  0.73091401  0.13716600  0.09957597  1
  Pr3+  Pr39  1  0.49672487  0.88894479  0.55576143  1
  Pr3+  Pr40  1  0.88124873  0.75340802  0.43522904  1
  Pr3+  Pr41  1  -0.00023239  0.38893188  0.55966055  1
  Pr3+  Pr42  1  0.48430097  0.62502955  0.06626674  1
  Pr3+  Pr43  1  0.85860380  0.24708908  0.94198672  1
  Pr3+  Pr44  1  0.24676330  0.13655409  0.56363024  1
  Pr3+  Pr45  1  0.49765393  0.39309861  0.55523858  1
  Pr3+  Pr46  1  0.74924214  0.14018064  0.55859954  1
  Pr3+  Pr47  1  0.12373641  0.51334585  0.42944722  1
  Pr3+  Pr48  1  0.10217348  -0.00659541  0.92708039  1
  Pr3+  Pr49  1  0.12255391  0.01704826  0.42708538  1
  Nd3+  Nd50  1  0.60780327  0.74585765  0.94398861  1
  Nd3+  Nd51  1  0.37246559  0.76186559  0.43358040  1
  Nd3+  Nd52  1  0.49793089  0.14337118  0.56547547  1
  Nd3+  Nd53  1  0.48833737  0.37516910  0.05730806  1
  Nd3+  Nd54  1  0.49891846  0.64057494  0.55265486  1
  Nd3+  Nd55  1  0.37532175  0.01405831  0.43706300  1
  Nd3+  Nd56  1  0.12449980  0.76816277  0.44598595  1
  Nd3+  Nd57  1  0.11134201  0.73629885  0.93146567  1
  Sm3+  Sm58  1  0.62779793  0.51201868  0.45008964  1
  Sm3+  Sm59  1  0.00646600  0.89228312  0.55997311  1
  Sm3+  Sm60  1  -0.01288133  0.87503576  0.05250618  1
  Sm3+  Sm61  1  0.11072814  0.49980209  0.94247699  1
  Sm3+  Sm62  1  0.85635185  0.49698147  0.94520360  1
  Sm3+  Sm63  1  0.35893290  0.73422024  0.92880503  1
  Bi2+  Bi64  1  0.08426874  0.06769301  0.26920902  1
  Bi2+  Bi65  1  -0.02664576  0.09045807  0.77229303  1
  Bi2+  Bi66  1  0.02270603  0.33619727  0.31398356  1
  Bi2+  Bi67  1  0.07926680  0.36638105  0.79944720  1
  Bi2+  Bi68  1  0.04836530  0.53259913  0.30129906  1
  Bi2+  Bi69  1  -0.00587724  0.69137375  0.80042541  1
  Bi2+  Bi70  1  0.01079217  0.83207891  0.28042959  1
  Bi2+  Bi71  1  0.03282477  0.83920669  0.72883502  1
  Bi2+  Bi72  1  0.27049370  0.05043558  0.31358187  1
  Bi2+  Bi73  1  0.24267831  0.18157149  0.79911521  1
  Bi2+  Bi74  1  0.18687797  0.31084500  0.25307725  1
  Bi2+  Bi75  1  0.25198171  0.37088291  0.84937938  1
  Bi2+  Bi76  1  0.20253587  0.66083173  0.30689914  1
  Bi2+  Bi77  1  0.24292113  0.64327421  0.80389160  1
  Bi2+  Bi78  1  0.26713315  0.85253901  0.29698599  1
  Bi2+  Bi79  1  0.24768867  0.88286063  0.81095802  1
  Bi2+  Bi80  1  0.50630074  0.14670886  0.29861838  1
  Bi2+  Bi81  1  0.51789280  0.18400745  0.79132802  1
  Bi2+  Bi82  1  0.60357702  0.40107834  0.30684372  1
  Bi2+  Bi83  1  0.42917570  0.38850057  0.79122099  1
  Bi2+  Bi84  1  0.51255725  0.62782822  0.29800000  1
  Bi2+  Bi85  1  0.49543073  0.57958270  0.79415964  1
  Bi2+  Bi86  1  0.46176078  0.89005466  0.28490352  1
  Bi2+  Bi87  1  0.63291098  0.85308918  0.77406539  1
  Bi2+  Bi88  1  0.74992597  0.13518927  0.28460157  1
  Bi2+  Bi89  1  0.73690556  0.13024005  0.79991284  1
  Bi2+  Bi90  1  0.82402792  0.36786975  0.29931634  1
  Bi2+  Bi91  1  0.80386664  0.36942540  0.78299778  1
  Bi2+  Bi92  1  0.77523786  0.64074256  0.30152530  1
  Bi2+  Bi93  1  0.73459106  0.61835015  0.81633581  1
  Bi2+  Bi94  1  0.71369127  0.87754320  0.28384201  1
  Bi2+  Bi95  1  0.80378584  0.93635300  0.80587783  1
  Bi2+  Bi96  1  0.15525228  0.00372261  0.17118979  1
  Bi2+  Bi97  1  0.13544640  0.07318318  0.70888136  1
  Bi2+  Bi98  1  0.09473744  0.18948157  0.17743235  1
  Bi2+  Bi99  1  0.18816021  0.25633540  0.68013941  1
  Bi2+  Bi100  1  0.13217100  0.49360563  0.20107228  1
  Bi2+  Bi101  1  0.12293274  0.43919090  0.67367407  1
  Bi2+  Bi102  1  0.14903849  0.78158476  0.20950369  1
  Bi2+  Bi103  1  0.12406108  0.65122568  0.71103794  1
  Bi2+  Bi104  1  0.34484938  -0.00837915  0.20740372  1
  Bi2+  Bi105  1  0.39679002  0.00327615  0.72169402  1
  Bi2+  Bi106  1  0.34526008  0.19540411  0.24233535  1
  Bi2+  Bi107  1  0.37155516  0.24654216  0.71350417  1
  Bi2+  Bi108  1  0.38573155  0.46312755  0.21659031  1
  Bi2+  Bi109  1  0.28320644  0.48981387  0.73745399  1
  Bi2+  Bi110  1  0.40331057  0.73598679  0.19360968  1
  Bi2+  Bi111  1  0.38920432  0.74965478  0.71067548  1
  Bi2+  Bi112  1  0.57234162  -0.00674480  0.21207312  1
  Bi2+  Bi113  1  0.69285992  0.00522706  0.71333331  1
  Bi2+  Bi114  1  0.60699421  0.28391179  0.21027521  1
  Bi2+  Bi115  1  0.61779525  0.24115387  0.69535811  1
  Bi2+  Bi116  1  0.69797426  0.47597702  0.21937194  1
  Bi2+  Bi117  1  0.53257245  0.47707449  0.70163175  1
  Bi2+  Bi118  1  0.66629956  0.67728296  0.21191401  1
  Bi2+  Bi119  1  0.62988858  0.68415704  0.70928111  1
  Bi2+  Bi120  1  0.88856779  -0.03493049  0.18217257  1
  Bi2+  Bi121  1  0.87318780  -0.06543401  0.69511406  1
  Bi2+  Bi122  1  0.92236889  0.24767670  0.22738676  1
  Bi2+  Bi123  1  0.90647259  0.24885832  0.71468012  1
  Bi2+  Bi124  1  0.89599049  0.49455165  0.22188837  1
  Bi2+  Bi125  1  0.95714381  0.46486634  0.73728316  1
  Bi2+  Bi126  1  0.87699306  0.73206944  0.22047441  1
  Bi2+  Bi127  1  0.83564481  0.73047744  0.70308848  1
  S2-  S128  1  -0.10798416  0.13014493  0.14813394  1
  S2-  S129  1  0.01250510  0.16075270  0.65319643  1
  S2-  S130  1  0.00198273  0.41679990  0.14970996  1
  S2-  S131  1  -0.08886315  0.38457164  0.64737291  1
  S2-  S132  1  0.10336152  0.63353605  0.15078845  1
  S2-  S133  1  -0.02308335  0.65652836  0.65787919  1
  S2-  S134  1  0.02287728  0.86962662  0.14953934  1
  S2-  S135  1  0.09145701  0.90819811  0.64691282  1
  S2-  S136  1  0.34806849  0.13012781  0.14259837  1
  S2-  S137  1  0.27067688  0.04838378  0.64978990  1
  S2-  S138  1  0.26006124  0.37834415  0.16409078  1
  S2-  S139  1  0.27949765  0.49262012  0.63185616  1
  S2-  S140  1  0.31814079  0.58867905  0.17307719  1
  S2-  S141  1  0.26110248  0.71874272  0.65208751  1
  S2-  S142  1  0.26791670  0.79570586  0.13489099  1
  S2-  S143  1  0.27807068  0.87846297  0.71765613  1
  S2-  S144  1  0.57974138  0.14098453  0.15506434  1
  S2-  S145  1  0.50660390  0.10616001  0.66244444  1
  S2-  S146  1  0.48696613  0.38014425  0.15759201  1
  S2-  S147  1  0.47915878  0.33706056  0.65002388  1
  S2-  S148  1  0.51269595  0.62475191  0.16662286  1
  S2-  S149  1  0.48151100  0.63207996  0.65206028  1
  S2-  S150  1  0.50681331  0.86819554  0.15623284  1
  S2-  S151  1  0.43938281  0.87633968  0.65033174  1
  S2-  S152  1  0.72878457  -0.01648102  0.14915086  1
  S2-  S153  1  0.76365733  0.21570382  0.64953054  1
  S2-  S154  1  0.73672281  0.29877087  0.14691935  1
  S2-  S155  1  0.68327915  0.39272823  0.69546448  1
  S2-  S156  1  0.87154249  0.61175574  0.14781777  1
  S2-  S157  1  0.75721245  0.58582042  0.67125737  1
  S2-  S158  1  0.74260217  0.77080948  0.14283080  1
  S2-  S159  1  0.70823790  0.78927174  0.64155205  1
  S2-  S160  1  0.02416626  -0.03295791  0.34573718  1
  S2-  S161  1  0.20615927  0.03204876  0.85057977  1
  S2-  S162  1  0.14435747  0.15724052  0.35524511  1
  S2-  S163  1  0.06971399  0.20738717  0.83418368  1
  S2-  S164  1  0.22647998  0.50977069  0.34605349  1
  S2-  S165  1  0.10219557  0.59770290  0.86221595  1
  S2-  S166  1  0.05877836  0.73713145  0.35389149  1
  S2-  S167  1  0.09036664  0.81687849  0.84253353  1
  S2-  S168  1  0.48867070  0.01491078  0.35927868  1
  S2-  S169  1  0.40211681  -0.03506971  0.81419116  1
  S2-  S170  1  0.38689264  0.23964796  0.34517150  1
  S2-  S171  1  0.38025357  0.16571552  0.85912330  1
  S2-  S172  1  0.44545001  0.46538427  0.31742806  1
  S2-  S173  1  0.36753711  0.58132348  0.86566318  1
  S2-  S174  1  0.38069878  0.66710997  0.34757908  1
  S2-  S175  1  0.36308671  0.76497455  0.82956364  1
  S2-  S176  1  0.69761544  0.00930681  0.34855611  1
  S2-  S177  1  0.60159445  0.07864120  0.85849980  1
  S2-  S178  1  0.64216953  0.23725227  0.34620361  1
  S2-  S179  1  0.63168420  0.28649097  0.82914990  1
  S2-  S180  1  0.63974817  0.57323118  0.35866801  1
  S2-  S181  1  0.62314359  0.51064684  0.84844523  1
  S2-  S182  1  0.58381436  0.78401493  0.32990460  1
  S2-  S183  1  0.60749092  0.73407442  0.84424072  1
  S2-  S184  1  0.84280459  -0.00770200  0.27092930  1
  S2-  S185  1  0.96758041  0.00088060  0.85285637  1
  S2-  S186  1  0.87113570  0.15928140  0.34802060  1
  S2-  S187  1  0.84925391  0.24015092  0.84075459  1
  S2-  S188  1  0.88680496  0.60315888  0.36699291  1
  S2-  S189  1  0.85016194  0.50313570  0.84640934  1
  S2-  S190  1  0.81998921  0.82566565  0.35079701  1
  S2-  S191  1  0.84607814  0.75198506  0.83958368  1
  S2-  S192  1  -0.00339704  0.13795687  0.44777850  1
  S2-  S193  1  -0.01463816  0.12574773  0.95502962  1
  S2-  S194  1  -0.00235200  0.38661154  0.45040624  1
  S2-  S195  1  -0.01500939  0.37646397  0.94780843  1
  S2-  S196  1  0.00627717  0.63529499  0.46061024  1
  S2-  S197  1  -0.01896013  0.61674722  0.96051669  1
  S2-  S198  1  -0.00553664  0.88824355  0.45621030  1
  S2-  S199  1  -0.01703238  0.86518158  0.94998036  1
  S2-  S200  1  0.25385163  0.13814387  0.45704384  1
  S2-  S201  1  0.23300183  0.12584191  0.95834090  1
  S2-  S202  1  0.24884831  0.38496174  0.44662956  1
  S2-  S203  1  0.23099831  0.37483257  0.96230715  1
  S2-  S204  1  0.24600827  0.64028745  0.45314684  1
  S2-  S205  1  0.23536405  0.61995217  0.96382167  1
  S2-  S206  1  0.25088116  0.88917224  0.43945454  1
  S2-  S207  1  0.23778752  0.86703768  0.94428070  1
  S2-  S208  1  0.49950483  0.14203742  0.45901888  1
  S2-  S209  1  0.48059660  0.12010147  0.96159634  1
  S2-  S210  1  0.50106303  0.39074211  0.44757483  1
  S2-  S211  1  0.48526938  0.37183707  0.94996208  1
  S2-  S212  1  0.50242703  0.63683598  0.44880642  1
  S2-  S213  1  0.48695973  0.62130307  0.95980469  1
  S2-  S214  1  0.49964794  0.88148505  0.44999152  1
  S2-  S215  1  0.48002441  0.87041946  0.94545110  1
  S2-  S216  1  0.74729874  0.13540696  0.45397771  1
  S2-  S217  1  0.73594313  0.12146567  0.95156538  1
  S2-  S218  1  0.74835483  0.38902623  0.44529917  1
  S2-  S219  1  0.73348108  0.37147694  0.95097355  1
  S2-  S220  1  0.75105887  0.63722491  0.46472264  1
  S2-  S221  1  0.73324466  0.62092926  0.96289588  1
  S2-  S222  1  0.75002545  0.89137588  0.45621141  1
  S2-  S223  1  0.73083819  0.87207270  0.95325837  1
  S2-  S224  1  0.10866326  -0.00096728  0.03734892  1
  S2-  S225  1  0.12428402  0.01508121  0.53737065  1
  S2-  S226  1  0.11029643  0.24898483  0.04402086  1
  S2-  S227  1  0.12552854  0.26592408  0.54061340  1
  S2-  S228  1  0.11334534  0.49816648  0.04625677  1
  S2-  S229  1  0.12148742  0.51321959  0.53837597  1
  S2-  S230  1  0.10780941  0.74988201  0.03954764  1
  S2-  S231  1  0.12759567  0.76604671  0.55052864  1
  S2-  S232  1  0.35459480  -0.00314824  0.04196203  1
  S2-  S233  1  0.37652052  0.01571341  0.54237914  1
  S2-  S234  1  0.35845463  0.25610106  0.04817122  1
  S2-  S235  1  0.37100475  0.26435230  0.54762483  1
  S2-  S236  1  0.36031631  0.49823415  0.05380104  1
  S2-  S237  1  0.37905116  0.51477651  0.52803336  1
  S2-  S238  1  0.36294010  0.74547237  0.03564876  1
  S2-  S239  1  0.37285117  0.76399209  0.53969173  1
  S2-  S240  1  0.60785038  0.00271546  0.04738932  1
  S2-  S241  1  0.62143363  0.01627551  0.54892023  1
  S2-  S242  1  0.61012324  0.24908128  0.04140294  1
  S2-  S243  1  0.62619304  0.26974274  0.54970564  1
  S2-  S244  1  0.61414481  0.50222201  0.05501869  1
  S2-  S245  1  0.62860186  0.51217730  0.55527911  1
  S2-  S246  1  0.60832118  0.75127013  0.04852798  1
  S2-  S247  1  0.62052619  0.76368091  0.53651931  1
  S2-  S248  1  0.86454630  -0.00256270  0.04120284  1
  S2-  S249  1  0.87670174  0.01360782  0.55996708  1
  S2-  S250  1  0.86099755  0.24930031  0.04651682  1
  S2-  S251  1  0.87117100  0.26721457  0.53947666  1
  S2-  S252  1  0.85809152  0.49418288  0.04804132  1
  S2-  S253  1  0.87130673  0.51425880  0.55273635  1
  S2-  S254  1  0.86597032  0.75307264  0.04597436  1
  S2-  S255  1  0.88076611  0.76788116  0.54755434  1
