# generated using pymatgen
data_La9Ce10Pr6Nd4Sm3(BiS2)32
_symmetry_space_group_name_H-M   'P 1'
_cell_length_a   16.16865833
_cell_length_b   16.14224137
_cell_length_c   27.00441622
_cell_angle_alpha   89.78590064
_cell_angle_beta   89.99572410
_cell_angle_gamma   89.84437777
_symmetry_Int_Tables_number   1
_chemical_formula_structural   La9Ce10Pr6Nd4Sm3(BiS2)32
_chemical_formula_sum   'La18 Ce20 Pr12 Nd8 Sm6 Bi64 S128'
_cell_volume   7048.03381309
_cell_formula_units_Z   2
loop_
 _symmetry_equiv_pos_site_id
 _symmetry_equiv_pos_as_xyz
  1  'x, y, z'
loop_
 _atom_type_symbol
 _atom_type_oxidation_number
  La3+  3.0
  Ce3+  3.0
  Pr3+  3.0
  Nd3+  3.0
  Sm3+  3.0
  Bi2+  2.0
  S2-  -2.0
loop_
 _atom_site_type_symbol
 _atom_site_label
 _atom_site_symmetry_multiplicity
 _atom_site_fract_x
 _atom_site_fract_y
 _atom_site_fract_z
 _atom_site_occupancy
  La3+  La0  1  0.23170364  0.62650963  0.57075290  1
  La3+  La1  1  0.75403073  0.37271656  0.07123348  1
  La3+  La2  1  0.85359721  0.74783652  0.41016542  1
  La3+  La3  1  -0.00284651  0.38067335  0.57116421  1
  La3+  La4  1  0.37721172  -0.01143529  0.91658806  1
  La3+  La5  1  0.38685335  0.24649535  0.92379956  1
  La3+  La6  1  0.38120814  0.49978864  0.93167558  1
  La3+  La7  1  0.10628877  0.01191119  0.42351826  1
  La3+  La8  1  0.13154513  0.75091808  0.95293097  1
  La3+  La9  1  0.36753796  -0.01114819  0.39870028  1
  La3+  La10  1  0.60961686  0.75832003  0.44209404  1
  La3+  La11  1  0.22873665  0.88373008  0.57115478  1
  La3+  La12  1  0.76084477  0.86602482  0.07557325  1
  La3+  La13  1  0.37368210  0.25696815  0.41819421  1
  La3+  La14  1  0.24141381  0.12794417  0.54895762  1
  La3+  La15  1  0.26124027  0.62328580  0.07402163  1
  La3+  La16  1  0.12367066  0.24759898  0.88949124  1
  La3+  La17  1  0.63530977  0.75222081  0.93803119  1
  Ce3+  Ce18  1  0.64029101  -0.00446256  0.93288297  1
  Ce3+  Ce19  1  0.63468065  0.25120682  0.92715971  1
  Ce3+  Ce20  1  0.73841038  0.13259581  0.56082407  1
  Ce3+  Ce21  1  0.50674433  0.62097456  0.06198137  1
  Ce3+  Ce22  1  0.74252605  0.87708641  0.56073085  1
  Ce3+  Ce23  1  0.25924447  0.36978891  0.05087674  1
  Ce3+  Ce24  1  0.73868519  0.38085430  0.56228056  1
  Ce3+  Ce25  1  0.11567015  0.50541236  0.42750515  1
  Ce3+  Ce26  1  0.86625826  0.26057045  0.44407938  1
  Ce3+  Ce27  1  0.88541340  0.49658635  0.95041695  1
  Ce3+  Ce28  1  0.88677126  0.74539711  0.94753440  1
  Ce3+  Ce29  1  0.61223093  0.00574901  0.44584646  1
  Ce3+  Ce30  1  0.50832038  0.12157151  0.04567752  1
  Ce3+  Ce31  1  0.37943266  0.75081388  0.94271537  1
  Ce3+  Ce32  1  0.63139614  0.50541471  0.92706089  1
  Ce3+  Ce33  1  0.25914996  0.12284792  0.04872180  1
  Ce3+  Ce34  1  0.74191328  0.62730533  0.56476986  1
  Ce3+  Ce35  1  0.75769763  0.12644409  0.05876153  1
  Ce3+  Ce36  1  0.86883053  0.50530198  0.44172788  1
  Ce3+  Ce37  1  0.88315381  0.25213928  0.93870070  1
  Pr3+  Pr38  1  0.35935406  0.50858703  0.43031442  1
  Pr3+  Pr39  1  0.01065638  0.12809248  0.06293659  1
  Pr3+  Pr40  1  0.88922072  -0.00304089  0.93918601  1
  Pr3+  Pr41  1  0.48458805  0.38211309  0.56656978  1
  Pr3+  Pr42  1  0.86232535  0.00970888  0.43968236  1
  Pr3+  Pr43  1  0.13077611  -0.00315493  0.93803518  1
  Pr3+  Pr44  1  0.36205225  0.75814363  0.45021180  1
  Pr3+  Pr45  1  0.11864825  0.76082560  0.42902111  1
  Pr3+  Pr46  1  0.48766725  0.88008613  0.57352304  1
  Pr3+  Pr47  1  0.48797116  0.13106737  0.55960929  1
  Pr3+  Pr48  1  0.61360305  0.26074984  0.43066123  1
  Pr3+  Pr49  1  0.00613729  0.87719497  0.10112208  1
  Nd3+  Nd50  1  0.50686660  0.37102009  0.05496651  1
  Nd3+  Nd51  1  -0.01034005  0.13587542  0.56893027  1
  Nd3+  Nd52  1  0.50976885  0.87688561  0.06070709  1
  Nd3+  Nd53  1  0.01774559  0.61920815  0.07390244  1
  Nd3+  Nd54  1  0.26619785  0.87858597  0.07812582  1
  Nd3+  Nd55  1  0.61466926  0.50536557  0.43807715  1
  Nd3+  Nd56  1  0.11712574  0.25425813  0.42937652  1
  Nd3+  Nd57  1  0.13606164  0.49853609  0.92728791  1
  Sm3+  Sm58  1  0.75752576  0.61663617  0.06700618  1
  Sm3+  Sm59  1  0.48712547  0.62970977  0.56078966  1
  Sm3+  Sm60  1  0.01436159  0.36943770  0.05874636  1
  Sm3+  Sm61  1  0.24163023  0.37731015  0.55392398  1
  Sm3+  Sm62  1  -0.01139517  0.88096254  0.55218375  1
  Sm3+  Sm63  1  -0.00800240  0.63193002  0.55149369  1
  Bi2+  Bi64  1  -0.02897802  0.12112003  0.27877683  1
  Bi2+  Bi65  1  -0.09438064  0.09495696  0.79796713  1
  Bi2+  Bi66  1  0.07696935  0.37082376  0.31811043  1
  Bi2+  Bi67  1  -0.11711709  0.38697606  0.80347878  1
  Bi2+  Bi68  1  -0.00550849  0.54841690  0.29768333  1
  Bi2+  Bi69  1  0.02838798  0.61438070  0.79476536  1
  Bi2+  Bi70  1  0.04080979  0.88010096  0.30572748  1
  Bi2+  Bi71  1  0.00098437  0.85816894  0.79799758  1
  Bi2+  Bi72  1  0.21558693  0.11879386  0.27681883  1
  Bi2+  Bi73  1  0.27672516  0.12230467  0.78383034  1
  Bi2+  Bi74  1  0.26934487  0.39101018  0.28652322  1
  Bi2+  Bi75  1  0.23280434  0.40671690  0.78422811  1
  Bi2+  Bi76  1  0.31885625  0.60822851  0.28069507  1
  Bi2+  Bi77  1  0.21827956  0.64855901  0.78237657  1
  Bi2+  Bi78  1  0.28433149  0.86985625  0.27365203  1
  Bi2+  Bi79  1  0.26186917  0.86091923  0.78990726  1
  Bi2+  Bi80  1  0.57743314  0.12735544  0.24116531  1
  Bi2+  Bi81  1  0.53667183  0.15089329  0.76942104  1
  Bi2+  Bi82  1  0.52937353  0.35441094  0.29224562  1
  Bi2+  Bi83  1  0.45128246  0.37706584  0.78048395  1
  Bi2+  Bi84  1  0.50844862  0.59710897  0.31636001  1
  Bi2+  Bi85  1  0.51076570  0.62880201  0.79278912  1
  Bi2+  Bi86  1  0.53782670  0.81244050  0.31406277  1
  Bi2+  Bi87  1  0.51642688  0.89071647  0.78540535  1
  Bi2+  Bi88  1  0.71578583  0.18199842  0.31486782  1
  Bi2+  Bi89  1  0.71428929  0.12928511  0.82279991  1
  Bi2+  Bi90  1  0.87985875  0.38402626  0.31855502  1
  Bi2+  Bi91  1  0.69329691  0.37856817  0.81836947  1
  Bi2+  Bi92  1  0.70691496  0.60271025  0.29649950  1
  Bi2+  Bi93  1  0.75587499  0.56984643  0.79089397  1
  Bi2+  Bi94  1  0.70443420  0.98865448  0.31233129  1
  Bi2+  Bi95  1  0.78263544  0.93908150  0.82311709  1
  Bi2+  Bi96  1  0.15769106  0.00561730  0.19256330  1
  Bi2+  Bi97  1  0.14479109  0.00202279  0.69777792  1
  Bi2+  Bi98  1  0.11671998  0.28590980  0.21604068  1
  Bi2+  Bi99  1  0.09765096  0.23982452  0.69587121  1
  Bi2+  Bi100  1  0.04845434  0.46593482  0.19374003  1
  Bi2+  Bi101  1  0.10357753  0.49518196  0.71152355  1
  Bi2+  Bi102  1  0.12532848  0.71182704  0.21818331  1
  Bi2+  Bi103  1  0.06666794  0.74862260  0.70963883  1
  Bi2+  Bi104  1  0.41152494  0.02334644  0.19704454  1
  Bi2+  Bi105  1  0.40107018  -0.02177077  0.71104692  1
  Bi2+  Bi106  1  0.38167916  0.25849379  0.18488780  1
  Bi2+  Bi107  1  0.36301191  0.24234715  0.69298736  1
  Bi2+  Bi108  1  0.39853412  0.48621603  0.20303244  1
  Bi2+  Bi109  1  0.37044437  0.51345697  0.70978191  1
  Bi2+  Bi110  1  0.44364737  0.73001372  0.22342792  1
  Bi2+  Bi111  1  0.43440823  0.72541971  0.71005287  1
  Bi2+  Bi112  1  0.65394918  -0.03350557  0.19157052  1
  Bi2+  Bi113  1  0.69058942  0.01626716  0.72270158  1
  Bi2+  Bi114  1  0.68372240  0.29860321  0.22413618  1
  Bi2+  Bi115  1  0.55465314  0.30997359  0.68615687  1
  Bi2+  Bi116  1  0.59600986  0.56450407  0.20925444  1
  Bi2+  Bi117  1  0.61834160  0.48974468  0.72112153  1
  Bi2+  Bi118  1  0.63369934  0.77517107  0.21278867  1
  Bi2+  Bi119  1  0.73742776  0.75748833  0.73686915  1
  Bi2+  Bi120  1  0.82830130  0.03077984  0.22554118  1
  Bi2+  Bi121  1  0.88543526  -0.04657109  0.71955648  1
  Bi2+  Bi122  1  0.88234313  0.29548067  0.21072210  1
  Bi2+  Bi123  1  0.73992616  0.26794454  0.72620310  1
  Bi2+  Bi124  1  0.85718691  0.49519364  0.21533638  1
  Bi2+  Bi125  1  0.91510170  0.44914263  0.69591161  1
  Bi2+  Bi126  1  0.86559719  0.75280320  0.21989628  1
  Bi2+  Bi127  1  0.89093260  0.65508387  0.70307833  1
  S2-  S128  1  0.01713545  0.04262368  0.15232472  1
  S2-  S129  1  0.02085391  0.08730297  0.66539082  1
  S2-  S130  1  0.00723739  0.26097587  0.13958657  1
  S2-  S131  1  -0.03992102  0.27651820  0.65442702  1
  S2-  S132  1  -0.01845399  0.70758777  0.15889800  1
  S2-  S133  1  0.08671891  0.62363832  0.63460854  1
  S2-  S134  1  0.05890258  0.87227907  0.20415039  1
  S2-  S135  1  0.07974797  0.88016717  0.63704912  1
  S2-  S136  1  0.27823759  0.11998009  0.14978440  1
  S2-  S137  1  0.22991219  0.13984387  0.65230957  1
  S2-  S138  1  0.27617806  0.36765691  0.15128601  1
  S2-  S139  1  0.14070231  0.37887823  0.63713146  1
  S2-  S140  1  0.15155790  0.58458250  0.15058908  1
  S2-  S141  1  0.29508042  0.64577943  0.66809182  1
  S2-  S142  1  0.23831577  0.79978898  0.17504954  1
  S2-  S143  1  0.28144736  0.89138761  0.67258514  1
  S2-  S144  1  0.50653146  0.14775810  0.14401448  1
  S2-  S145  1  0.47887757  0.11348920  0.66180484  1
  S2-  S146  1  0.50273427  0.36573895  0.15764664  1
  S2-  S147  1  0.35140746  0.37845252  0.63634092  1
  S2-  S148  1  0.39842019  0.62445945  0.14238445  1
  S2-  S149  1  0.50725055  0.58249514  0.65537417  1
  S2-  S150  1  0.40951121  0.89371265  0.14220555  1
  S2-  S151  1  0.52203346  0.85585558  0.67352969  1
  S2-  S152  1  0.75522791  0.23136884  0.13976854  1
  S2-  S153  1  0.75267554  0.13930558  0.65960467  1
  S2-  S154  1  0.72663591  0.49838111  0.14448302  1
  S2-  S155  1  0.75599172  0.42193159  0.65834222  1
  S2-  S156  1  0.75273767  0.72268972  0.14589889  1
  S2-  S157  1  0.71976490  0.65708575  0.66159669  1
  S2-  S158  1  0.85972261  0.89546518  0.15960977  1
  S2-  S159  1  0.75346861  0.88358218  0.65989867  1
  S2-  S160  1  0.19780661  -0.05118856  0.34302184  1
  S2-  S161  1  0.23330079  -0.01231647  0.84961456  1
  S2-  S162  1  0.09683838  0.15112917  0.34786699  1
  S2-  S163  1  0.12280162  0.16493416  0.79178788  1
  S2-  S164  1  0.23122039  0.53200264  0.35402242  1
  S2-  S165  1  0.10346621  0.40410786  0.84206139  1
  S2-  S166  1  0.12126099  0.73447901  0.32705600  1
  S2-  S167  1  0.15771538  0.77284154  0.85176632  1
  S2-  S168  1  0.36389725  0.02401048  0.29435172  1
  S2-  S169  1  0.44577250  0.04265544  0.82308642  1
  S2-  S170  1  0.28855184  0.23642415  0.32536521  1
  S2-  S171  1  0.28606793  0.25639962  0.83938144  1
  S2-  S172  1  0.39960778  0.40218348  0.35227890  1
  S2-  S173  1  0.26649244  0.53636731  0.85311623  1
  S2-  S174  1  0.36949594  0.82098706  0.35473062  1
  S2-  S175  1  0.38885030  0.82727352  0.85229095  1
  S2-  S176  1  0.54184642  -0.02457873  0.35786772  1
  S2-  S177  1  0.62564344  -0.12586411  0.85814762  1
  S2-  S178  1  0.51009947  0.21977959  0.34904224  1
  S2-  S179  1  0.51648412  0.25920829  0.84932086  1
  S2-  S180  1  0.63904736  0.39646966  0.35899124  1
  S2-  S181  1  0.49784991  0.49679368  0.85306675  1
  S2-  S182  1  0.69324340  0.74698069  0.35248981  1
  S2-  S183  1  0.64782423  0.64342430  0.85819838  1
  S2-  S184  1  0.95868999  0.00655107  0.35440388  1
  S2-  S185  1  1.00815050  -0.00610161  0.86047307  1
  S2-  S186  1  0.87640848  0.20990025  0.34962896  1
  S2-  S187  1  0.95217359  0.24464803  0.84803387  1
  S2-  S188  1  0.85243273  0.59155277  0.35490772  1
  S2-  S189  1  0.89956501  0.54599634  0.85568250  1
  S2-  S190  1  0.89778137  0.80871700  0.31760599  1
  S2-  S191  1  0.87458190  0.79052356  0.85153544  1
  S2-  S192  1  -0.01418078  0.13603981  0.45988096  1
  S2-  S193  1  0.01237886  0.13101507  0.95432807  1
  S2-  S194  1  -0.00695100  0.38057219  0.45444151  1
  S2-  S195  1  0.01026458  0.37291135  0.95437617  1
  S2-  S196  1  -0.00790958  0.63539774  0.44704913  1
  S2-  S197  1  0.01198715  0.61992743  0.96146939  1
  S2-  S198  1  -0.01824029  0.87282682  0.44860166  1
  S2-  S199  1  0.00647537  0.87170727  0.96447379  1
  S2-  S200  1  0.24825871  0.12333687  0.44081243  1
  S2-  S201  1  0.25420018  0.12597196  0.94335262  1
  S2-  S202  1  0.23860887  0.37690440  0.44819177  1
  S2-  S203  1  0.25592955  0.37043281  0.94533585  1
  S2-  S204  1  0.23734186  0.63579409  0.45804741  1
  S2-  S205  1  0.25732706  0.62647102  0.96290832  1
  S2-  S206  1  0.24050110  0.88497991  0.45929539  1
  S2-  S207  1  0.25777553  0.87356154  0.96470713  1
  S2-  S208  1  0.48500870  0.12243618  0.45373216  1
  S2-  S209  1  0.51334234  0.11575383  0.94174359  1
  S2-  S210  1  0.49165102  0.38520030  0.46021344  1
  S2-  S211  1  0.51167904  0.37445472  0.95088159  1
  S2-  S212  1  0.48755243  0.62985661  0.45486607  1
  S2-  S213  1  0.50372871  0.62913513  0.95664554  1
  S2-  S214  1  0.48567011  0.88299160  0.46545384  1
  S2-  S215  1  0.50557221  0.87623407  0.95646436  1
  S2-  S216  1  0.73658722  0.13347720  0.45396546  1
  S2-  S217  1  0.76110604  0.12406519  0.95204510  1
  S2-  S218  1  0.74459923  0.38409269  0.45837104  1
  S2-  S219  1  0.75677176  0.37653694  0.95517306  1
  S2-  S220  1  0.73791264  0.62879234  0.45952965  1
  S2-  S221  1  0.76244825  0.62217863  0.96232544  1
  S2-  S222  1  0.74183313  0.88037569  0.45343039  1
  S2-  S223  1  0.76413597  0.87257817  0.96420637  1
  S2-  S224  1  0.13700174  -0.00508263  0.05001973  1
  S2-  S225  1  0.10705314  0.00921314  0.53702786  1
  S2-  S226  1  0.13866633  0.24866926  0.04558971  1
  S2-  S227  1  0.11647824  0.25232527  0.53714739  1
  S2-  S228  1  0.13495080  0.49217203  0.03982058  1
  S2-  S229  1  0.11552908  0.50377983  0.53398199  1
  S2-  S230  1  0.13379300  0.75616155  0.06085618  1
  S2-  S231  1  0.11189217  0.75694712  0.53746781  1
  S2-  S232  1  0.38355216  0.00179856  0.03487897  1
  S2-  S233  1  0.36433927  0.00286448  0.55846524  1
  S2-  S234  1  0.38522230  0.24710955  0.03538312  1
  S2-  S235  1  0.36541690  0.25405426  0.53537621  1
  S2-  S236  1  0.38355524  0.49493157  0.04174977  1
  S2-  S237  1  0.36275327  0.51126964  0.54107753  1
  S2-  S238  1  0.38430126  0.75307091  0.04668092  1
  S2-  S239  1  0.36326667  0.75481144  0.55720765  1
  S2-  S240  1  0.63665654  -0.00186779  0.04487180  1
  S2-  S241  1  0.61608103  0.00373467  0.55540905  1
  S2-  S242  1  0.63115130  0.24861158  0.03655316  1
  S2-  S243  1  0.61374528  0.25722145  0.54489236  1
  S2-  S244  1  0.62741950  0.49848456  0.03845803  1
  S2-  S245  1  0.61285031  0.50635021  0.54764976  1
  S2-  S246  1  0.62809556  0.74620100  0.04825281  1
  S2-  S247  1  0.61257658  0.75265966  0.55234202  1
  S2-  S248  1  0.88157467  0.00309311  0.04864095  1
  S2-  S249  1  0.86633374  0.00660695  0.54949029  1
  S2-  S250  1  0.88240940  0.25235545  0.04225346  1
  S2-  S251  1  0.86198227  0.25741681  0.54912799  1
  S2-  S252  1  0.88984592  0.49468652  0.05704178  1
  S2-  S253  1  0.87027772  0.50667238  0.54925986  1
  S2-  S254  1  0.88790306  0.74151074  0.05146202  1
  S2-  S255  1  0.86883822  0.75418767  0.55324333  1
