# generated using pymatgen
data_La9Ce10Pr6Nd4Sm3(BiS2)32
_symmetry_space_group_name_H-M   'P 1'
_cell_length_a   16.13883527
_cell_length_b   16.19671285
_cell_length_c   27.30344558
_cell_angle_alpha   89.85813168
_cell_angle_beta   90.27848229
_cell_angle_gamma   90.00483370
_symmetry_Int_Tables_number   1
_chemical_formula_structural   La9Ce10Pr6Nd4Sm3(BiS2)32
_chemical_formula_sum   'La18 Ce20 Pr12 Nd8 Sm6 Bi64 S128'
_cell_volume   7136.90746222
_cell_formula_units_Z   2
loop_
 _symmetry_equiv_pos_site_id
 _symmetry_equiv_pos_as_xyz
  1  'x, y, z'
loop_
 _atom_type_symbol
 _atom_type_oxidation_number
  La3+  3.0
  Ce3+  3.0
  Pr3+  3.0
  Nd3+  3.0
  Sm3+  3.0
  Bi2+  2.0
  S2-  -2.0
loop_
 _atom_site_type_symbol
 _atom_site_label
 _atom_site_symmetry_multiplicity
 _atom_site_fract_x
 _atom_site_fract_y
 _atom_site_fract_z
 _atom_site_occupancy
  La3+  La0  1  0.12770954  0.51418805  0.40781907  1
  La3+  La1  1  0.62754385  0.24387492  0.89107790  1
  La3+  La2  1  0.15709070  0.49395029  0.93597145  1
  La3+  La3  1  0.51003462  0.13975707  0.55405996  1
  La3+  La4  1  0.36848310  0.26569345  0.43658238  1
  La3+  La5  1  0.16144323  -0.01401409  0.90530615  1
  La3+  La6  1  0.75187310  0.39840376  0.60067007  1
  La3+  La7  1  0.53551922  0.61286000  0.07341628  1
  La3+  La8  1  0.65340997  0.49997925  0.92363719  1
  La3+  La9  1  0.00684699  0.13335861  0.57980928  1
  La3+  La10  1  0.53103573  0.86152627  0.08393054  1
  La3+  La11  1  0.63104456  0.26546294  0.43046776  1
  La3+  La12  1  -0.03020198  0.35810973  0.11951645  1
  La3+  La13  1  0.63465975  0.01273170  0.40814478  1
  La3+  La14  1  0.90343855  0.23790023  0.92960140  1
  La3+  La15  1  0.87969556  0.26554925  0.44268900  1
  La3+  La16  1  0.52992682  0.12529009  0.09014582  1
  La3+  La17  1  0.03261035  0.61171711  0.07469080  1
  Ce3+  Ce18  1  0.40218390  0.74486067  0.95033776  1
  Ce3+  Ce19  1  0.02648724  0.11910512  0.05598679  1
  Ce3+  Ce20  1  0.50898460  0.39184512  0.54764218  1
  Ce3+  Ce21  1  0.37491425  0.51696113  0.43232953  1
  Ce3+  Ce22  1  0.75290338  0.89472820  0.55822292  1
  Ce3+  Ce23  1  0.37736845  0.76269997  0.43514462  1
  Ce3+  Ce24  1  0.90333072  0.74609446  0.94828209  1
  Ce3+  Ce25  1  0.12879177  0.01546087  0.44288769  1
  Ce3+  Ce26  1  0.50586980  0.88876606  0.54860879  1
  Ce3+  Ce27  1  0.25740105  0.36029485  0.07437136  1
  Ce3+  Ce28  1  0.87845320  0.76315003  0.44260550  1
  Ce3+  Ce29  1  0.87911945  0.01329658  0.43893073  1
  Ce3+  Ce30  1  0.00135269  0.39104541  0.56182540  1
  Ce3+  Ce31  1  0.50948949  0.63513246  0.54997462  1
  Ce3+  Ce32  1  0.75456786  0.13636581  0.56303798  1
  Ce3+  Ce33  1  0.14927390  0.24284125  0.93571599  1
  Ce3+  Ce34  1  0.25610632  0.39063128  0.56286075  1
  Ce3+  Ce35  1  0.75247311  0.63693032  0.55215408  1
  Ce3+  Ce36  1  0.40345767  -0.00374424  0.94793286  1
  Ce3+  Ce37  1  0.25590133  0.88449491  0.55833988  1
  Pr3+  Pr38  1  0.02737214  0.86399068  0.06690253  1
  Pr3+  Pr39  1  0.00740771  0.88458231  0.55443731  1
  Pr3+  Pr40  1  0.27798590  0.86907520  0.06400730  1
  Pr3+  Pr41  1  0.90229172  -0.00812184  0.94242556  1
  Pr3+  Pr42  1  0.52773438  0.36585676  0.06371145  1
  Pr3+  Pr43  1  0.27388512  0.11635747  0.06076178  1
  Pr3+  Pr44  1  0.25611771  0.13731413  0.57097600  1
  Pr3+  Pr45  1  0.25721705  0.63600708  0.55944357  1
  Pr3+  Pr46  1  0.15215542  0.73948566  0.93589527  1
  Pr3+  Pr47  1  0.40476461  0.48870202  0.95169992  1
  Pr3+  Pr48  1  0.77621586  0.11950339  0.06537783  1
  Pr3+  Pr49  1  0.63026117  0.51268121  0.42089235  1
  Nd3+  Nd50  1  0.13506125  0.76323791  0.42581101  1
  Nd3+  Nd51  1  0.87878524  0.51539783  0.44076470  1
  Nd3+  Nd52  1  0.37707009  0.01439129  0.44026075  1
  Nd3+  Nd53  1  0.27603942  0.61615040  0.06794806  1
  Nd3+  Nd54  1  0.64898857  0.74613725  0.93650499  1
  Nd3+  Nd55  1  0.64885427  -0.00083426  0.94825334  1
  Nd3+  Nd56  1  0.77369420  0.86621173  0.06643977  1
  Nd3+  Nd57  1  0.90066738  0.49501502  0.93948132  1
  Sm3+  Sm58  1  0.00681617  0.63869332  0.55601746  1
  Sm3+  Sm59  1  0.12655051  0.26356774  0.45205666  1
  Sm3+  Sm60  1  0.40008331  0.24102731  0.95135227  1
  Sm3+  Sm61  1  0.62759380  0.76532868  0.43816786  1
  Sm3+  Sm62  1  0.77741713  0.61106536  0.05779524  1
  Sm3+  Sm63  1  0.76919751  0.36249230  0.04283198  1
  Bi2+  Bi64  1  -0.01880866  0.05917877  0.27615029  1
  Bi2+  Bi65  1  -0.02132368  0.13087459  0.78175376  1
  Bi2+  Bi66  1  0.00971858  0.29955173  0.30577053  1
  Bi2+  Bi67  1  0.04879539  0.38714271  0.79851151  1
  Bi2+  Bi68  1  -0.04732609  0.61097473  0.29778817  1
  Bi2+  Bi69  1  0.04323938  0.65178339  0.78566133  1
  Bi2+  Bi70  1  0.00051772  0.86081069  0.28011088  1
  Bi2+  Bi71  1  -0.06061621  0.84072942  0.77991605  1
  Bi2+  Bi72  1  0.23936400  0.10448132  0.29896540  1
  Bi2+  Bi73  1  0.24868099  0.11722949  0.79390359  1
  Bi2+  Bi74  1  0.26012609  0.34836400  0.29451705  1
  Bi2+  Bi75  1  0.23448520  0.30501058  0.81754609  1
  Bi2+  Bi76  1  0.24947675  0.64258915  0.29615995  1
  Bi2+  Bi77  1  0.24021137  0.72924936  0.79924138  1
  Bi2+  Bi78  1  0.20036005  0.90453822  0.25883592  1
  Bi2+  Bi79  1  0.37670403  0.90316838  0.72269822  1
  Bi2+  Bi80  1  0.48138223  0.11493529  0.29366208  1
  Bi2+  Bi81  1  0.45114380  0.07961991  0.80874964  1
  Bi2+  Bi82  1  0.49048022  0.37587218  0.28009128  1
  Bi2+  Bi83  1  0.43954508  0.37969975  0.79658862  1
  Bi2+  Bi84  1  0.48291142  0.56924008  0.31638455  1
  Bi2+  Bi85  1  0.50824287  0.68423892  0.78633639  1
  Bi2+  Bi86  1  0.48848483  0.76059566  0.31482216  1
  Bi2+  Bi87  1  0.53934255  0.89569138  0.79618713  1
  Bi2+  Bi88  1  0.74885340  0.12616337  0.28779245  1
  Bi2+  Bi89  1  0.74713569  0.10917681  0.79061682  1
  Bi2+  Bi90  1  0.76102838  0.37353682  0.29486948  1
  Bi2+  Bi91  1  0.74937802  0.38588603  0.79863696  1
  Bi2+  Bi92  1  0.67225804  0.57822551  0.28483823  1
  Bi2+  Bi93  1  0.76532530  0.64599136  0.79412392  1
  Bi2+  Bi94  1  0.78519702  0.85823696  0.28569751  1
  Bi2+  Bi95  1  0.72991818  0.83978062  0.81445818  1
  Bi2+  Bi96  1  0.07010850  -0.01962971  0.18000961  1
  Bi2+  Bi97  1  0.12470695  -0.00406064  0.70575460  1
  Bi2+  Bi98  1  0.12712766  0.15925956  0.21381159  1
  Bi2+  Bi99  1  0.13746107  0.28154863  0.71637187  1
  Bi2+  Bi100  1  0.10792558  0.48636422  0.21618094  1
  Bi2+  Bi101  1  0.15076244  0.48732289  0.71561362  1
  Bi2+  Bi102  1  0.13030729  0.72870362  0.21397748  1
  Bi2+  Bi103  1  0.07985060  0.75715363  0.69063072  1
  Bi2+  Bi104  1  0.32798839  0.00036333  0.19233508  1
  Bi2+  Bi105  1  0.35711236  0.09656541  0.69736082  1
  Bi2+  Bi106  1  0.34930656  0.32248911  0.19891368  1
  Bi2+  Bi107  1  0.33647530  0.28905522  0.70914140  1
  Bi2+  Bi108  1  0.36279668  0.51589920  0.20886553  1
  Bi2+  Bi109  1  0.33738961  0.52232657  0.74840869  1
  Bi2+  Bi110  1  0.39078378  0.70703168  0.22438741  1
  Bi2+  Bi111  1  0.36371821  0.70705029  0.70623244  1
  Bi2+  Bi112  1  0.59762930  -0.01781524  0.20929302  1
  Bi2+  Bi113  1  0.60223870  0.00440162  0.70100097  1
  Bi2+  Bi114  1  0.65070869  0.32482285  0.20665660  1
  Bi2+  Bi115  1  0.60203918  0.27484082  0.69339076  1
  Bi2+  Bi116  1  0.56364246  0.49740100  0.19290451  1
  Bi2+  Bi117  1  0.59888930  0.53604526  0.69891484  1
  Bi2+  Bi118  1  0.65333135  0.72245324  0.21126081  1
  Bi2+  Bi119  1  0.62241433  0.78550315  0.71013899  1
  Bi2+  Bi120  1  0.87387488  -0.07464364  0.18511379  1
  Bi2+  Bi121  1  0.80594364  -0.04836128  0.72605940  1
  Bi2+  Bi122  1  0.84610755  0.12120433  0.19470119  1
  Bi2+  Bi123  1  0.88247083  0.26387245  0.71067440  1
  Bi2+  Bi124  1  0.83338782  0.48889271  0.21183110  1
  Bi2+  Bi125  1  0.95479026  0.51089851  0.72678250  1
  Bi2+  Bi126  1  0.87935537  0.73273515  0.21505426  1
  Bi2+  Bi127  1  0.81646818  0.75537471  0.70309945  1
  S2-  S128  1  -0.00608889  0.18593477  0.14436448  1
  S2-  S129  1  -0.06403721  0.12695995  0.67537376  1
  S2-  S130  1  -0.05873364  0.35049941  0.22652969  1
  S2-  S131  1  -0.08385763  0.39567417  0.64745830  1
  S2-  S132  1  -0.02835175  0.52697339  0.15895241  1
  S2-  S133  1  -0.02174157  0.63908636  0.65334542  1
  S2-  S134  1  0.01493223  0.74897570  0.14543772  1
  S2-  S135  1  0.00910385  0.91296724  0.65363680  1
  S2-  S136  1  0.26285869  0.19575539  0.15084471  1
  S2-  S137  1  0.14421527  0.12533957  0.65034030  1
  S2-  S138  1  0.13985278  0.37907555  0.14878653  1
  S2-  S139  1  0.29252838  0.44051551  0.65457792  1
  S2-  S140  1  0.17472940  0.60431438  0.14936454  1
  S2-  S141  1  0.21195930  0.67535442  0.65427000  1
  S2-  S142  1  0.24374481  0.84396142  0.16211863  1
  S2-  S143  1  0.24463085  0.90618250  0.65545256  1
  S2-  S144  1  0.46713406  0.09674532  0.18935505  1
  S2-  S145  1  0.51830840  0.13440739  0.65473196  1
  S2-  S146  1  0.51861877  0.28074457  0.15196861  1
  S2-  S147  1  0.53433939  0.41178380  0.64289770  1
  S2-  S148  1  0.51308240  0.71850173  0.15331335  1
  S2-  S149  1  0.49427017  0.63516118  0.64672812  1
  S2-  S150  1  0.45572876  0.90773804  0.17463128  1
  S2-  S151  1  0.50569412  0.89157060  0.64638084  1
  S2-  S152  1  0.68135568  0.10544003  0.15288979  1
  S2-  S153  1  0.74606019  0.23399271  0.64528328  1
  S2-  S154  1  0.79291605  0.36782400  0.14159948  1
  S2-  S155  1  0.71406822  0.40808260  0.70607146  1
  S2-  S156  1  0.68751481  0.59996951  0.14110819  1
  S2-  S157  1  0.72852754  0.56630945  0.63820721  1
  S2-  S158  1  0.67547098  0.86092283  0.15007663  1
  S2-  S159  1  0.73720358  1.00662523  0.63343800  1
  S2-  S160  1  0.12600198  0.00360048  0.34576377  1
  S2-  S161  1  0.09883751  0.02660160  0.81022616  1
  S2-  S162  1  0.15974771  0.24846507  0.35574404  1
  S2-  S163  1  0.03327129  0.23216873  0.85589413  1
  S2-  S164  1  0.05268308  0.45454763  0.31879231  1
  S2-  S165  1  0.15677539  0.61300685  0.86079208  1
  S2-  S166  1  0.09946932  0.65792987  0.34719979  1
  S2-  S167  1  0.15302910  0.83520979  0.84950567  1
  S2-  S168  1  0.36532269  0.01609645  0.34068080  1
  S2-  S169  1  0.32766238  -0.00573714  0.85735715  1
  S2-  S170  1  0.39510906  0.25521188  0.33728156  1
  S2-  S171  1  0.45262918  0.22813680  0.85734373  1
  S2-  S172  1  0.27586664  0.48782586  0.35147929  1
  S2-  S173  1  0.35870561  0.48996820  0.85372602  1
  S2-  S174  1  0.27421726  0.77524551  0.35679712  1
  S2-  S175  1  0.39250165  0.74442465  0.85238921  1
  S2-  S176  1  0.57005840  -0.01748632  0.30899957  1
  S2-  S177  1  0.63067095  0.07318403  0.85827439  1
  S2-  S178  1  0.62426031  0.16259266  0.34708761  1
  S2-  S179  1  0.63059495  0.23393339  0.78229497  1
  S2-  S180  1  0.62696843  0.38160196  0.35031120  1
  S2-  S181  1  0.59960641  0.40855465  0.84394049  1
  S2-  S182  1  0.65102767  0.78448402  0.34125356  1
  S2-  S183  1  0.62922677  0.63981404  0.85669248  1
  S2-  S184  1  0.79288830  0.00341584  0.35270006  1
  S2-  S185  1  0.88289174  0.03541903  0.84505948  1
  S2-  S186  1  0.85459149  0.24101057  0.34335791  1
  S2-  S187  1  0.79792497  0.24299374  0.84779036  1
  S2-  S188  1  0.83785091  0.51591820  0.34294684  1
  S2-  S189  1  0.81418403  0.51443129  0.85076935  1
  S2-  S190  1  0.88133434  0.75023281  0.34519303  1
  S2-  S191  1  0.91909182  0.72425387  0.85186585  1
  S2-  S192  1  0.00589218  0.13806512  0.45690723  1
  S2-  S193  1  0.03517638  0.10623869  0.95114748  1
  S2-  S194  1  0.00797560  0.39297580  0.45326849  1
  S2-  S195  1  0.02597681  0.37528329  0.94390139  1
  S2-  S196  1  0.00519047  0.63785655  0.45241716  1
  S2-  S197  1  0.02263014  0.61740650  0.96096719  1
  S2-  S198  1  0.00529583  0.88597275  0.44632552  1
  S2-  S199  1  0.02996639  0.87026094  0.95699086  1
  S2-  S200  1  0.25141919  0.13841679  0.46133138  1
  S2-  S201  1  0.27401265  0.11834856  0.95356390  1
  S2-  S202  1  0.24536954  0.39088933  0.45773631  1
  S2-  S203  1  0.27717931  0.36445383  0.96046942  1
  S2-  S204  1  0.25023802  0.63482442  0.45308576  1
  S2-  S205  1  0.28319457  0.61845990  0.96240008  1
  S2-  S206  1  0.25302333  0.89154961  0.45361541  1
  S2-  S207  1  0.27643039  0.87068026  0.95803158  1
  S2-  S208  1  0.49880838  0.13949306  0.44719434  1
  S2-  S209  1  0.52218968  0.11897403  0.96652444  1
  S2-  S210  1  0.49637282  0.39141544  0.44395564  1
  S2-  S211  1  0.52657667  0.36129094  0.95718947  1
  S2-  S212  1  0.50559965  0.63977100  0.44534731  1
  S2-  S213  1  0.52400501  0.61910576  0.96262973  1
  S2-  S214  1  0.50405716  0.89043731  0.44213227  1
  S2-  S215  1  0.52728388  0.86932987  0.95753556  1
  S2-  S216  1  0.75650483  0.13689507  0.45515449  1
  S2-  S217  1  0.77779056  0.11453294  0.95917349  1
  S2-  S218  1  0.75804966  0.39165595  0.44847295  1
  S2-  S219  1  0.77246583  0.36810459  0.94316500  1
  S2-  S220  1  0.75049327  0.64079272  0.44588855  1
  S2-  S221  1  0.77748815  0.62443892  0.95609991  1
  S2-  S222  1  0.75374606  0.88584109  0.45309258  1
  S2-  S223  1  0.77360611  0.86952985  0.95764032  1
  S2-  S224  1  0.14996097  -0.00864385  0.05390630  1
  S2-  S225  1  0.13180962  0.01070682  0.54695299  1
  S2-  S226  1  0.14799780  0.23823340  0.03974067  1
  S2-  S227  1  0.12864458  0.26541549  0.55522379  1
  S2-  S228  1  0.15787987  0.49564529  0.04157373  1
  S2-  S229  1  0.12735297  0.51479599  0.55550458  1
  S2-  S230  1  0.15506510  0.74361445  0.04460187  1
  S2-  S231  1  0.13099742  0.76068189  0.53823240  1
  S2-  S232  1  0.40522076  -0.00500743  0.05516572  1
  S2-  S233  1  0.37913934  0.01371713  0.54741363  1
  S2-  S234  1  0.39628576  0.24436632  0.05281889  1
  S2-  S235  1  0.37892086  0.26446506  0.54793588  1
  S2-  S236  1  0.39799202  0.48853532  0.05914080  1
  S2-  S237  1  0.38078553  0.51343385  0.53986085  1
  S2-  S238  1  0.40064719  0.74187613  0.05477076  1
  S2-  S239  1  0.38205954  0.76170126  0.54290139  1
  S2-  S240  1  0.64891717  -0.00843111  0.05162997  1
  S2-  S241  1  0.62682307  0.01158404  0.53107886  1
  S2-  S242  1  0.65179916  0.24204314  0.05124508  1
  S2-  S243  1  0.63265797  0.26868683  0.53964607  1
  S2-  S244  1  0.65303866  0.48864318  0.03708431  1
  S2-  S245  1  0.63143983  0.51337332  0.53038573  1
  S2-  S246  1  0.65532408  0.73991991  0.04241713  1
  S2-  S247  1  0.63107352  0.76527129  0.54415596  1
  S2-  S248  1  0.90078904  -0.01021032  0.05038064  1
  S2-  S249  1  0.88509183  0.01209170  0.54403031  1
  S2-  S250  1  0.89887931  0.24547531  0.03943010  1
  S2-  S251  1  0.88493251  0.26049102  0.54905709  1
  S2-  S252  1  0.89711595  0.48637234  0.04430525  1
  S2-  S253  1  0.88035940  0.51697736  0.54522493  1
  S2-  S254  1  0.89494939  0.73963886  0.05156727  1
  S2-  S255  1  0.87883568  0.76254966  0.54901541  1
