# generated using pymatgen
data_La9Ce10Pr6Nd4Sm3(BiS2)32
_symmetry_space_group_name_H-M   'P 1'
_cell_length_a   16.22739936
_cell_length_b   16.25121234
_cell_length_c   27.17146178
_cell_angle_alpha   90.00589573
_cell_angle_beta   89.93231990
_cell_angle_gamma   90.03549297
_symmetry_Int_Tables_number   1
_chemical_formula_structural   La9Ce10Pr6Nd4Sm3(BiS2)32
_chemical_formula_sum   'La18 Ce20 Pr12 Nd8 Sm6 Bi64 S128'
_cell_volume   7165.51325719
_cell_formula_units_Z   2
loop_
 _symmetry_equiv_pos_site_id
 _symmetry_equiv_pos_as_xyz
  1  'x, y, z'
loop_
 _atom_type_symbol
 _atom_type_oxidation_number
  La3+  3.0
  Ce3+  3.0
  Pr3+  3.0
  Nd3+  3.0
  Sm3+  3.0
  Bi2+  2.0
  S2-  -2.0
loop_
 _atom_site_type_symbol
 _atom_site_label
 _atom_site_symmetry_multiplicity
 _atom_site_fract_x
 _atom_site_fract_y
 _atom_site_fract_z
 _atom_site_occupancy
  La3+  La0  1  0.37155825  0.48007640  0.93197907  1
  La3+  La1  1  -0.00985689  0.12983476  0.59665638  1
  La3+  La2  1  0.37859346  0.49881652  0.43334170  1
  La3+  La3  1  0.13671745  0.75058867  0.43144732  1
  La3+  La4  1  0.13060066  -0.02103420  0.90457799  1
  La3+  La5  1  0.87790648  0.48190755  0.94440163  1
  La3+  La6  1  0.75771370  0.37182794  0.57010889  1
  La3+  La7  1  0.49035911  0.87849340  0.58394133  1
  La3+  La8  1  0.11829307  -0.00038399  0.43342128  1
  La3+  La9  1  0.50110101  0.85072994  0.06526952  1
  La3+  La10  1  0.74844549  0.61343507  0.06253239  1
  La3+  La11  1  0.13191695  0.49958125  0.42569250  1
  La3+  La12  1  0.87556559  0.73528369  0.93600811  1
  La3+  La13  1  0.75368999  0.87212279  0.57881031  1
  La3+  La14  1  0.11770616  0.24568994  0.43804545  1
  La3+  La15  1  0.86779272  0.25689202  0.41846981  1
  La3+  La16  1  0.37627604  0.24998008  0.42921856  1
  La3+  La17  1  0.86455026  -0.01105317  0.92743645  1
  Ce3+  Ce18  1  0.00297761  0.62598975  0.54631548  1
  Ce3+  Ce19  1  0.62885507  0.23821662  0.92977325  1
  Ce3+  Ce20  1  0.00153233  0.10926933  0.05352764  1
  Ce3+  Ce21  1  0.12475826  0.73674779  0.93964937  1
  Ce3+  Ce22  1  0.49938529  0.35823272  0.05142075  1
  Ce3+  Ce23  1  0.50134060  0.12867370  0.56789269  1
  Ce3+  Ce24  1  0.62323196  -0.01573393  0.94129872  1
  Ce3+  Ce25  1  0.62522379  -0.00083025  0.45369470  1
  Ce3+  Ce26  1  0.00178018  0.35505767  0.07009921  1
  Ce3+  Ce27  1  0.24813560  0.10785553  0.05473730  1
  Ce3+  Ce28  1  0.00262729  0.61102075  0.06105160  1
  Ce3+  Ce29  1  0.37318304  0.23046637  0.93967511  1
  Ce3+  Ce30  1  0.12523619  0.48221608  0.94589305  1
  Ce3+  Ce31  1  0.62647802  0.48023682  0.92957417  1
  Ce3+  Ce32  1  0.12829030  0.23574889  0.93618379  1
  Ce3+  Ce33  1  0.50092969  0.37264317  0.56586147  1
  Ce3+  Ce34  1  0.87210033  0.50177982  0.43793363  1
  Ce3+  Ce35  1  0.75352341  0.12771003  0.55791100  1
  Ce3+  Ce36  1  0.87104298  -0.00201873  0.43880067  1
  Ce3+  Ce37  1  0.88177260  0.23343678  0.94132597  1
  Pr3+  Pr38  1  0.38038801  0.00166228  0.43743320  1
  Pr3+  Pr39  1  0.62171641  0.75195252  0.44910547  1
  Pr3+  Pr40  1  -0.00043318  0.86194398  0.05971754  1
  Pr3+  Pr41  1  0.49990594  0.60621282  0.05600821  1
  Pr3+  Pr42  1  0.49436509  0.61675358  0.57970882  1
  Pr3+  Pr43  1  0.62595966  0.50191114  0.44846857  1
  Pr3+  Pr44  1  0.24716907  0.37454369  0.56121292  1
  Pr3+  Pr45  1  0.37435189  0.73620166  0.93275509  1
  Pr3+  Pr46  1  0.74770503  0.11487563  0.06681393  1
  Pr3+  Pr47  1  0.74643194  0.36143301  0.06436364  1
  Pr3+  Pr48  1  0.75027186  0.86106345  0.05271843  1
  Pr3+  Pr49  1  0.87418747  0.74998955  0.43667328  1
  Nd3+  Nd50  1  0.25049168  0.35752684  0.06810824  1
  Nd3+  Nd51  1  0.24791536  0.12487355  0.55679069  1
  Nd3+  Nd52  1  0.25032211  0.86057950  0.05878536  1
  Nd3+  Nd53  1  0.24902138  0.60910385  0.05401588  1
  Nd3+  Nd54  1  0.49902223  0.10873442  0.05705066  1
  Nd3+  Nd55  1  0.62710532  0.25057420  0.43622290  1
  Nd3+  Nd56  1  0.74835741  0.62461905  0.58497119  1
  Nd3+  Nd57  1  0.37733361  -0.01692476  0.93642858  1
  Sm3+  Sm58  1  0.62380996  0.72496339  0.92224285  1
  Sm3+  Sm59  1  -0.00037588  0.37564008  0.55125995  1
  Sm3+  Sm60  1  0.38115268  0.75477737  0.44023621  1
  Sm3+  Sm61  1  0.25046219  0.87910117  0.56046548  1
  Sm3+  Sm62  1  0.25151014  0.62524555  0.56508964  1
  Sm3+  Sm63  1  0.00165314  0.87721809  0.55726615  1
  Bi2+  Bi64  1  0.05429406  0.12449623  0.29538008  1
  Bi2+  Bi65  1  -0.02043490  0.15723413  0.79221861  1
  Bi2+  Bi66  1  -0.03568389  0.38087304  0.27359123  1
  Bi2+  Bi67  1  0.02183821  0.42216470  0.71928075  1
  Bi2+  Bi68  1  -0.11297634  0.64592345  0.30536736  1
  Bi2+  Bi69  1  0.04149068  0.61539098  0.78471807  1
  Bi2+  Bi70  1  -0.02581862  0.87141175  0.28066657  1
  Bi2+  Bi71  1  0.01824619  0.88641147  0.78003225  1
  Bi2+  Bi72  1  0.31189872  0.19701762  0.29849353  1
  Bi2+  Bi73  1  0.31437900  0.18710751  0.77136175  1
  Bi2+  Bi74  1  0.24009270  0.40158011  0.29916155  1
  Bi2+  Bi75  1  0.24677134  0.44680605  0.81656355  1
  Bi2+  Bi76  1  0.25788819  0.63947164  0.27350948  1
  Bi2+  Bi77  1  0.23644373  0.63459284  0.78136146  1
  Bi2+  Bi78  1  0.23323280  0.86467995  0.30234783  1
  Bi2+  Bi79  1  0.27010652  0.83440751  0.79855771  1
  Bi2+  Bi80  1  0.48660412  0.12270833  0.32316747  1
  Bi2+  Bi81  1  0.50156959  0.16714906  0.81573912  1
  Bi2+  Bi82  1  0.48891978  0.30894676  0.28244341  1
  Bi2+  Bi83  1  0.54435687  0.34100528  0.76513834  1
  Bi2+  Bi84  1  0.49243430  0.65501932  0.27789357  1
  Bi2+  Bi85  1  0.49460757  0.60595866  0.78265859  1
  Bi2+  Bi86  1  0.52459000  0.87995391  0.30690233  1
  Bi2+  Bi87  1  0.46322706  0.97756737  0.81020947  1
  Bi2+  Bi88  1  0.68491200  0.10453419  0.29477365  1
  Bi2+  Bi89  1  0.69741977  0.17431576  0.77141916  1
  Bi2+  Bi90  1  0.72394583  0.38751200  0.29159097  1
  Bi2+  Bi91  1  0.78035161  0.36229398  0.79457431  1
  Bi2+  Bi92  1  0.69008309  0.60708933  0.30804780  1
  Bi2+  Bi93  1  0.76867405  0.62578430  0.80134812  1
  Bi2+  Bi94  1  0.73238915  0.84980802  0.25639242  1
  Bi2+  Bi95  1  0.76868763  0.88254513  0.80432512  1
  Bi2+  Bi96  1  0.17293131  0.01237203  0.23050512  1
  Bi2+  Bi97  1  0.12559175  0.01483528  0.71042924  1
  Bi2+  Bi98  1  0.14910460  0.20298497  0.20165250  1
  Bi2+  Bi99  1  0.16468344  0.30818320  0.75185820  1
  Bi2+  Bi100  1  0.06549641  0.60344122  0.26114999  1
  Bi2+  Bi101  1  0.14666199  0.56041637  0.68215115  1
  Bi2+  Bi102  1  0.13393632  0.74148090  0.18789087  1
  Bi2+  Bi103  1  0.14199191  0.77514925  0.71151828  1
  Bi2+  Bi104  1  0.36928286  0.05019325  0.23406968  1
  Bi2+  Bi105  1  0.36348247  -0.00663045  0.71112199  1
  Bi2+  Bi106  1  0.35663884  0.31700531  0.19281806  1
  Bi2+  Bi107  1  0.43998741  0.23732240  0.68975113  1
  Bi2+  Bi108  1  0.35134446  0.51012815  0.20575681  1
  Bi2+  Bi109  1  0.32702366  0.48028628  0.69741868  1
  Bi2+  Bi110  1  0.40174531  0.78362220  0.20684175  1
  Bi2+  Bi111  1  0.40384379  0.74790336  0.71731861  1
  Bi2+  Bi112  1  0.58724682  -0.00582895  0.21716450  1
  Bi2+  Bi113  1  0.60059949  0.02507537  0.73074868  1
  Bi2+  Bi114  1  0.61234892  0.24075867  0.20493100  1
  Bi2+  Bi115  1  0.62407328  0.25382648  0.65771162  1
  Bi2+  Bi116  1  0.54126911  0.49423913  0.21779380  1
  Bi2+  Bi117  1  0.62376300  0.49278343  0.71001140  1
  Bi2+  Bi118  1  0.64163356  0.70178806  0.20120005  1
  Bi2+  Bi119  1  0.66512960  0.74792098  0.72321209  1
  Bi2+  Bi120  1  0.84437957  0.01231922  0.25459548  1
  Bi2+  Bi121  1  0.86483448  -0.00028939  0.70970312  1
  Bi2+  Bi122  1  0.87863956  0.21263679  0.19413708  1
  Bi2+  Bi123  1  0.80575722  0.28180215  0.69377513  1
  Bi2+  Bi124  1  0.81224781  0.52250796  0.22689371  1
  Bi2+  Bi125  1  0.87414245  0.54973633  0.71907198  1
  Bi2+  Bi126  1  0.89159463  0.74497530  0.19522263  1
  Bi2+  Bi127  1  0.94526749  0.75298539  0.70720421  1
  S2-  S128  1  0.01298487  0.13070095  0.15129963  1
  S2-  S129  1  0.04603864  0.15218102  0.69470204  1
  S2-  S130  1  -0.03833861  0.35815694  0.16594123  1
  S2-  S131  1  -0.04361623  0.32661594  0.64197467  1
  S2-  S132  1  0.00233705  0.62002307  0.15915100  1
  S2-  S133  1  -0.01772937  0.61608769  0.64243360  1
  S2-  S134  1  0.00041224  0.86027153  0.16163481  1
  S2-  S135  1  -0.00385155  0.96102575  0.64456599  1
  S2-  S136  1  0.27452276  0.09753519  0.15235371  1
  S2-  S137  1  0.24739866  0.08248267  0.65408381  1
  S2-  S138  1  0.19314097  0.35191531  0.16340905  1
  S2-  S139  1  0.24622825  0.34297665  0.66174719  1
  S2-  S140  1  0.24157483  0.61735948  0.15315738  1
  S2-  S141  1  0.35587488  0.63213931  0.64569085  1
  S2-  S142  1  0.25353931  0.83964350  0.15860792  1
  S2-  S143  1  0.33771136  0.86603138  0.64701411  1
  S2-  S144  1  0.53819822  0.12658595  0.15378715  1
  S2-  S145  1  0.49330449  0.02714677  0.64844996  1
  S2-  S146  1  0.53761102  0.37669664  0.14631882  1
  S2-  S147  1  0.48316555  0.46439549  0.64872486  1
  S2-  S148  1  0.50058511  0.70976978  0.13708879  1
  S2-  S149  1  0.61477823  0.62922488  0.65612135  1
  S2-  S150  1  0.47411689  0.91535055  0.15906439  1
  S2-  S151  1  0.54068226  0.81755815  0.67888708  1
  S2-  S152  1  0.79017874  0.07657005  0.16246196  1
  S2-  S153  1  0.83519861  0.12431348  0.64590742  1
  S2-  S154  1  0.75191672  0.29395413  0.15754811  1
  S2-  S155  1  0.76844508  0.48631908  0.64851305  1
  S2-  S156  1  0.70139172  0.55227735  0.15261058  1
  S2-  S157  1  0.79339627  0.74780081  0.65455508  1
  S2-  S158  1  0.74588962  0.81904542  0.15020254  1
  S2-  S159  1  0.72725076  0.94491146  0.67531670  1
  S2-  S160  1  0.17799727  0.01741971  0.33921190  1
  S2-  S161  1  0.10263456  0.05396039  0.81277198  1
  S2-  S162  1  0.16782303  0.25982226  0.34074183  1
  S2-  S163  1  0.06148397  0.26073407  0.84616710  1
  S2-  S164  1  0.07120060  0.46454199  0.32751552  1
  S2-  S165  1  0.08628309  0.49069342  0.85032940  1
  S2-  S166  1  0.08051991  0.80325617  0.33694394  1
  S2-  S167  1  0.11855200  0.82124880  0.85415471  1
  S2-  S168  1  0.38119211  -0.08145613  0.34792206  1
  S2-  S169  1  0.29032151  -0.02272028  0.84957879  1
  S2-  S170  1  0.38524715  0.37474340  0.35588322  1
  S2-  S171  1  0.30799296  0.28343221  0.85464503  1
  S2-  S172  1  0.26233967  0.53073835  0.35683356  1
  S2-  S173  1  0.41925672  0.49376992  0.83416471  1
  S2-  S174  1  0.27225670  0.73989954  0.36182077  1
  S2-  S175  1  0.41572293  0.73815945  0.83418417  1
  S2-  S176  1  0.65389885  -0.03336123  0.35920444  1
  S2-  S177  1  0.70692791  0.00331196  0.85801349  1
  S2-  S178  1  0.72344638  0.24961943  0.35169622  1
  S2-  S179  1  0.63751865  0.36157006  0.85675469  1
  S2-  S180  1  0.60809028  0.47265155  0.34866080  1
  S2-  S181  1  0.62588064  0.59249461  0.85342649  1
  S2-  S182  1  0.51126880  0.74558378  0.36944290  1
  S2-  S183  1  0.64141688  0.79443408  0.82890056  1
  S2-  S184  1  0.94064842  0.00314903  0.34685358  1
  S2-  S185  1  0.90720914  -0.00993884  0.82812940  1
  S2-  S186  1  0.95151983  0.23584065  0.32705805  1
  S2-  S187  1  0.83666029  0.21490154  0.84714493  1
  S2-  S188  1  0.85842158  0.41808670  0.35270281  1
  S2-  S189  1  0.85114436  0.48628035  0.84474278  1
  S2-  S190  1  0.83544944  0.80096250  0.34218813  1
  S2-  S191  1  0.87223855  0.74965613  0.83576563  1
  S2-  S192  1  -0.00606281  0.12362329  0.44567382  1
  S2-  S193  1  0.00478726  0.10400058  0.94618779  1
  S2-  S194  1  0.00071538  0.37796343  0.44766425  1
  S2-  S195  1  0.00298407  0.35804589  0.96104875  1
  S2-  S196  1  0.00428737  0.62669159  0.43919995  1
  S2-  S197  1  0.00202107  0.61094264  0.95331333  1
  S2-  S198  1  -0.00013228  0.87170713  0.45338438  1
  S2-  S199  1  -0.00284345  0.86603763  0.95138466  1
  S2-  S200  1  0.25184664  0.12466751  0.44978433  1
  S2-  S201  1  0.24739959  0.10574409  0.94812834  1
  S2-  S202  1  0.24690618  0.36970407  0.45467788  1
  S2-  S203  1  0.24749265  0.35921912  0.96113486  1
  S2-  S204  1  0.25528335  0.62563914  0.46326657  1
  S2-  S205  1  0.24865023  0.61023031  0.94620149  1
  S2-  S206  1  0.25296130  0.88139965  0.45707906  1
  S2-  S207  1  0.25012163  0.86026099  0.95354196  1
  S2-  S208  1  0.50332590  0.12828327  0.45894628  1
  S2-  S209  1  0.50128185  0.11007374  0.95065474  1
  S2-  S210  1  0.50471172  0.37157840  0.45821403  1
  S2-  S211  1  0.49591810  0.35565673  0.94651265  1
  S2-  S212  1  0.49839859  0.62224764  0.46598870  1
  S2-  S213  1  0.49628742  0.60945559  0.95024250  1
  S2-  S214  1  0.50012435  0.87934489  0.46914411  1
  S2-  S215  1  0.50178034  0.85677245  0.95079422  1
  S2-  S216  1  0.75010236  0.12341176  0.45233881  1
  S2-  S217  1  0.74854011  0.11588955  0.95891746  1
  S2-  S218  1  0.74796145  0.37679123  0.45994934  1
  S2-  S219  1  0.75552181  0.35645243  0.95747914  1
  S2-  S220  1  0.74925681  0.62775138  0.45556941  1
  S2-  S221  1  0.75196778  0.60984118  0.95367933  1
  S2-  S222  1  0.74937412  0.87228805  0.46518051  1
  S2-  S223  1  0.74536207  0.85463714  0.94751146  1
  S2-  S224  1  0.12580722  -0.01645157  0.05331777  1
  S2-  S225  1  0.12456914  0.00042632  0.54373953  1
  S2-  S226  1  0.12746529  0.23416841  0.04546445  1
  S2-  S227  1  0.11856231  0.24649896  0.54894151  1
  S2-  S228  1  0.12541153  0.48349346  0.05383200  1
  S2-  S229  1  0.12528166  0.49978596  0.54065722  1
  S2-  S230  1  0.12572219  0.73612062  0.04555923  1
  S2-  S231  1  0.12847474  0.75366996  0.54689480  1
  S2-  S232  1  0.37641166  -0.01686421  0.04366086  1
  S2-  S233  1  0.37129197  0.00460790  0.54471394  1
  S2-  S234  1  0.37452296  0.23319591  0.04731563  1
  S2-  S235  1  0.37292884  0.24983411  0.54439387  1
  S2-  S236  1  0.37257034  0.48346845  0.04481226  1
  S2-  S237  1  0.36942394  0.49594282  0.54271332  1
  S2-  S238  1  0.37036792  0.73230914  0.04013199  1
  S2-  S239  1  0.36972416  0.75159171  0.54464814  1
  S2-  S240  1  0.62460428  -0.01502818  0.04937123  1
  S2-  S241  1  0.62983112  0.00273397  0.55735129  1
  S2-  S242  1  0.62316347  0.23514099  0.04087751  1
  S2-  S243  1  0.62829869  0.24998417  0.54253357  1
  S2-  S244  1  0.62354654  0.48344959  0.03779093  1
  S2-  S245  1  0.62754481  0.49722603  0.55235690  1
  S2-  S246  1  0.62673029  0.73273452  0.03439247  1
  S2-  S247  1  0.62396282  0.75069488  0.55496869  1
  S2-  S248  1  0.87341234  -0.01394889  0.04189215  1
  S2-  S249  1  0.87662430  -0.00132752  0.54466501  1
  S2-  S250  1  0.87581379  0.23492483  0.04850065  1
  S2-  S251  1  0.87862623  0.24885155  0.53641146  1
  S2-  S252  1  0.87538797  0.48525175  0.05367773  1
  S2-  S253  1  0.88001234  0.50125417  0.54272031  1
  S2-  S254  1  0.87661433  0.73553056  0.04464078  1
  S2-  S255  1  0.88170739  0.75205104  0.54462502  1
