# generated using pymatgen
data_La9Ce10Pr6Nd4Sm3(BiS2)32
_symmetry_space_group_name_H-M   'P 1'
_cell_length_a   16.17687675
_cell_length_b   16.18552012
_cell_length_c   27.13440257
_cell_angle_alpha   89.49904299
_cell_angle_beta   90.18317859
_cell_angle_gamma   89.95535958
_symmetry_Int_Tables_number   1
_chemical_formula_structural   La9Ce10Pr6Nd4Sm3(BiS2)32
_chemical_formula_sum   'La18 Ce20 Pr12 Nd8 Sm6 Bi64 S128'
_cell_volume   7104.32203014
_cell_formula_units_Z   2
loop_
 _symmetry_equiv_pos_site_id
 _symmetry_equiv_pos_as_xyz
  1  'x, y, z'
loop_
 _atom_type_symbol
 _atom_type_oxidation_number
  La3+  3.0
  Ce3+  3.0
  Pr3+  3.0
  Nd3+  3.0
  Sm3+  3.0
  Bi2+  2.0
  S2-  -2.0
loop_
 _atom_site_type_symbol
 _atom_site_label
 _atom_site_symmetry_multiplicity
 _atom_site_fract_x
 _atom_site_fract_y
 _atom_site_fract_z
 _atom_site_occupancy
  La3+  La0  1  0.88512045  0.75718895  0.42846917  1
  La3+  La1  1  0.24991347  0.87893888  0.07677763  1
  La3+  La2  1  0.37278130  0.75806763  0.93034670  1
  La3+  La3  1  0.85847481  0.25820546  0.91627010  1
  La3+  La4  1  0.64323571  0.50445756  0.39767075  1
  La3+  La5  1  0.25713388  0.11760322  0.58444391  1
  La3+  La6  1  0.24623544  0.38203895  0.08337681  1
  La3+  La7  1  0.74346878  0.37002923  0.07148302  1
  La3+  La8  1  0.74809597  0.12621873  0.06791157  1
  La3+  La9  1  0.12778831  0.50632652  0.91133726  1
  La3+  La10  1  0.87286907  0.50982732  0.92801181  1
  La3+  La11  1  0.37843612  0.50566699  0.41367702  1
  La3+  La12  1  0.26828816  0.37320075  0.58112231  1
  La3+  La13  1  0.75943891  0.61849487  0.08576651  1
  La3+  La14  1  0.14800414  0.24774903  0.43562365  1
  La3+  La15  1  0.62129124  0.51512338  0.93166988  1
  La3+  La16  1  0.13720346  0.50087561  0.44273339  1
  La3+  La17  1  0.00148947  0.37454790  0.04865668  1
  Ce3+  Ce18  1  0.88343679  0.50190402  0.43813270  1
  Ce3+  Ce19  1  0.62069668  0.25661577  0.94008048  1
  Ce3+  Ce20  1  0.24943406  0.62227166  0.05307230  1
  Ce3+  Ce21  1  0.63224829  0.00209657  0.93082251  1
  Ce3+  Ce22  1  0.50912371  0.12275495  0.56237639  1
  Ce3+  Ce23  1  0.00159789  0.62365739  0.05510739  1
  Ce3+  Ce24  1  0.76024888  0.37626870  0.56024997  1
  Ce3+  Ce25  1  0.49517569  0.87553185  0.06053799  1
  Ce3+  Ce26  1  0.37374119  0.50601020  0.92402376  1
  Ce3+  Ce27  1  0.12284024  0.75633221  0.93940252  1
  Ce3+  Ce28  1  0.12670950  0.24741839  0.92345473  1
  Ce3+  Ce29  1  0.63737668  -0.00150571  0.44216495  1
  Ce3+  Ce30  1  0.01443736  0.37355999  0.55980972  1
  Ce3+  Ce31  1  0.63505601  0.75135720  0.43564089  1
  Ce3+  Ce32  1  0.38355867  -0.00037128  0.43986807  1
  Ce3+  Ce33  1  0.12298238  0.00388703  0.93438663  1
  Ce3+  Ce34  1  0.76195991  0.62257329  0.55342750  1
  Ce3+  Ce35  1  0.26828826  0.87433281  0.56348871  1
  Ce3+  Ce36  1  0.01107900  0.62353136  0.55933142  1
  Ce3+  Ce37  1  0.88608467  0.25293994  0.44479446  1
  Pr3+  Pr38  1  0.00914451  0.87311517  0.56919279  1
  Pr3+  Pr39  1  0.63978614  0.24681967  0.44230997  1
  Pr3+  Pr40  1  0.24736043  0.12763094  0.06136720  1
  Pr3+  Pr41  1  0.13897228  -0.00148307  0.43927956  1
  Pr3+  Pr42  1  0.52024387  0.87329720  0.57438714  1
  Pr3+  Pr43  1  0.76381434  0.87152540  0.56735864  1
  Pr3+  Pr44  1  0.74737855  0.87424463  0.06328455  1
  Pr3+  Pr45  1  0.37457866  0.00219367  0.93242103  1
  Pr3+  Pr46  1  0.38868915  0.74952493  0.43728388  1
  Pr3+  Pr47  1  -0.00012348  0.12957029  0.04746330  1
  Pr3+  Pr48  1  -0.00256051  0.87441452  0.06206844  1
  Pr3+  Pr49  1  0.39016061  0.25268561  0.44143607  1
  Nd3+  Nd50  1  0.49574600  0.37827604  0.06466476  1
  Nd3+  Nd51  1  0.49416031  0.62198016  0.06413689  1
  Nd3+  Nd52  1  0.51003344  0.37717941  0.55206855  1
  Nd3+  Nd53  1  0.89091480  0.00277905  0.43186118  1
  Nd3+  Nd54  1  0.76357871  0.12374775  0.56888234  1
  Nd3+  Nd55  1  0.26500433  0.62375212  0.56796943  1
  Nd3+  Nd56  1  0.49481930  0.12481590  0.05067919  1
  Nd3+  Nd57  1  0.51323895  0.62178534  0.55532755  1
  Sm3+  Sm58  1  0.13632065  0.75141315  0.45096602  1
  Sm3+  Sm59  1  0.62490370  0.75081562  0.95441396  1
  Sm3+  Sm60  1  0.37133979  0.25845194  0.94076671  1
  Sm3+  Sm61  1  0.87121604  0.75127292  0.93943145  1
  Sm3+  Sm62  1  0.87080281  0.00305582  0.94214455  1
  Sm3+  Sm63  1  0.00515114  0.12388074  0.56335542  1
  Bi2+  Bi64  1  0.00798070  0.09638675  0.27035152  1
  Bi2+  Bi65  1  0.00939166  0.06624598  0.78992093  1
  Bi2+  Bi66  1  -0.01085448  0.37859252  0.28689692  1
  Bi2+  Bi67  1  -0.02454369  0.32649655  0.78634076  1
  Bi2+  Bi68  1  0.02246219  0.57655564  0.30063829  1
  Bi2+  Bi69  1  -0.02160326  0.70966482  0.78838258  1
  Bi2+  Bi70  1  -0.01616121  0.87306496  0.30331386  1
  Bi2+  Bi71  1  0.02900917  0.88400267  0.83897066  1
  Bi2+  Bi72  1  0.28819376  0.10712112  0.28226569  1
  Bi2+  Bi73  1  0.30148474  0.05536388  0.80814330  1
  Bi2+  Bi74  1  0.23978688  0.35813603  0.30385982  1
  Bi2+  Bi75  1  0.26327208  0.36946217  0.77759388  1
  Bi2+  Bi76  1  0.22209897  0.66689973  0.31150973  1
  Bi2+  Bi77  1  0.24323404  0.63680387  0.78461824  1
  Bi2+  Bi78  1  0.27346583  0.88005419  0.28949810  1
  Bi2+  Bi79  1  0.22254644  0.86496976  0.81007586  1
  Bi2+  Bi80  1  0.48571820  0.06915479  0.29960783  1
  Bi2+  Bi81  1  0.46975148  0.15644406  0.80140418  1
  Bi2+  Bi82  1  0.51037423  0.33040996  0.27166154  1
  Bi2+  Bi83  1  0.52970344  0.41261772  0.76274630  1
  Bi2+  Bi84  1  0.45232668  0.72553649  0.26499090  1
  Bi2+  Bi85  1  0.51305104  0.62719769  0.79063387  1
  Bi2+  Bi86  1  0.46118064  0.88006608  0.33580053  1
  Bi2+  Bi87  1  0.52386866  0.84915352  0.76125099  1
  Bi2+  Bi88  1  0.80251315  0.10172869  0.29467364  1
  Bi2+  Bi89  1  0.67038092  0.07853350  0.79415384  1
  Bi2+  Bi90  1  0.75070319  0.35565818  0.29337561  1
  Bi2+  Bi91  1  0.71201485  0.35082358  0.78320089  1
  Bi2+  Bi92  1  0.76517440  0.63386032  0.28270667  1
  Bi2+  Bi93  1  0.72279164  0.60528425  0.79026771  1
  Bi2+  Bi94  1  0.65801945  0.89671088  0.31648636  1
  Bi2+  Bi95  1  0.83246220  0.86194144  0.80393525  1
  Bi2+  Bi96  1  0.15044953  -0.01977594  0.22210217  1
  Bi2+  Bi97  1  0.16798533  0.01980092  0.72540507  1
  Bi2+  Bi98  1  0.10493465  0.25155193  0.20397991  1
  Bi2+  Bi99  1  0.10150345  0.23586172  0.71199348  1
  Bi2+  Bi100  1  0.13036347  0.49710107  0.21301353  1
  Bi2+  Bi101  1  0.08248857  0.49056667  0.71657108  1
  Bi2+  Bi102  1  0.10528613  0.69753695  0.21577455  1
  Bi2+  Bi103  1  0.07976525  0.83561984  0.71846419  1
  Bi2+  Bi104  1  0.40946119  -0.00092226  0.19878729  1
  Bi2+  Bi105  1  0.45037733  0.01002236  0.72210660  1
  Bi2+  Bi106  1  0.37105623  0.23939332  0.21140396  1
  Bi2+  Bi107  1  0.38295395  0.25022389  0.71064547  1
  Bi2+  Bi108  1  0.37215279  0.50165529  0.21379577  1
  Bi2+  Bi109  1  0.38749262  0.52194233  0.69171663  1
  Bi2+  Bi110  1  0.29054213  0.75356227  0.19972279  1
  Bi2+  Bi111  1  0.28533912  0.81547778  0.70206954  1
  Bi2+  Bi112  1  0.60802851  -0.00056063  0.21547492  1
  Bi2+  Bi113  1  0.64379042  0.05190239  0.68155200  1
  Bi2+  Bi114  1  0.62405358  0.21754242  0.20398410  1
  Bi2+  Bi115  1  0.60007596  0.23958684  0.70395920  1
  Bi2+  Bi116  1  0.63272390  0.50120343  0.19702749  1
  Bi2+  Bi117  1  0.65118141  0.50892413  0.69222635  1
  Bi2+  Bi118  1  0.61124317  0.80421184  0.21979151  1
  Bi2+  Bi119  1  0.69583926  0.78562529  0.73394141  1
  Bi2+  Bi120  1  0.86736214  -0.00580215  0.21392460  1
  Bi2+  Bi121  1  0.88937953  -0.02241550  0.71746779  1
  Bi2+  Bi122  1  0.89724806  0.24663553  0.21674900  1
  Bi2+  Bi123  1  0.79370240  0.22822538  0.70175740  1
  Bi2+  Bi124  1  0.91176797  0.51030300  0.21221050  1
  Bi2+  Bi125  1  0.88376901  0.50382596  0.76567486  1
  Bi2+  Bi126  1  0.93092838  0.78908678  0.20321031  1
  Bi2+  Bi127  1  0.88700835  0.70150887  0.68908330  1
  S2-  S128  1  0.00029587  0.15929414  0.14760463  1
  S2-  S129  1  0.09568835  0.11399261  0.64761078  1
  S2-  S130  1  0.08639876  0.38475438  0.13882472  1
  S2-  S131  1  0.01343548  0.35780221  0.65949701  1
  S2-  S132  1  -0.07995667  0.63928414  0.14262551  1
  S2-  S133  1  0.03517570  0.61739809  0.65717929  1
  S2-  S134  1  0.05168365  0.89258248  0.15660927  1
  S2-  S135  1  -0.11198767  0.86477084  0.64327911  1
  S2-  S136  1  0.23797707  0.23327355  0.14394326  1
  S2-  S137  1  0.24450644  0.24821326  0.65560614  1
  S2-  S138  1  0.39046280  0.38099528  0.14942417  1
  S2-  S139  1  0.22225971  0.45589272  0.67416000  1
  S2-  S140  1  0.25277048  0.53878994  0.14088232  1
  S2-  S141  1  0.28093193  0.65891670  0.66738286  1
  S2-  S142  1  0.24782007  1.01445158  0.14281228  1
  S2-  S143  1  0.25738448  0.96782832  0.64424871  1
  S2-  S144  1  0.48502525  0.14868336  0.15012466  1
  S2-  S145  1  0.41321863  0.11858523  0.64502586  1
  S2-  S146  1  0.60477222  0.35972395  0.14621601  1
  S2-  S147  1  0.42522990  0.38178728  0.64044452  1
  S2-  S148  1  0.48680379  0.57845520  0.16349191  1
  S2-  S149  1  0.51219004  0.61005583  0.65754706  1
  S2-  S150  1  0.39970738  0.85965465  0.14201807  1
  S2-  S151  1  0.44377169  0.84263591  0.66634253  1
  S2-  S152  1  0.76402142  0.23034006  0.14770874  1
  S2-  S153  1  0.88078691  0.11642249  0.64489492  1
  S2-  S154  1  0.78535967  0.47343162  0.14957185  1
  S2-  S155  1  0.76870867  0.39276159  0.65824789  1
  S2-  S156  1  0.69599898  0.66136839  0.18300608  1
  S2-  S157  1  0.74420485  0.64253072  0.65014180  1
  S2-  S158  1  0.79192433  0.87172319  0.16111445  1
  S2-  S159  1  0.65417726  0.87803155  0.64762923  1
  S2-  S160  1  0.02528916  0.01162754  0.36027979  1
  S2-  S161  1  0.14792507  0.10557714  0.85511374  1
  S2-  S162  1  0.09416009  0.28284506  0.33931543  1
  S2-  S163  1  0.13554552  0.30919518  0.82778201  1
  S2-  S164  1  0.21943559  0.50376447  0.35447615  1
  S2-  S165  1  0.02428304  0.49292570  0.82190074  1
  S2-  S166  1  0.11801838  0.78366912  0.35418232  1
  S2-  S167  1  0.13436528  0.66925234  0.85178006  1
  S2-  S168  1  0.26266128  0.00404356  0.36426968  1
  S2-  S169  1  0.36988999  -0.11281905  0.85616701  1
  S2-  S170  1  0.29123664  0.23484097  0.35922195  1
  S2-  S171  1  0.37239135  0.28247894  0.84114741  1
  S2-  S172  1  0.39881819  0.42892630  0.31920031  1
  S2-  S173  1  0.26451111  0.49513112  0.84118396  1
  S2-  S174  1  0.38616333  0.65185711  0.35144143  1
  S2-  S175  1  0.38061295  0.66288596  0.84317152  1
  S2-  S176  1  0.66265944  0.06469749  0.35189185  1
  S2-  S177  1  0.57677079  -0.04116341  0.84047450  1
  S2-  S178  1  0.62847104  0.28782223  0.34405733  1
  S2-  S179  1  0.69764238  0.22929475  0.85454883  1
  S2-  S180  1  0.60406766  0.47529855  0.29561596  1
  S2-  S181  1  0.50523995  0.48998894  0.85388634  1
  S2-  S182  1  0.65096730  0.67007700  0.34839980  1
  S2-  S183  1  0.62327985  0.67693228  0.86529046  1
  S2-  S184  1  0.84767653  -0.10964797  0.35588909  1
  S2-  S185  1  0.77669075  0.00201439  0.85997024  1
  S2-  S186  1  0.84485622  0.24124979  0.34973631  1
  S2-  S187  1  0.90881256  0.19128163  0.82407085  1
  S2-  S188  1  0.80074541  0.48814586  0.35044254  1
  S2-  S189  1  0.83871626  0.40104446  0.84971057  1
  S2-  S190  1  0.89150320  0.68123921  0.33516419  1
  S2-  S191  1  0.85802934  0.65001977  0.85875515  1
  S2-  S192  1  0.01125226  0.13125967  0.45787884  1
  S2-  S193  1  -0.00999806  0.12694177  0.94293600  1
  S2-  S194  1  0.01031047  0.37680585  0.45153860  1
  S2-  S195  1  -0.00088081  0.37667004  0.94058269  1
  S2-  S196  1  0.01150580  0.62776072  0.45177930  1
  S2-  S197  1  0.00087984  0.63263092  0.95111506  1
  S2-  S198  1  0.01217040  0.87408326  0.46169910  1
  S2-  S199  1  -0.00783975  0.87754342  0.95511250  1
  S2-  S200  1  0.26630006  0.12234942  0.46829756  1
  S2-  S201  1  0.25566412  0.12888343  0.95409166  1
  S2-  S202  1  0.26647971  0.37846204  0.45944955  1
  S2-  S203  1  0.24803657  0.37595871  0.94526326  1
  S2-  S204  1  0.25992963  0.63024478  0.46032027  1
  S2-  S205  1  0.25000639  0.63092424  0.95066914  1
  S2-  S206  1  0.26247561  0.86844151  0.45831306  1
  S2-  S207  1  0.24347992  0.88078420  0.95953889  1
  S2-  S208  1  0.51149060  0.12429297  0.45332526  1
  S2-  S209  1  0.49881065  0.12784319  0.94439010  1
  S2-  S210  1  0.51404676  0.38164825  0.44521997  1
  S2-  S211  1  0.49736673  0.37734357  0.95598496  1
  S2-  S212  1  0.51646398  0.61945622  0.44858549  1
  S2-  S213  1  0.49572642  0.63206852  0.95965888  1
  S2-  S214  1  0.51329299  0.87495115  0.46049143  1
  S2-  S215  1  0.50573418  0.87729828  0.95611347  1
  S2-  S216  1  0.76531313  0.12407525  0.46125650  1
  S2-  S217  1  0.74850492  0.12685502  0.96025248  1
  S2-  S218  1  0.75748321  0.37799712  0.45423048  1
  S2-  S219  1  0.73893471  0.38371199  0.95702270  1
  S2-  S220  1  0.76101099  0.62504559  0.44993794  1
  S2-  S221  1  0.74878123  0.63155571  0.96706410  1
  S2-  S222  1  0.75749588  0.87592636  0.46072792  1
  S2-  S223  1  0.74866051  0.87192679  0.95668349  1
  S2-  S224  1  0.11999172  0.00075381  0.04144547  1
  S2-  S225  1  0.13017332  -0.00423891  0.54564534  1
  S2-  S226  1  0.12562450  0.25096697  0.03231678  1
  S2-  S227  1  0.13453538  0.25107952  0.54531473  1
  S2-  S228  1  0.12478177  0.50422278  0.03315714  1
  S2-  S229  1  0.13954934  0.50038282  0.55080434  1
  S2-  S230  1  0.12495678  0.75111476  0.05003108  1
  S2-  S231  1  0.13788801  0.75023990  0.55668986  1
  S2-  S232  1  0.37433091  0.00028278  0.03953805  1
  S2-  S233  1  0.39481180  -0.00778944  0.54544270  1
  S2-  S234  1  0.37412241  0.25299533  0.04365490  1
  S2-  S235  1  0.38894895  0.24948247  0.54571093  1
  S2-  S236  1  0.37292265  0.50058998  0.03741661  1
  S2-  S237  1  0.38548457  0.50353118  0.54081670  1
  S2-  S238  1  0.37169234  0.74946312  0.04188056  1
  S2-  S239  1  0.39035094  0.74768872  0.54667704  1
  S2-  S240  1  0.62208346  0.00011668  0.04916006  1
  S2-  S241  1  0.63939847  0.00361542  0.54688481  1
  S2-  S242  1  0.61823426  0.24601851  0.04351747  1
  S2-  S243  1  0.63613520  0.24939043  0.55097391  1
  S2-  S244  1  0.62221685  0.50589098  0.04677920  1
  S2-  S245  1  0.63615238  0.49815492  0.54861973  1
  S2-  S246  1  0.62125762  0.74864192  0.05923245  1
  S2-  S247  1  0.63653332  0.74666110  0.54396034  1
  S2-  S248  1  0.87320200  0.00125376  0.04835500  1
  S2-  S249  1  0.88724413  -0.00135368  0.54085973  1
  S2-  S250  1  0.87257717  0.25286505  0.03759046  1
  S2-  S251  1  0.88566611  0.25336619  0.54939915  1
  S2-  S252  1  0.87898355  0.50090599  0.03830675  1
  S2-  S253  1  0.88826540  0.49877878  0.54713576  1
  S2-  S254  1  0.87255725  0.75245007  0.04425918  1
  S2-  S255  1  0.88818449  0.74497484  0.54023509  1
