# generated using pymatgen
data_La9Ce10Pr6Nd4Sm3(BiS2)32
_symmetry_space_group_name_H-M   'P 1'
_cell_length_a   16.22865995
_cell_length_b   16.20029974
_cell_length_c   27.08304153
_cell_angle_alpha   90.00771671
_cell_angle_beta   90.15078254
_cell_angle_gamma   90.03693766
_symmetry_Int_Tables_number   1
_chemical_formula_structural   La9Ce10Pr6Nd4Sm3(BiS2)32
_chemical_formula_sum   'La18 Ce20 Pr12 Nd8 Sm6 Bi64 S128'
_cell_volume   7120.35337418
_cell_formula_units_Z   2
loop_
 _symmetry_equiv_pos_site_id
 _symmetry_equiv_pos_as_xyz
  1  'x, y, z'
loop_
 _atom_type_symbol
 _atom_type_oxidation_number
  La3+  3.0
  Ce3+  3.0
  Pr3+  3.0
  Nd3+  3.0
  Sm3+  3.0
  Bi2+  2.0
  S2-  -2.0
loop_
 _atom_site_type_symbol
 _atom_site_label
 _atom_site_symmetry_multiplicity
 _atom_site_fract_x
 _atom_site_fract_y
 _atom_site_fract_z
 _atom_site_occupancy
  La3+  La0  1  0.86756420  0.22703740  0.41391868  1
  La3+  La1  1  0.51040651  0.60404443  0.58233231  1
  La3+  La2  1  0.12672423  0.73256290  0.44773585  1
  La3+  La3  1  0.12263709  0.74217483  0.91270763  1
  La3+  La4  1  0.37709126  0.01169945  0.92153852  1
  La3+  La5  1  0.75312305  0.13226933  0.06910359  1
  La3+  La6  1  0.38641599  0.74192686  0.91052691  1
  La3+  La7  1  0.50293927  0.35150636  0.57641788  1
  La3+  La8  1  0.25534368  0.13504064  0.06828518  1
  La3+  La9  1  0.62791894  0.72878133  0.43455766  1
  La3+  La10  1  0.24199777  0.59601489  0.58620462  1
  La3+  La11  1  -0.00016549  0.86130274  0.56691014  1
  La3+  La12  1  0.12202193  0.49515527  0.42189527  1
  La3+  La13  1  0.50115376  0.10632383  0.56052818  1
  La3+  La14  1  0.11982273  0.01677596  0.91804826  1
  La3+  La15  1  0.64033932  0.50688314  0.92729695  1
  La3+  La16  1  0.13143035  0.22874552  0.40226360  1
  La3+  La17  1  0.51349819  0.63212477  0.06294965  1
  Ce3+  Ce18  1  0.61985624  0.23509917  0.43200267  1
  Ce3+  Ce19  1  0.37721387  0.48948094  0.44724941  1
  Ce3+  Ce20  1  0.75052791  0.85917204  0.55488573  1
  Ce3+  Ce21  1  0.88001860  0.00681423  0.94718605  1
  Ce3+  Ce22  1  0.75096775  0.60277396  0.56487412  1
  Ce3+  Ce23  1  0.63232083  0.00443621  0.93790386  1
  Ce3+  Ce24  1  0.38128034  0.26060884  0.93540769  1
  Ce3+  Ce25  1  0.37737842  0.72854099  0.44932416  1
  Ce3+  Ce26  1  0.50070936  0.88013692  0.04868724  1
  Ce3+  Ce27  1  0.01306970  0.88074971  0.05070660  1
  Ce3+  Ce28  1  0.87640837  -0.01066926  0.44223751  1
  Ce3+  Ce29  1  0.00248323  0.35385701  0.54430628  1
  Ce3+  Ce30  1  0.25580907  0.87426552  0.03472059  1
  Ce3+  Ce31  1  0.25191597  0.10930878  0.55855279  1
  Ce3+  Ce32  1  0.37578813  -0.02774803  0.43572726  1
  Ce3+  Ce33  1  0.87610137  0.73293127  0.44668304  1
  Ce3+  Ce34  1  0.12551099  -0.01047670  0.44272577  1
  Ce3+  Ce35  1  0.00177166  0.11454923  0.55721942  1
  Ce3+  Ce36  1  0.75219235  0.88726314  0.06822791  1
  Ce3+  Ce37  1  0.75236761  0.35333905  0.55469659  1
  Pr3+  Pr38  1  0.25418985  0.85995788  0.57113983  1
  Pr3+  Pr39  1  0.12936321  0.26288540  0.94061533  1
  Pr3+  Pr40  1  0.87731186  0.48129698  0.43384183  1
  Pr3+  Pr41  1  0.50598772  0.85576977  0.56857250  1
  Pr3+  Pr42  1  -0.00344961  0.60135002  0.56731289  1
  Pr3+  Pr43  1  0.00079069  0.37587000  0.07766697  1
  Pr3+  Pr44  1  0.25571439  0.38977927  0.07254052  1
  Pr3+  Pr45  1  0.63535308  0.25137039  0.92359284  1
  Pr3+  Pr46  1  0.37736149  0.23267133  0.43396683  1
  Pr3+  Pr47  1  0.62080945  -0.02407033  0.42794074  1
  Pr3+  Pr48  1  0.00681437  0.63910264  0.06840555  1
  Pr3+  Pr49  1  0.62329928  0.48539961  0.43854413  1
  Nd3+  Nd50  1  0.26207248  0.64265650  0.06923617  1
  Nd3+  Nd51  1  0.87778708  0.75531691  0.93763437  1
  Nd3+  Nd52  1  0.01093800  0.13096993  0.06711397  1
  Nd3+  Nd53  1  0.63340178  0.75792588  0.93432607  1
  Nd3+  Nd54  1  0.75580483  0.64186957  0.07197171  1
  Nd3+  Nd55  1  0.87944792  0.25966092  0.93702936  1
  Nd3+  Nd56  1  0.50223878  0.13096378  0.05277851  1
  Nd3+  Nd57  1  0.75039966  0.37810942  0.06960690  1
  Sm3+  Sm58  1  0.75051141  0.11023251  0.55706143  1
  Sm3+  Sm59  1  0.87874466  0.50640544  0.95788190  1
  Sm3+  Sm60  1  0.12967191  0.50790321  0.95009123  1
  Sm3+  Sm61  1  0.50932690  0.38026848  0.04941307  1
  Sm3+  Sm62  1  0.38070157  0.50742771  0.94500501  1
  Sm3+  Sm63  1  0.24944855  0.35993125  0.55312133  1
  Bi2+  Bi64  1  -0.00679613  0.12986923  0.29104496  1
  Bi2+  Bi65  1  -0.09976151  0.17197280  0.80489421  1
  Bi2+  Bi66  1  0.00823490  0.40985455  0.28152574  1
  Bi2+  Bi67  1  0.03044535  0.32323671  0.81906600  1
  Bi2+  Bi68  1  -0.01275436  0.68140778  0.30922555  1
  Bi2+  Bi69  1  -0.02933018  0.59370489  0.80379004  1
  Bi2+  Bi70  1  -0.02860260  0.87089307  0.28862075  1
  Bi2+  Bi71  1  -0.00233830  0.89764120  0.79589797  1
  Bi2+  Bi72  1  0.25906517  0.10138845  0.28525473  1
  Bi2+  Bi73  1  0.24288926  0.14718913  0.79016133  1
  Bi2+  Bi74  1  0.29055381  0.37214647  0.28081340  1
  Bi2+  Bi75  1  0.21970932  0.37266379  0.80244217  1
  Bi2+  Bi76  1  0.27407099  0.63798558  0.28792696  1
  Bi2+  Bi77  1  0.24577062  0.62378591  0.79220051  1
  Bi2+  Bi78  1  0.24045516  0.90715494  0.25707605  1
  Bi2+  Bi79  1  0.27904528  0.90169150  0.77161969  1
  Bi2+  Bi80  1  0.49809073  0.21129766  0.30545564  1
  Bi2+  Bi81  1  0.50663808  0.12337965  0.79394269  1
  Bi2+  Bi82  1  0.49466823  0.38496039  0.35123223  1
  Bi2+  Bi83  1  0.41373101  0.35159935  0.80186589  1
  Bi2+  Bi84  1  0.48771327  0.71945901  0.32159681  1
  Bi2+  Bi85  1  0.50126726  0.60636276  0.78650535  1
  Bi2+  Bi86  1  0.48333915  0.92755163  0.29996189  1
  Bi2+  Bi87  1  0.60436233  0.87589294  0.80133484  1
  Bi2+  Bi88  1  0.74355406  0.10715267  0.28198745  1
  Bi2+  Bi89  1  0.74971634  0.08600122  0.74629319  1
  Bi2+  Bi90  1  0.68009952  0.38794248  0.30182451  1
  Bi2+  Bi91  1  0.82829241  0.38343179  0.78870774  1
  Bi2+  Bi92  1  0.73195185  0.61895978  0.28709280  1
  Bi2+  Bi93  1  0.74104316  0.70469285  0.81702714  1
  Bi2+  Bi94  1  0.79965589  0.83254410  0.24108930  1
  Bi2+  Bi95  1  0.79677367  0.89338941  0.81459321  1
  Bi2+  Bi96  1  0.07329585  -0.01627340  0.20948115  1
  Bi2+  Bi97  1  0.11493950  0.08333918  0.71778319  1
  Bi2+  Bi98  1  0.12507070  0.24520107  0.19299436  1
  Bi2+  Bi99  1  0.11863779  0.27961227  0.70961111  1
  Bi2+  Bi100  1  0.16719876  0.52600590  0.21579165  1
  Bi2+  Bi101  1  0.06113306  0.48220684  0.72696178  1
  Bi2+  Bi102  1  0.13041759  0.75684654  0.19470182  1
  Bi2+  Bi103  1  0.11582296  0.74044061  0.70838862  1
  Bi2+  Bi104  1  0.37853593  0.02326090  0.20809174  1
  Bi2+  Bi105  1  0.42048478  0.07863626  0.69663406  1
  Bi2+  Bi106  1  0.41132384  0.28250464  0.21084368  1
  Bi2+  Bi107  1  0.32682917  0.26504720  0.70890820  1
  Bi2+  Bi108  1  0.42191901  0.50693193  0.26476884  1
  Bi2+  Bi109  1  0.36347723  0.45778385  0.70931496  1
  Bi2+  Bi110  1  0.35605294  0.76385758  0.21634542  1
  Bi2+  Bi111  1  0.38370929  0.76012514  0.69861003  1
  Bi2+  Bi112  1  0.60456846  0.00715410  0.20750293  1
  Bi2+  Bi113  1  0.60889703  -0.02707901  0.70177127  1
  Bi2+  Bi114  1  0.60907391  0.26804776  0.21663081  1
  Bi2+  Bi115  1  0.63370789  0.28780410  0.69812963  1
  Bi2+  Bi116  1  0.60188767  0.49521721  0.21713426  1
  Bi2+  Bi117  1  0.71014522  0.51980751  0.73993345  1
  Bi2+  Bi118  1  0.58348267  0.74520407  0.19230489  1
  Bi2+  Bi119  1  0.64334500  0.74119270  0.71407570  1
  Bi2+  Bi120  1  0.87578677  0.01052898  0.21632305  1
  Bi2+  Bi121  1  0.89270474  -0.03055896  0.70986403  1
  Bi2+  Bi122  1  0.85610319  0.28096841  0.21729636  1
  Bi2+  Bi123  1  0.90657865  0.27233468  0.70676335  1
  Bi2+  Bi124  1  0.80362740  0.46755540  0.20797422  1
  Bi2+  Bi125  1  0.88363853  0.56687977  0.69757497  1
  Bi2+  Bi126  1  0.86890829  0.65513747  0.20675232  1
  Bi2+  Bi127  1  0.83994955  0.75646162  0.71818822  1
  S2-  S128  1  -0.03112292  0.23556033  0.14747968  1
  S2-  S129  1  -0.01370528  0.08596493  0.65502159  1
  S2-  S130  1  0.07393473  0.40427090  0.17171939  1
  S2-  S131  1  -0.00092427  0.36803077  0.64457681  1
  S2-  S132  1  0.03424999  0.62215137  0.16874365  1
  S2-  S133  1  0.08706693  0.59648396  0.65244999  1
  S2-  S134  1  0.01850558  0.84394856  0.14773025  1
  S2-  S135  1  -0.01412200  0.83299558  0.66670698  1
  S2-  S136  1  0.13385273  0.09644941  0.13968458  1
  S2-  S137  1  0.25925708  0.07188399  0.65495802  1
  S2-  S138  1  0.26804939  0.26331272  0.14576453  1
  S2-  S139  1  0.24671125  0.44051003  0.64202721  1
  S2-  S140  1  0.26879157  0.52229897  0.14339432  1
  S2-  S141  1  0.26194815  0.65683757  0.68502581  1
  S2-  S142  1  0.25654999  0.79432589  0.12434105  1
  S2-  S143  1  0.22088997  0.85715345  0.67152050  1
  S2-  S144  1  0.49884366  0.10891448  0.15307886  1
  S2-  S145  1  0.50901152  0.20470687  0.64470701  1
  S2-  S146  1  0.51940452  0.37981662  0.14862464  1
  S2-  S147  1  0.52755163  0.40810665  0.67296721  1
  S2-  S148  1  0.44015026  0.66985918  0.15407480  1
  S2-  S149  1  0.45785415  0.61956925  0.68139207  1
  S2-  S150  1  0.53634785  0.87771489  0.14739543  1
  S2-  S151  1  0.45922483  0.91032285  0.66156853  1
  S2-  S152  1  0.73505522  0.01249112  0.14483604  1
  S2-  S153  1  0.72980493  0.15463042  0.65293292  1
  S2-  S154  1  0.73916685  0.25679786  0.14407506  1
  S2-  S155  1  0.74127265  0.37836827  0.65296273  1
  S2-  S156  1  0.63439005  0.60896986  0.14137353  1
  S2-  S157  1  0.66079832  0.60565184  0.64864191  1
  S2-  S158  1  0.75824736  0.77695518  0.14538248  1
  S2-  S159  1  0.72236928  0.86407995  0.65160192  1
  S2-  S160  1  0.12213465  0.06545006  0.35307359  1
  S2-  S161  1  0.14374392  -0.03510902  0.81916769  1
  S2-  S162  1  0.09098087  0.25715841  0.29813286  1
  S2-  S163  1  0.12291041  0.16674839  0.85689466  1
  S2-  S164  1  0.16304343  0.44584591  0.32717855  1
  S2-  S165  1  0.12238808  0.57588016  0.85929187  1
  S2-  S166  1  0.13573578  0.66082039  0.35583996  1
  S2-  S167  1  0.16201374  0.76038211  0.80879492  1
  S2-  S168  1  0.38530266  0.05059875  0.34736792  1
  S2-  S169  1  0.39791317  -0.03705780  0.82191983  1
  S2-  S170  1  0.28077331  0.23832557  0.34878944  1
  S2-  S171  1  0.36955041  0.15676060  0.85793969  1
  S2-  S172  1  0.37352719  0.60850631  0.37292314  1
  S2-  S173  1  0.37782980  0.57354822  0.85400842  1
  S2-  S174  1  0.37951053  0.83329806  0.36742426  1
  S2-  S175  1  0.35474845  0.75932061  0.80468492  1
  S2-  S176  1  0.61823117  0.03970553  0.33039109  1
  S2-  S177  1  0.63175336  0.06286097  0.84538198  1
  S2-  S178  1  0.71783370  0.23302300  0.35145481  1
  S2-  S179  1  0.55472468  0.27227136  0.83063364  1
  S2-  S180  1  0.61188445  0.60430572  0.35948589  1
  S2-  S181  1  0.61007650  0.50510492  0.82533214  1
  S2-  S182  1  0.60382907  0.83697799  0.35353872  1
  S2-  S183  1  0.53890737  0.73391901  0.85062958  1
  S2-  S184  1  0.87235980  0.07120744  0.35552452  1
  S2-  S185  1  0.95278104  0.02597607  0.85838271  1
  S2-  S186  1  0.90048992  0.31320580  0.32233929  1
  S2-  S187  1  0.77188944  0.26193527  0.85734091  1
  S2-  S188  1  0.96644643  0.52201483  0.34978533  1
  S2-  S189  1  0.84693354  0.50950514  0.86056788  1
  S2-  S190  1  0.82554376  0.71569653  0.35342879  1
  S2-  S191  1  0.97006735  0.74473866  0.85232583  1
  S2-  S192  1  0.00344927  0.11539338  0.45283569  1
  S2-  S193  1  0.00102350  0.13863824  0.96157996  1
  S2-  S194  1  0.00556526  0.35225623  0.43852542  1
  S2-  S195  1  0.00272521  0.38665471  0.96210783  1
  S2-  S196  1  -0.00294484  0.61089581  0.46114643  1
  S2-  S197  1  -0.00058358  0.62636020  0.96077498  1
  S2-  S198  1  0.00039171  0.86208211  0.45504661  1
  S2-  S199  1  0.00461586  0.88000495  0.94691743  1
  S2-  S200  1  0.25227235  0.10794029  0.45367457  1
  S2-  S201  1  0.25298666  0.13651086  0.95867128  1
  S2-  S202  1  0.25005974  0.36246127  0.44916602  1
  S2-  S203  1  0.25571856  0.38701207  0.95717128  1
  S2-  S204  1  0.24791755  0.60778192  0.47076333  1
  S2-  S205  1  0.25610718  0.62802297  0.95787091  1
  S2-  S206  1  0.24494863  0.85966323  0.46255984  1
  S2-  S207  1  0.25417091  0.87550786  0.92978253  1
  S2-  S208  1  0.50065554  0.10518968  0.45222000  1
  S2-  S209  1  0.50896336  0.13225670  0.94883629  1
  S2-  S210  1  0.49902443  0.35860266  0.46424495  1
  S2-  S211  1  0.50791621  0.38510828  0.94439189  1
  S2-  S212  1  0.50297495  0.60645180  0.47180951  1
  S2-  S213  1  0.51251649  0.62414340  0.95357484  1
  S2-  S214  1  0.50357041  0.85462708  0.46395061  1
  S2-  S215  1  0.50463926  0.88274329  0.94233263  1
  S2-  S216  1  0.74299900  0.10340054  0.45299236  1
  S2-  S217  1  0.75687275  0.12875611  0.95805816  1
  S2-  S218  1  0.75054387  0.36095892  0.44824661  1
  S2-  S219  1  0.75589727  0.38236314  0.96141347  1
  S2-  S220  1  0.75595488  0.60383030  0.45883330  1
  S2-  S221  1  0.75646914  0.63292910  0.96179446  1
  S2-  S222  1  0.75512203  0.86221107  0.44957271  1
  S2-  S223  1  0.75654281  0.88129947  0.95589172  1
  S2-  S224  1  0.13447583  0.00110492  0.03152313  1
  S2-  S225  1  0.12510392  -0.01504086  0.55102174  1
  S2-  S226  1  0.12939684  0.26439524  0.04732895  1
  S2-  S227  1  0.12999819  0.23458442  0.55191089  1
  S2-  S228  1  0.12534201  0.50964235  0.05214934  1
  S2-  S229  1  0.12087537  0.47954052  0.53726724  1
  S2-  S230  1  0.12851112  0.75310940  0.03024065  1
  S2-  S231  1  0.12428471  0.73495110  0.55602056  1
  S2-  S232  1  0.37683833  0.00573696  0.03808132  1
  S2-  S233  1  0.37673084  -0.01888982  0.54522410  1
  S2-  S234  1  0.38458411  0.26113495  0.04233409  1
  S2-  S235  1  0.37160589  0.23514325  0.54468494  1
  S2-  S236  1  0.38864604  0.50590965  0.04719859  1
  S2-  S237  1  0.38157511  0.48179962  0.55362000  1
  S2-  S238  1  0.38547281  0.75482449  0.02727090  1
  S2-  S239  1  0.37652060  0.73092864  0.56071295  1
  S2-  S240  1  0.62397441  0.00636472  0.04203147  1
  S2-  S241  1  0.62799969  -0.01542728  0.54474566  1
  S2-  S242  1  0.62615992  0.25456623  0.03790334  1
  S2-  S243  1  0.62842570  0.23188321  0.53964897  1
  S2-  S244  1  0.63492152  0.49995083  0.03963995  1
  S2-  S245  1  0.62871477  0.47765966  0.54663259  1
  S2-  S246  1  0.63157914  0.76205778  0.03979480  1
  S2-  S247  1  0.63025759  0.73328471  0.54694463  1
  S2-  S248  1  0.88744867  0.00654419  0.05314964  1
  S2-  S249  1  0.87440076  -0.01215013  0.54925593  1
  S2-  S250  1  0.87629185  0.25914862  0.04258071  1
  S2-  S251  1  0.87427845  0.23062053  0.53946382  1
  S2-  S252  1  0.87677120  0.50712882  0.06349177  1
  S2-  S253  1  0.87591079  0.47829533  0.54299089  1
  S2-  S254  1  0.88255347  0.76045205  0.04454428  1
  S2-  S255  1  0.87517707  0.73141640  0.55462287  1
