# generated using pymatgen
data_La9Ce10Pr6Nd4Sm3(BiS2)32
_symmetry_space_group_name_H-M   'P 1'
_cell_length_a   16.23645450
_cell_length_b   16.25652188
_cell_length_c   27.12550927
_cell_angle_alpha   90.01298943
_cell_angle_beta   89.97657860
_cell_angle_gamma   90.01359347
_symmetry_Int_Tables_number   1
_chemical_formula_structural   La9Ce10Pr6Nd4Sm3(BiS2)32
_chemical_formula_sum   'La18 Ce20 Pr12 Nd8 Sm6 Bi64 S128'
_cell_volume   7159.73047210
_cell_formula_units_Z   2
loop_
 _symmetry_equiv_pos_site_id
 _symmetry_equiv_pos_as_xyz
  1  'x, y, z'
loop_
 _atom_type_symbol
 _atom_type_oxidation_number
  La3+  3.0
  Ce3+  3.0
  Pr3+  3.0
  Nd3+  3.0
  Sm3+  3.0
  Bi2+  2.0
  S2-  -2.0
loop_
 _atom_site_type_symbol
 _atom_site_label
 _atom_site_symmetry_multiplicity
 _atom_site_fract_x
 _atom_site_fract_y
 _atom_site_fract_z
 _atom_site_occupancy
  La3+  La0  1  0.13064361  0.76146783  0.90172933  1
  La3+  La1  1  0.61989356  0.25553471  0.43639551  1
  La3+  La2  1  -0.01530181  0.36785038  0.57878057  1
  La3+  La3  1  0.87760152  0.75204274  0.92527258  1
  La3+  La4  1  0.75286516  0.37970544  0.06731133  1
  La3+  La5  1  0.25354373  0.38118036  0.06667600  1
  La3+  La6  1  0.25080978  0.63132619  0.57377931  1
  La3+  La7  1  0.62913298  0.25010524  0.93279442  1
  La3+  La8  1  0.00501572  0.87344846  0.06419785  1
  La3+  La9  1  0.00759657  0.62737381  0.04441652  1
  La3+  La10  1  0.36138344  0.75998083  0.42674365  1
  La3+  La11  1  0.49900471  0.62820666  0.11069605  1
  La3+  La12  1  0.74266020  0.62670948  0.56100876  1
  La3+  La13  1  -0.01298725  0.63366908  0.58962312  1
  La3+  La14  1  0.13884992  0.49837540  0.89230197  1
  La3+  La15  1  0.74818127  0.13191673  0.56281810  1
  La3+  La16  1  0.25584870  0.88715246  0.57831294  1
  La3+  La17  1  0.35518193  0.49509005  0.41715809  1
  Ce3+  Ce18  1  0.87390238  0.50246388  0.44412053  1
  Ce3+  Ce19  1  0.12701314  0.00039912  0.93798579  1
  Ce3+  Ce20  1  0.74679091  0.63043824  0.05721746  1
  Ce3+  Ce21  1  0.50263795  0.38138194  0.05910978  1
  Ce3+  Ce22  1  0.25547462  0.87459091  0.05844131  1
  Ce3+  Ce23  1  0.36906724  0.00522505  0.43534293  1
  Ce3+  Ce24  1  0.37604903  0.75137272  0.93719270  1
  Ce3+  Ce25  1  0.49283326  0.62830123  0.54646143  1
  Ce3+  Ce26  1  0.75262454  0.12669960  0.06071864  1
  Ce3+  Ce27  1  0.24248739  0.37896413  0.56611358  1
  Ce3+  Ce28  1  0.24698816  0.12582662  0.55860946  1
  Ce3+  Ce29  1  0.11932523  0.50547117  0.45442419  1
  Ce3+  Ce30  1  0.12737718  0.25597073  0.94328211  1
  Ce3+  Ce31  1  0.50425100  0.12798047  0.05801532  1
  Ce3+  Ce32  1  0.87900106  0.00309972  0.94352152  1
  Ce3+  Ce33  1  0.88015070  0.25522164  0.94380625  1
  Ce3+  Ce34  1  -0.00958054  0.87994675  0.56668615  1
  Ce3+  Ce35  1  0.87162348  0.75263428  0.44421973  1
  Ce3+  Ce36  1  0.37350646  0.25594964  0.94686410  1
  Ce3+  Ce37  1  0.74288291  0.87800707  0.55756846  1
  Pr3+  Pr38  1  0.11633461  0.00199385  0.44373771  1
  Pr3+  Pr39  1  0.75042574  0.87411002  0.05854359  1
  Pr3+  Pr40  1  0.61614830  0.00602444  0.43797491  1
  Pr3+  Pr41  1  0.62039138  0.75307565  0.42628701  1
  Pr3+  Pr42  1  0.87735275  0.26503518  0.42547600  1
  Pr3+  Pr43  1  0.37630944  0.00384740  0.94179949  1
  Pr3+  Pr44  1  0.50412091  0.87273377  0.55924724  1
  Pr3+  Pr45  1  -0.00922529  0.12519910  0.56041385  1
  Pr3+  Pr46  1  0.00333267  0.38029282  0.06128626  1
  Pr3+  Pr47  1  0.62639523  0.00293444  0.94010321  1
  Pr3+  Pr48  1  0.62471643  0.50240468  0.94246308  1
  Pr3+  Pr49  1  0.62797721  0.75088908  0.92787772  1
  Nd3+  Nd50  1  0.87697538  0.49932869  0.93481126  1
  Nd3+  Nd51  1  0.49695448  0.13021168  0.56168715  1
  Nd3+  Nd52  1  0.00391725  0.12851423  0.05526653  1
  Nd3+  Nd53  1  0.61711983  0.50342916  0.43502617  1
  Nd3+  Nd54  1  0.49145702  0.38188784  0.56059810  1
  Nd3+  Nd55  1  0.36570081  0.25329141  0.44419622  1
  Nd3+  Nd56  1  0.11776740  0.75515791  0.45328481  1
  Nd3+  Nd57  1  0.86047347  0.00299024  0.42846817  1
  Sm3+  Sm58  1  0.11668343  0.25291193  0.45184116  1
  Sm3+  Sm59  1  0.25346887  0.12492068  0.05537722  1
  Sm3+  Sm60  1  0.50382064  0.87145294  0.05676523  1
  Sm3+  Sm61  1  0.37461504  0.50469276  0.94030362  1
  Sm3+  Sm62  1  0.74138298  0.37926771  0.55635646  1
  Sm3+  Sm63  1  0.25673963  0.62922792  0.05495964  1
  Bi2+  Bi64  1  0.09045131  0.15687070  0.28883526  1
  Bi2+  Bi65  1  0.02416560  0.14911901  0.78983599  1
  Bi2+  Bi66  1  0.00990841  0.43013757  0.27198424  1
  Bi2+  Bi67  1  -0.01985769  0.35365106  0.80374018  1
  Bi2+  Bi68  1  -0.01455329  0.62071781  0.29037804  1
  Bi2+  Bi69  1  -0.02297745  0.62647190  0.78913198  1
  Bi2+  Bi70  1  0.01628990  0.86115423  0.31218734  1
  Bi2+  Bi71  1  -0.01070691  0.93031140  0.77710112  1
  Bi2+  Bi72  1  0.28889880  0.13352089  0.30364998  1
  Bi2+  Bi73  1  0.21398247  0.10069208  0.79034354  1
  Bi2+  Bi74  1  0.20718413  0.37847947  0.30624684  1
  Bi2+  Bi75  1  0.28037301  0.34514648  0.79747033  1
  Bi2+  Bi76  1  0.21085332  0.65015861  0.28668805  1
  Bi2+  Bi77  1  0.29189522  0.62665515  0.78116966  1
  Bi2+  Bi78  1  0.24160377  0.93182110  0.27830367  1
  Bi2+  Bi79  1  0.26405674  0.89721853  0.78888932  1
  Bi2+  Bi80  1  0.47683053  0.09454171  0.32698424  1
  Bi2+  Bi81  1  0.48732757  0.09731138  0.80288434  1
  Bi2+  Bi82  1  0.52643908  0.38246520  0.30294362  1
  Bi2+  Bi83  1  0.47493358  0.34050996  0.78398020  1
  Bi2+  Bi84  1  0.52011932  0.63953234  0.31343238  1
  Bi2+  Bi85  1  0.50965812  0.61167087  0.78249316  1
  Bi2+  Bi86  1  0.49487508  0.90499886  0.30367158  1
  Bi2+  Bi87  1  0.52813530  0.79824000  0.81030434  1
  Bi2+  Bi88  1  0.71142326  0.13702528  0.28621232  1
  Bi2+  Bi89  1  0.76724529  0.06107074  0.77629808  1
  Bi2+  Bi90  1  0.79508849  0.34786076  0.28923096  1
  Bi2+  Bi91  1  0.74397716  0.37894443  0.80097694  1
  Bi2+  Bi92  1  0.80991587  0.59093177  0.24326797  1
  Bi2+  Bi93  1  0.71256675  0.62999041  0.77682694  1
  Bi2+  Bi94  1  0.77429157  0.88809909  0.29627881  1
  Bi2+  Bi95  1  0.71326585  0.87433197  0.78653916  1
  Bi2+  Bi96  1  0.12508574  0.02491573  0.20494646  1
  Bi2+  Bi97  1  0.08675959  0.04491486  0.69459942  1
  Bi2+  Bi98  1  0.20572173  0.25316500  0.21523068  1
  Bi2+  Bi99  1  0.14314999  0.23807599  0.71501113  1
  Bi2+  Bi100  1  0.10801224  0.55674753  0.20640295  1
  Bi2+  Bi101  1  0.14561254  0.47765438  0.70000752  1
  Bi2+  Bi102  1  0.10992290  0.76910818  0.19994491  1
  Bi2+  Bi103  1  0.12269467  0.73783893  0.71829916  1
  Bi2+  Bi104  1  0.39340197  -0.00302361  0.21949225  1
  Bi2+  Bi105  1  0.36577138  0.01839083  0.71479899  1
  Bi2+  Bi106  1  0.41809990  0.25430832  0.24660626  1
  Bi2+  Bi107  1  0.33736026  0.21544123  0.71602974  1
  Bi2+  Bi108  1  0.37201235  0.49510251  0.21558475  1
  Bi2+  Bi109  1  0.42021261  0.48167638  0.71047579  1
  Bi2+  Bi110  1  0.34208212  0.74171512  0.22094898  1
  Bi2+  Bi111  1  0.38890763  0.77157306  0.70970157  1
  Bi2+  Bi112  1  0.59087363  0.01371388  0.22523101  1
  Bi2+  Bi113  1  0.56245936  -0.09070435  0.71926021  1
  Bi2+  Bi114  1  0.59167231  0.21287116  0.20770640  1
  Bi2+  Bi115  1  0.58614583  0.21713967  0.71573740  1
  Bi2+  Bi116  1  0.64004373  0.49406180  0.21148848  1
  Bi2+  Bi117  1  0.61619623  0.49069337  0.70197167  1
  Bi2+  Bi118  1  0.63868264  0.77772755  0.20604259  1
  Bi2+  Bi119  1  0.63313010  0.67800474  0.67796305  1
  Bi2+  Bi120  1  0.85423585  0.03357026  0.23101140  1
  Bi2+  Bi121  1  0.89143251  0.00659006  0.67557440  1
  Bi2+  Bi122  1  0.91647546  0.21053664  0.21044697  1
  Bi2+  Bi123  1  0.83730863  0.20960897  0.70883641  1
  Bi2+  Bi124  1  0.89044331  0.44594034  0.18076924  1
  Bi2+  Bi125  1  0.84686353  0.48217625  0.70193057  1
  Bi2+  Bi126  1  0.90026847  0.75140332  0.20662224  1
  Bi2+  Bi127  1  0.86068782  0.82965515  0.71235684  1
  S2-  S128  1  0.00503285  0.10093668  0.15348002  1
  S2-  S129  1  -0.04762677  0.21952990  0.64143177  1
  S2-  S130  1  0.00863276  0.32105747  0.15688720  1
  S2-  S131  1  0.00048523  0.41500219  0.67590166  1
  S2-  S132  1  0.00321877  0.66016624  0.14473064  1
  S2-  S133  1  0.03358695  0.60522144  0.68828161  1
  S2-  S134  1  -0.00149738  0.88118494  0.16594476  1
  S2-  S135  1  -0.00232700  0.79247734  0.65215761  1
  S2-  S136  1  0.23809590  0.11867002  0.15328153  1
  S2-  S137  1  0.24410074  0.03702171  0.64156302  1
  S2-  S138  1  0.27342561  0.39930587  0.16696492  1
  S2-  S139  1  0.29706581  0.40732130  0.65750015  1
  S2-  S140  1  0.32767330  0.62257465  0.14778217  1
  S2-  S141  1  0.23869340  0.62251490  0.67646301  1
  S2-  S142  1  0.25708016  0.83566703  0.15504828  1
  S2-  S143  1  0.23199376  0.82646093  0.67420606  1
  S2-  S144  1  0.48613765  0.10654007  0.15431267  1
  S2-  S145  1  0.47921744  0.12737754  0.66093982  1
  S2-  S146  1  0.50107678  0.45199643  0.14931130  1
  S2-  S147  1  0.55459367  0.35276421  0.65188136  1
  S2-  S148  1  0.50148490  0.62307699  0.21933933  1
  S2-  S149  1  0.47201146  0.66857906  0.64109831  1
  S2-  S150  1  0.50633955  0.79745759  0.14560165  1
  S2-  S151  1  0.41517381  0.89333339  0.64431234  1
  S2-  S152  1  0.77859716  0.13433105  0.15818838  1
  S2-  S153  1  0.69741803  0.13290786  0.66059261  1
  S2-  S154  1  0.72445138  0.37742973  0.16812143  1
  S2-  S155  1  0.78923624  0.35695675  0.65044326  1
  S2-  S156  1  0.67143507  0.63667898  0.14616839  1
  S2-  S157  1  0.83398025  0.61697796  0.64841674  1
  S2-  S158  1  0.74411981  0.86836441  0.16037792  1
  S2-  S159  1  0.64351080  0.85845445  0.63670125  1
  S2-  S160  1  0.11299733  -0.01303543  0.34280886  1
  S2-  S161  1  0.12918753  -0.08148661  0.84965543  1
  S2-  S162  1  0.08110000  0.28279601  0.35732505  1
  S2-  S163  1  0.13312002  0.32591125  0.85413696  1
  S2-  S164  1  0.19763900  0.51077873  0.36526528  1
  S2-  S165  1  0.07863346  0.47837325  0.79284992  1
  S2-  S166  1  0.13147393  0.76338388  0.35299657  1
  S2-  S167  1  0.13902451  0.64467428  0.82711523  1
  S2-  S168  1  0.34509298  -0.10027525  0.35952159  1
  S2-  S169  1  0.39736788  -0.02511414  0.84298677  1
  S2-  S170  1  0.34666189  0.33608134  0.35828426  1
  S2-  S171  1  0.38808753  0.22784448  0.85018019  1
  S2-  S172  1  0.41488334  0.51242415  0.31949816  1
  S2-  S173  1  0.30238154  0.49500988  0.84901946  1
  S2-  S174  1  0.36054466  0.70525679  0.32767391  1
  S2-  S175  1  0.29837011  0.76016561  0.84859815  1
  S2-  S176  1  0.71368515  0.00206193  0.35543881  1
  S2-  S177  1  0.63323313  0.07301922  0.84731326  1
  S2-  S178  1  0.64814749  0.28987551  0.33890600  1
  S2-  S179  1  0.62248545  0.28712973  0.83372775  1
  S2-  S180  1  0.63217483  0.51092887  0.33491228  1
  S2-  S181  1  0.66488220  0.49960496  0.84401679  1
  S2-  S182  1  0.63852904  0.77103756  0.32414692  1
  S2-  S183  1  0.74944763  0.73927910  0.85302448  1
  S2-  S184  1  0.90788599  -0.01163643  0.33066935  1
  S2-  S185  1  0.87655939  -0.01000344  0.84491034  1
  S2-  S186  1  0.85520872  0.21038373  0.32938455  1
  S2-  S187  1  0.84462081  0.26164128  0.84801557  1
  S2-  S188  1  0.88411004  0.41659605  0.35884788  1
  S2-  S189  1  0.88634181  0.49625511  0.83428141  1
  S2-  S190  1  0.87367320  0.77424653  0.34653835  1
  S2-  S191  1  0.97365551  0.76286834  0.84018792  1
  S2-  S192  1  -0.00855346  0.12870298  0.45115189  1
  S2-  S193  1  0.00429260  0.12847270  0.94847311  1
  S2-  S194  1  -0.00012223  0.37934001  0.46705757  1
  S2-  S195  1  0.00481612  0.38213342  0.95360402  1
  S2-  S196  1  -0.00529954  0.62867773  0.45960082  1
  S2-  S197  1  0.00777310  0.61926736  0.93835120  1
  S2-  S198  1  -0.00975053  0.87998135  0.45743760  1
  S2-  S199  1  0.00296676  0.87697812  0.95473234  1
  S2-  S200  1  0.24135364  0.12992737  0.45148806  1
  S2-  S201  1  0.25041805  0.12828448  0.95008043  1
  S2-  S202  1  0.23812157  0.37476971  0.46313643  1
  S2-  S203  1  0.25220530  0.38136314  0.95798688  1
  S2-  S204  1  0.24418835  0.63284339  0.46174509  1
  S2-  S205  1  0.24866915  0.62375883  0.95069639  1
  S2-  S206  1  0.23974836  0.88166280  0.46479696  1
  S2-  S207  1  0.25256541  0.87878308  0.95362259  1
  S2-  S208  1  0.49314254  0.13325684  0.45501614  1
  S2-  S209  1  0.50100125  0.12912945  0.95345510  1
  S2-  S210  1  0.49181195  0.38038183  0.45252182  1
  S2-  S211  1  0.49914152  0.37854136  0.95040540  1
  S2-  S212  1  0.48947440  0.62726312  0.43996445  1
  S2-  S213  1  0.49950359  0.62605557  0.93638851  1
  S2-  S214  1  0.49837768  0.87754507  0.45007251  1
  S2-  S215  1  0.50243658  0.87754436  0.95120574  1
  S2-  S216  1  0.74602378  0.13372631  0.45178062  1
  S2-  S217  1  0.75505490  0.12805129  0.95416890  1
  S2-  S218  1  0.74319921  0.38265289  0.45167869  1
  S2-  S219  1  0.75162973  0.37761978  0.95715960  1
  S2-  S220  1  0.74519956  0.62583990  0.44802650  1
  S2-  S221  1  0.75306863  0.62264393  0.95239547  1
  S2-  S222  1  0.74293472  0.87513179  0.45229536  1
  S2-  S223  1  0.75142431  0.88105272  0.95058553  1
  S2-  S224  1  0.12947376  0.00225112  0.04599112  1
  S2-  S225  1  0.11452755  0.00188064  0.54946357  1
  S2-  S226  1  0.13061065  0.25049622  0.04956706  1
  S2-  S227  1  0.12143673  0.24834958  0.55702487  1
  S2-  S228  1  0.13138580  0.50507010  0.05728088  1
  S2-  S229  1  0.11706046  0.50660064  0.56154511  1
  S2-  S230  1  0.13307748  0.75126934  0.04572700  1
  S2-  S231  1  0.12277511  0.75354740  0.55784617  1
  S2-  S232  1  0.37917476  0.00034062  0.04999969  1
  S2-  S233  1  0.37707441  0.00767282  0.54085884  1
  S2-  S234  1  0.37688004  0.25118043  0.05462912  1
  S2-  S235  1  0.37039187  0.25397552  0.55165208  1
  S2-  S236  1  0.38083070  0.50661987  0.04404682  1
  S2-  S237  1  0.36847690  0.50335506  0.54411004  1
  S2-  S238  1  0.38034054  0.75075698  0.04268372  1
  S2-  S239  1  0.37089783  0.75553281  0.54028918  1
  S2-  S240  1  0.62557584  -0.00045960  0.04931433  1
  S2-  S241  1  0.62037831  0.00822092  0.54491832  1
  S2-  S242  1  0.62734790  0.25334686  0.04688275  1
  S2-  S243  1  0.61965058  0.25599232  0.54432458  1
  S2-  S244  1  0.62532178  0.50420958  0.04800079  1
  S2-  S245  1  0.61794709  0.50231394  0.54325306  1
  S2-  S246  1  0.62585635  0.75375625  0.03611198  1
  S2-  S247  1  0.62102273  0.74718050  0.53285988  1
  S2-  S248  1  0.87829148  0.00114070  0.05109833  1
  S2-  S249  1  0.86571181  0.00220141  0.53932707  1
  S2-  S250  1  0.87836390  0.25240765  0.05041146  1
  S2-  S251  1  0.86269713  0.25610377  0.53492195  1
  S2-  S252  1  0.87627185  0.50524708  0.04376520  1
  S2-  S253  1  0.86936786  0.49942967  0.54834017  1
  S2-  S254  1  0.87559073  0.75158530  0.04059522  1
  S2-  S255  1  0.86667622  0.75547613  0.54922997  1
