# generated using pymatgen
data_La9Ce10Pr6Nd4Sm3(BiS2)32
_symmetry_space_group_name_H-M   'P 1'
_cell_length_a   16.12488835
_cell_length_b   16.18974235
_cell_length_c   27.28194578
_cell_angle_alpha   89.89052303
_cell_angle_beta   89.71550945
_cell_angle_gamma   89.97893406
_symmetry_Int_Tables_number   1
_chemical_formula_structural   La9Ce10Pr6Nd4Sm3(BiS2)32
_chemical_formula_sum   'La18 Ce20 Pr12 Nd8 Sm6 Bi64 S128'
_cell_volume   7122.06316215
_cell_formula_units_Z   2
loop_
 _symmetry_equiv_pos_site_id
 _symmetry_equiv_pos_as_xyz
  1  'x, y, z'
loop_
 _atom_type_symbol
 _atom_type_oxidation_number
  La3+  3.0
  Ce3+  3.0
  Pr3+  3.0
  Nd3+  3.0
  Sm3+  3.0
  Bi2+  2.0
  S2-  -2.0
loop_
 _atom_site_type_symbol
 _atom_site_label
 _atom_site_symmetry_multiplicity
 _atom_site_fract_x
 _atom_site_fract_y
 _atom_site_fract_z
 _atom_site_occupancy
  La3+  La0  1  0.09766161  0.02347496  0.88640023  1
  La3+  La1  1  0.25642096  0.87080374  0.08268760  1
  La3+  La2  1  0.00810421  0.12469633  0.07745750  1
  La3+  La3  1  0.74725782  0.62184039  0.05882553  1
  La3+  La4  1  0.24305230  0.37701009  0.07571488  1
  La3+  La5  1  -0.00965081  0.61122388  0.56437795  1
  La3+  La6  1  0.25166526  0.62026571  0.07118761  1
  La3+  La7  1  0.87887638  0.74995065  0.93684184  1
  La3+  La8  1  0.11946893  -0.01242964  0.43074382  1
  La3+  La9  1  0.12530295  0.73327177  0.41909107  1
  La3+  La10  1  0.23503632  0.85359415  0.57309801  1
  La3+  La11  1  0.62068589  0.24246650  0.42285739  1
  La3+  La12  1  0.74029201  0.12804538  0.08899917  1
  La3+  La13  1  0.62804448  0.24730513  0.93195975  1
  La3+  La14  1  -0.00187568  0.11435691  0.56490209  1
  La3+  La15  1  0.62530195  0.49367712  0.92209025  1
  La3+  La16  1  0.12669112  0.48923621  0.42872170  1
  La3+  La17  1  0.88462208  0.49603379  0.88505684  1
  Ce3+  Ce18  1  0.24330957  0.10279854  0.56153353  1
  Ce3+  Ce19  1  0.00014505  0.87399600  0.06732927  1
  Ce3+  Ce20  1  0.50070287  0.62306052  0.05316762  1
  Ce3+  Ce21  1  0.74388742  0.11099107  0.55651482  1
  Ce3+  Ce22  1  0.36894107  0.72994619  0.44476417  1
  Ce3+  Ce23  1  -0.00336369  0.37642566  0.06017815  1
  Ce3+  Ce24  1  0.37523441  0.50278160  0.93293739  1
  Ce3+  Ce25  1  0.87733735  0.00438155  0.95545687  1
  Ce3+  Ce26  1  0.49228481  0.10925619  0.55105374  1
  Ce3+  Ce27  1  0.24839625  0.12060176  0.05720141  1
  Ce3+  Ce28  1  0.49721751  0.12434503  0.05789392  1
  Ce3+  Ce29  1  0.74444561  0.85857198  0.55550017  1
  Ce3+  Ce30  1  0.49920728  0.60890179  0.57430453  1
  Ce3+  Ce31  1  0.73896597  0.37320432  0.06720150  1
  Ce3+  Ce32  1  0.61564472  0.72771870  0.44267154  1
  Ce3+  Ce33  1  0.12748270  0.50393060  0.93930525  1
  Ce3+  Ce34  1  0.24369363  0.35644453  0.55460156  1
  Ce3+  Ce35  1  0.86991155  -0.01647393  0.43492261  1
  Ce3+  Ce36  1  0.36919162  0.48633639  0.44973134  1
  Ce3+  Ce37  1  0.49289665  0.35330131  0.56547969  1
  Pr3+  Pr38  1  0.49365406  0.85778137  0.55709056  1
  Pr3+  Pr39  1  0.23691649  0.60480165  0.57462626  1
  Pr3+  Pr40  1  0.62162497  -0.01778099  0.43757668  1
  Pr3+  Pr41  1  0.62179357  0.00166971  0.93273167  1
  Pr3+  Pr42  1  0.74845208  0.87690819  0.05662123  1
  Pr3+  Pr43  1  0.85920466  0.72177685  0.42309140  1
  Pr3+  Pr44  1  0.87730639  0.25178775  0.94442985  1
  Pr3+  Pr45  1  0.73585755  0.34738440  0.58516539  1
  Pr3+  Pr46  1  0.37119670  0.23446046  0.43173566  1
  Pr3+  Pr47  1  0.36675783  -0.01810927  0.43442370  1
  Pr3+  Pr48  1  0.36565245  -0.00549828  0.92788134  1
  Pr3+  Pr49  1  0.86552877  0.48494262  0.44595493  1
  Nd3+  Nd50  1  0.12394194  0.25666341  0.94112767  1
  Nd3+  Nd51  1  0.11135682  0.23833480  0.42743924  1
  Nd3+  Nd52  1  -0.00696651  0.85621054  0.54738154  1
  Nd3+  Nd53  1  0.86675708  0.23509341  0.43157599  1
  Nd3+  Nd54  1  -0.00700707  0.36004313  0.55689887  1
  Nd3+  Nd55  1  0.62719528  0.75057350  0.93343098  1
  Nd3+  Nd56  1  0.37264509  0.75330845  0.94109701  1
  Nd3+  Nd57  1  0.36883676  0.24913115  0.94402422  1
  Sm3+  Sm58  1  0.49998329  0.37471242  0.05263136  1
  Sm3+  Sm59  1  0.74367322  0.60992936  0.57301136  1
  Sm3+  Sm60  1  0.13006577  0.76077600  0.94888913  1
  Sm3+  Sm61  1  0.62002517  0.48265708  0.45099254  1
  Sm3+  Sm62  1  0.50194127  0.87693849  0.05819706  1
  Sm3+  Sm63  1  -0.00129437  0.62419225  0.05896258  1
  Bi2+  Bi64  1  0.00563106  0.15663506  0.28661483  1
  Bi2+  Bi65  1  -0.13458263  0.17551903  0.79744802  1
  Bi2+  Bi66  1  0.03921508  0.40023502  0.28540166  1
  Bi2+  Bi67  1  0.11944671  0.33290706  0.80110171  1
  Bi2+  Bi68  1  -0.03734652  0.59847480  0.28583322  1
  Bi2+  Bi69  1  0.11805710  0.63477940  0.80543237  1
  Bi2+  Bi70  1  -0.01177997  0.91399081  0.29696978  1
  Bi2+  Bi71  1  -0.02380733  0.86904374  0.80188239  1
  Bi2+  Bi72  1  0.31074915  0.19304942  0.30460167  1
  Bi2+  Bi73  1  0.33714296  0.13923041  0.76767775  1
  Bi2+  Bi74  1  0.23927029  0.38923980  0.29092578  1
  Bi2+  Bi75  1  0.25462276  0.46530660  0.82587417  1
  Bi2+  Bi76  1  0.23665114  0.61510918  0.29188589  1
  Bi2+  Bi77  1  0.30746211  0.66254318  0.82451608  1
  Bi2+  Bi78  1  0.24968462  0.87422592  0.29539614  1
  Bi2+  Bi79  1  0.23453913  0.90273127  0.79125153  1
  Bi2+  Bi80  1  0.52216089  0.13452561  0.27693871  1
  Bi2+  Bi81  1  0.51673048  0.19630572  0.81009451  1
  Bi2+  Bi82  1  0.44042395  0.35636787  0.27328375  1
  Bi2+  Bi83  1  0.42180410  0.39966308  0.77371846  1
  Bi2+  Bi84  1  0.49423551  0.66312145  0.33604019  1
  Bi2+  Bi85  1  0.49276822  0.63553221  0.78618414  1
  Bi2+  Bi86  1  0.50040702  0.82642417  0.27553228  1
  Bi2+  Bi87  1  0.48960559  0.90353287  0.79041529  1
  Bi2+  Bi88  1  0.75885797  0.11197741  0.28494205  1
  Bi2+  Bi89  1  0.69128435  0.09964774  0.82025268  1
  Bi2+  Bi90  1  0.73872768  0.37245220  0.28740685  1
  Bi2+  Bi91  1  0.74895669  0.37723774  0.77969007  1
  Bi2+  Bi92  1  0.67500995  0.57657603  0.31771457  1
  Bi2+  Bi93  1  0.78355323  0.63732891  0.77959128  1
  Bi2+  Bi94  1  0.68067517  0.88274469  0.30019349  1
  Bi2+  Bi95  1  0.69358035  0.89093773  0.80873276  1
  Bi2+  Bi96  1  0.09505679  0.01625490  0.20143953  1
  Bi2+  Bi97  1  0.09448275  -0.00372232  0.68191381  1
  Bi2+  Bi98  1  0.18478067  0.27081594  0.20768752  1
  Bi2+  Bi99  1  0.19408261  0.23731735  0.71629391  1
  Bi2+  Bi100  1  0.14591850  0.51324052  0.19827364  1
  Bi2+  Bi101  1  0.20283599  0.53196258  0.71848849  1
  Bi2+  Bi102  1  0.10779543  0.76207859  0.20120703  1
  Bi2+  Bi103  1  0.04707301  0.74799688  0.72333130  1
  Bi2+  Bi104  1  0.36583558  0.04905450  0.23498636  1
  Bi2+  Bi105  1  0.40655435  0.00125171  0.70140715  1
  Bi2+  Bi106  1  0.38329756  0.23057983  0.19056402  1
  Bi2+  Bi107  1  0.36408385  0.30329045  0.68131462  1
  Bi2+  Bi108  1  0.48303916  0.54009999  0.24830657  1
  Bi2+  Bi109  1  0.39560608  0.56758542  0.68874926  1
  Bi2+  Bi110  1  0.37145918  0.70080767  0.22362971  1
  Bi2+  Bi111  1  0.35134080  0.75585197  0.71906901  1
  Bi2+  Bi112  1  0.58859737  -0.02724632  0.19093838  1
  Bi2+  Bi113  1  0.62543211  0.00039497  0.71928758  1
  Bi2+  Bi114  1  0.61075608  0.26816132  0.20516981  1
  Bi2+  Bi115  1  0.60578843  0.21140792  0.70841139  1
  Bi2+  Bi116  1  0.67883680  0.49706968  0.20318628  1
  Bi2+  Bi117  1  0.56885786  0.49040566  0.71591080  1
  Bi2+  Bi118  1  0.62310851  0.71733729  0.20458155  1
  Bi2+  Bi119  1  0.60422048  0.75041194  0.70856298  1
  Bi2+  Bi120  1  0.81927834  -0.09676705  0.21488672  1
  Bi2+  Bi121  1  0.82432473  0.01174523  0.73046751  1
  Bi2+  Bi122  1  0.89054350  0.27029181  0.21994739  1
  Bi2+  Bi123  1  0.88845651  0.24132964  0.69091338  1
  Bi2+  Bi124  1  0.88214379  0.46240564  0.22044649  1
  Bi2+  Bi125  1  0.94680536  0.49572458  0.68745609  1
  Bi2+  Bi126  1  0.82656630  0.72203721  0.24759024  1
  Bi2+  Bi127  1  0.86094546  0.81570568  0.71721857  1
  S2-  S128  1  -0.03614546  0.13592378  0.17820589  1
  S2-  S129  1  -0.06305094  0.06965883  0.65865780  1
  S2-  S130  1  0.09295064  0.37325245  0.14360716  1
  S2-  S131  1  0.00897408  0.33446616  0.65608776  1
  S2-  S132  1  0.03247268  0.63845737  0.15767210  1
  S2-  S133  1  0.09360780  0.58165843  0.64529720  1
  S2-  S134  1  -0.00798702  0.88188083  0.16711497  1
  S2-  S135  1  0.06190971  0.84412684  0.63928355  1
  S2-  S136  1  0.16918902  0.13674932  0.14528834  1
  S2-  S137  1  0.13497369  0.14479125  0.63556210  1
  S2-  S138  1  0.28154952  0.49773119  0.14701133  1
  S2-  S139  1  0.23384812  0.40215319  0.64955138  1
  S2-  S140  1  0.25707608  0.72882534  0.15096165  1
  S2-  S141  1  0.24952388  0.73038741  0.64723096  1
  S2-  S142  1  0.21805873  0.91980275  0.18287368  1
  S2-  S143  1  0.25949147  0.97882472  0.64527720  1
  S2-  S144  1  0.58070197  0.12745603  0.14275971  1
  S2-  S145  1  0.48345239  0.13109624  0.64812626  1
  S2-  S146  1  0.59169705  0.39564287  0.13585052  1
  S2-  S147  1  0.58737139  0.35405674  0.64867551  1
  S2-  S148  1  0.49684507  0.63828680  0.15176898  1
  S2-  S149  1  0.62432171  0.61213626  0.64737650  1
  S2-  S150  1  0.45886812  0.89829835  0.15284742  1
  S2-  S151  1  0.48607309  0.81512352  0.65555277  1
  S2-  S152  1  0.76087881  0.04905986  0.18397873  1
  S2-  S153  1  0.73847956  0.19300705  0.64269083  1
  S2-  S154  1  0.75768425  0.26979477  0.14920451  1
  S2-  S155  1  0.80452123  0.39189292  0.67700969  1
  S2-  S156  1  0.76095097  0.63938625  0.15995796  1
  S2-  S157  1  0.86550283  0.61882142  0.64450802  1
  S2-  S158  1  0.68923829  0.84934948  0.14942406  1
  S2-  S159  1  0.72944799  0.82491282  0.65110568  1
  S2-  S160  1  0.14333547  -0.02230428  0.33082346  1
  S2-  S161  1  0.09224807  0.00277830  0.77748799  1
  S2-  S162  1  0.14879652  0.17609551  0.33673009  1
  S2-  S163  1  0.08161661  0.19592440  0.85112160  1
  S2-  S164  1  0.09738817  0.60004779  0.35188946  1
  S2-  S165  1  0.05325918  0.48344369  0.85091528  1
  S2-  S166  1  0.09666360  0.79143209  0.30578094  1
  S2-  S167  1  0.12236723  0.84709812  0.86275383  1
  S2-  S168  1  0.37162943  -0.02343070  0.33334143  1
  S2-  S169  1  0.26333822  0.03395765  0.84531042  1
  S2-  S170  1  0.48915155  0.24639983  0.35330194  1
  S2-  S171  1  0.36354299  0.26128143  0.84481732  1
  S2-  S172  1  0.28971778  0.50236498  0.36300145  1
  S2-  S173  1  0.48525845  0.50223440  0.85411099  1
  S2-  S174  1  0.27976861  0.74170412  0.36086740  1
  S2-  S175  1  0.35985812  0.84888349  0.85666823  1
  S2-  S176  1  0.63173590  0.03772019  0.34167669  1
  S2-  S177  1  0.49937367  0.02172266  0.85735819  1
  S2-  S178  1  0.75210396  0.22909455  0.35151736  1
  S2-  S179  1  0.63286625  0.32873230  0.84142170  1
  S2-  S180  1  0.62538414  0.42322523  0.35793966  1
  S2-  S181  1  0.72476347  0.51518868  0.83964050  1
  S2-  S182  1  0.70242612  0.73619201  0.35945197  1
  S2-  S183  1  0.65914368  0.72886684  0.83510280  1
  S2-  S184  1  0.88765185  0.04464541  0.34169532  1
  S2-  S185  1  0.92552574  -0.00357356  0.86167025  1
  S2-  S186  1  0.97109504  0.27473326  0.35084689  1
  S2-  S187  1  0.86670437  0.32205650  0.85029852  1
  S2-  S188  1  0.85187855  0.57226792  0.35827133  1
  S2-  S189  1  0.88658096  0.49633009  0.77553404  1
  S2-  S190  1  0.89355758  0.79883046  0.33248226  1
  S2-  S191  1  0.89060175  0.66945279  0.84752460  1
  S2-  S192  1  -0.00724871  0.11137674  0.45232535  1
  S2-  S193  1  0.00265239  0.12552998  0.96404750  1
  S2-  S194  1  -0.00496446  0.36682350  0.45226001  1
  S2-  S195  1  -0.00191463  0.38040601  0.95583502  1
  S2-  S196  1  -0.00903336  0.61050844  0.45610112  1
  S2-  S197  1  0.00694197  0.63046851  0.95536215  1
  S2-  S198  1  -0.00489059  0.85633137  0.44211157  1
  S2-  S199  1  -0.00089533  0.87698575  0.96290107  1
  S2-  S200  1  0.24530901  0.11115829  0.45035021  1
  S2-  S201  1  0.24323382  0.12606865  0.95361925  1
  S2-  S202  1  0.24484144  0.35459797  0.44772542  1
  S2-  S203  1  0.24940766  0.37760536  0.95947902  1
  S2-  S204  1  0.24653576  0.61026988  0.46504212  1
  S2-  S205  1  0.24890066  0.62871689  0.95831814  1
  S2-  S206  1  0.24249795  0.86095962  0.45757735  1
  S2-  S207  1  0.25492986  0.87120096  0.96945463  1
  S2-  S208  1  0.49465690  0.10542954  0.44646722  1
  S2-  S209  1  0.49501337  0.12767383  0.95512207  1
  S2-  S210  1  0.49165637  0.36250518  0.45931584  1
  S2-  S211  1  0.49543848  0.36956881  0.95075840  1
  S2-  S212  1  0.49550372  0.60377444  0.46548797  1
  S2-  S213  1  0.50173549  0.63017474  0.94850648  1
  S2-  S214  1  0.49460514  0.85807929  0.44862352  1
  S2-  S215  1  0.50314473  0.87351901  0.95339905  1
  S2-  S216  1  0.74508611  0.10734557  0.45299269  1
  S2-  S217  1  0.75181085  0.12358267  0.95544057  1
  S2-  S218  1  0.74446505  0.35921268  0.45923693  1
  S2-  S219  1  0.75158919  0.37576103  0.95741285  1
  S2-  S220  1  0.73813621  0.60580780  0.46654599  1
  S2-  S221  1  0.75155388  0.62709783  0.95119823  1
  S2-  S222  1  0.74620356  0.85881885  0.45143362  1
  S2-  S223  1  0.75102198  0.87696124  0.94970615  1
  S2-  S224  1  0.12690074  -0.00664276  0.06024652  1
  S2-  S225  1  0.11602758  -0.01572532  0.53852633  1
  S2-  S226  1  0.12469577  0.25075105  0.04508163  1
  S2-  S227  1  0.11964852  0.23935703  0.53410777  1
  S2-  S228  1  0.12088577  0.50336620  0.04535970  1
  S2-  S229  1  0.11925482  0.47996076  0.53798674  1
  S2-  S230  1  0.12197846  0.74918439  0.05187451  1
  S2-  S231  1  0.11609766  0.73124097  0.53580525  1
  S2-  S232  1  0.37535672  -0.00052023  0.04660153  1
  S2-  S233  1  0.37069395  -0.01904237  0.54113661  1
  S2-  S234  1  0.37201368  0.25329446  0.05046953  1
  S2-  S235  1  0.36616171  0.23084970  0.54106228  1
  S2-  S236  1  0.37901785  0.49747609  0.04038401  1
  S2-  S237  1  0.37135276  0.48241464  0.55369507  1
  S2-  S238  1  0.38192020  0.75004157  0.04742199  1
  S2-  S239  1  0.37287520  0.72947613  0.54868799  1
  S2-  S240  1  0.62430133  0.00109779  0.04157193  1
  S2-  S241  1  0.61836439  -0.01570004  0.54691674  1
  S2-  S242  1  0.62100344  0.24830143  0.04001209  1
  S2-  S243  1  0.61584532  0.23124599  0.53774008  1
  S2-  S244  1  0.62104000  0.50080775  0.03372278  1
  S2-  S245  1  0.62107532  0.47953710  0.55233972  1
  S2-  S246  1  0.62293214  0.75140225  0.04117085  1
  S2-  S247  1  0.62013950  0.73451898  0.54650611  1
  S2-  S248  1  0.87255356  0.00324278  0.06166636  1
  S2-  S249  1  0.86889338  -0.01637314  0.54280914  1
  S2-  S250  1  0.87643134  0.24754377  0.05149821  1
  S2-  S251  1  0.86871428  0.23593913  0.54200201  1
  S2-  S252  1  0.87428370  0.49922056  0.06362271  1
  S2-  S253  1  0.86168349  0.47740234  0.55122977  1
  S2-  S254  1  0.87414854  0.74901609  0.04902131  1
  S2-  S255  1  0.86474470  0.73627857  0.53875933  1
