# generated using pymatgen
data_La9Ce10Pr6Nd4Sm3(BiS2)32
_symmetry_space_group_name_H-M   'P 1'
_cell_length_a   16.11090764
_cell_length_b   16.14734936
_cell_length_c   27.15121087
_cell_angle_alpha   90.03681297
_cell_angle_beta   89.96135460
_cell_angle_gamma   89.91759327
_symmetry_Int_Tables_number   1
_chemical_formula_structural   La9Ce10Pr6Nd4Sm3(BiS2)32
_chemical_formula_sum   'La18 Ce20 Pr12 Nd8 Sm6 Bi64 S128'
_cell_volume   7063.33516226
_cell_formula_units_Z   2
loop_
 _symmetry_equiv_pos_site_id
 _symmetry_equiv_pos_as_xyz
  1  'x, y, z'
loop_
 _atom_type_symbol
 _atom_type_oxidation_number
  La3+  3.0
  Ce3+  3.0
  Pr3+  3.0
  Nd3+  3.0
  Sm3+  3.0
  Bi2+  2.0
  S2-  -2.0
loop_
 _atom_site_type_symbol
 _atom_site_label
 _atom_site_symmetry_multiplicity
 _atom_site_fract_x
 _atom_site_fract_y
 _atom_site_fract_z
 _atom_site_occupancy
  La3+  La0  1  0.39716301  0.01651598  0.41103265  1
  La3+  La1  1  0.38161347  0.77501011  0.42826745  1
  La3+  La2  1  0.25366339  0.87857036  0.08157354  1
  La3+  La3  1  0.75289279  0.38207015  0.07694545  1
  La3+  La4  1  0.50171580  0.38700028  0.07881115  1
  La3+  La5  1  0.37102712  0.01488456  0.93964526  1
  La3+  La6  1  0.39471702  0.27557533  0.40339926  1
  La3+  La7  1  0.38967946  0.52467401  0.42287633  1
  La3+  La8  1  0.37041405  0.25630409  0.93350989  1
  La3+  La9  1  0.00095306  0.12977054  0.06313707  1
  La3+  La10  1  0.62643581  0.50418289  0.93184181  1
  La3+  La11  1  -0.01016022  0.63208696  0.07064785  1
  La3+  La12  1  0.24565607  0.14027345  0.07812734  1
  La3+  La13  1  0.76656291  0.89332821  0.58671422  1
  La3+  La14  1  0.26951606  0.90721664  0.57057779  1
  La3+  La15  1  0.13562713  0.77573939  0.43347723  1
  La3+  La16  1  0.74058882  0.63946606  0.07153132  1
  La3+  La17  1  0.37446143  0.50416439  0.91607203  1
  Ce3+  Ce18  1  0.64579927  0.52892389  0.43042698  1
  Ce3+  Ce19  1  0.01537098  0.38751036  0.56160053  1
  Ce3+  Ce20  1  0.25162980  0.62853482  0.05846121  1
  Ce3+  Ce21  1  0.49109298  0.13742779  0.08045162  1
  Ce3+  Ce22  1  0.75896666  0.39650136  0.56621797  1
  Ce3+  Ce23  1  0.87255560  0.76002530  0.93062794  1
  Ce3+  Ce24  1  0.13739153  0.51870341  0.44854068  1
  Ce3+  Ce25  1  0.64560320  0.76876221  0.44233898  1
  Ce3+  Ce26  1  0.37108321  0.76049387  0.94025409  1
  Ce3+  Ce27  1  -0.00798497  0.38551072  0.05268832  1
  Ce3+  Ce28  1  0.62435664  0.76257308  0.93813550  1
  Ce3+  Ce29  1  0.12120907  0.25857409  0.93989392  1
  Ce3+  Ce30  1  0.87790347  0.00778864  0.92147737  1
  Ce3+  Ce31  1  0.51435563  0.64633339  0.55463651  1
  Ce3+  Ce32  1  0.27022805  0.14445932  0.53994385  1
  Ce3+  Ce33  1  0.86923672  0.51702312  0.92903994  1
  Ce3+  Ce34  1  -0.00061495  0.88287540  0.05207630  1
  Ce3+  Ce35  1  0.12478428  0.75868654  0.94687251  1
  Ce3+  Ce36  1  0.62413608  0.01076790  0.94880082  1
  Ce3+  Ce37  1  0.88600570  0.26926698  0.43797328  1
  Pr3+  Pr38  1  0.64291135  0.02070815  0.43950260  1
  Pr3+  Pr39  1  0.75872604  0.14988940  0.57058774  1
  Pr3+  Pr40  1  0.12592927  0.02237128  0.42876818  1
  Pr3+  Pr41  1  0.01806309  0.64962939  0.56736981  1
  Pr3+  Pr42  1  0.75204458  0.13412653  0.06431563  1
  Pr3+  Pr43  1  0.89088544  0.77117577  0.43990817  1
  Pr3+  Pr44  1  0.01947828  0.90246304  0.57879195  1
  Pr3+  Pr45  1  0.26901202  0.64669218  0.56039122  1
  Pr3+  Pr46  1  0.76544145  0.64181719  0.57422383  1
  Pr3+  Pr47  1  0.01696911  0.14938731  0.56734244  1
  Pr3+  Pr48  1  0.49689392  0.63160591  0.05372078  1
  Pr3+  Pr49  1  0.49782492  0.88634744  0.06290350  1
  Nd3+  Nd50  1  0.64582360  0.28012074  0.41820972  1
  Nd3+  Nd51  1  0.12770191  0.00713222  0.93386341  1
  Nd3+  Nd52  1  0.75477197  0.88629840  0.06321769  1
  Nd3+  Nd53  1  0.13918446  0.27128397  0.43140844  1
  Nd3+  Nd54  1  0.86815306  0.25297714  0.93106381  1
  Nd3+  Nd55  1  0.25545741  0.38701345  0.06421590  1
  Nd3+  Nd56  1  0.12352844  0.50948551  0.93828548  1
  Nd3+  Nd57  1  0.27003633  0.39317442  0.55165421  1
  Sm3+  Sm58  1  0.51323026  0.14960923  0.54539828  1
  Sm3+  Sm59  1  0.88526001  0.01838446  0.44948479  1
  Sm3+  Sm60  1  0.51449165  0.39631497  0.54764305  1
  Sm3+  Sm61  1  0.62109791  0.25705011  0.94965554  1
  Sm3+  Sm62  1  0.51215399  0.89861672  0.55608409  1
  Sm3+  Sm63  1  0.89032609  0.52199019  0.44903737  1
  Bi2+  Bi64  1  -0.06661862  0.07476436  0.27455511  1
  Bi2+  Bi65  1  -0.01075159  0.14059089  0.78638110  1
  Bi2+  Bi66  1  -0.03607037  0.35596211  0.29752751  1
  Bi2+  Bi67  1  -0.00512576  0.32541490  0.82927814  1
  Bi2+  Bi68  1  0.00434085  0.62208184  0.30275147  1
  Bi2+  Bi69  1  -0.00581023  0.52320825  0.80977180  1
  Bi2+  Bi70  1  -0.08905139  0.85080117  0.28674073  1
  Bi2+  Bi71  1  -0.01361077  0.87491148  0.79083947  1
  Bi2+  Bi72  1  0.18930734  0.12321149  0.29900516  1
  Bi2+  Bi73  1  0.29337542  0.12189153  0.79768385  1
  Bi2+  Bi74  1  0.17507485  0.37547804  0.29931310  1
  Bi2+  Bi75  1  0.25660955  0.37247780  0.79007020  1
  Bi2+  Bi76  1  0.25490637  0.63097185  0.29125513  1
  Bi2+  Bi77  1  0.21628954  0.58027386  0.76158729  1
  Bi2+  Bi78  1  0.29137602  0.89425392  0.28429105  1
  Bi2+  Bi79  1  0.19200399  0.86385856  0.80191380  1
  Bi2+  Bi80  1  0.49938246  0.12079818  0.27376579  1
  Bi2+  Bi81  1  0.53349365  0.06672736  0.72663451  1
  Bi2+  Bi82  1  0.53256522  0.38803325  0.27906336  1
  Bi2+  Bi83  1  0.50097516  0.25421840  0.79983456  1
  Bi2+  Bi84  1  0.45261943  0.61517310  0.30008042  1
  Bi2+  Bi85  1  0.47111557  0.62766627  0.78000517  1
  Bi2+  Bi86  1  0.56431140  0.88469895  0.28693779  1
  Bi2+  Bi87  1  0.45076902  0.83028888  0.78472210  1
  Bi2+  Bi88  1  0.74818394  0.07620890  0.31341954  1
  Bi2+  Bi89  1  0.71576930  0.08975379  0.77514589  1
  Bi2+  Bi90  1  0.76479034  0.34988076  0.27810078  1
  Bi2+  Bi91  1  0.79434988  0.34159396  0.80355894  1
  Bi2+  Bi92  1  0.78207518  0.69877650  0.30333007  1
  Bi2+  Bi93  1  0.74672026  0.61915675  0.79235242  1
  Bi2+  Bi94  1  0.76141483  0.89050941  0.35620670  1
  Bi2+  Bi95  1  0.70342720  0.88024257  0.79073925  1
  Bi2+  Bi96  1  0.08148604  -0.01153114  0.21504970  1
  Bi2+  Bi97  1  0.14214356  -0.00238256  0.70774171  1
  Bi2+  Bi98  1  0.09634692  0.25924521  0.20565812  1
  Bi2+  Bi99  1  0.16008966  0.20892284  0.72967231  1
  Bi2+  Bi100  1  0.07413695  0.46292305  0.21807257  1
  Bi2+  Bi101  1  0.07421433  0.39852103  0.72918530  1
  Bi2+  Bi102  1  0.15870260  0.74566304  0.21716099  1
  Bi2+  Bi103  1  0.05093642  0.68162632  0.74489009  1
  Bi2+  Bi104  1  0.50678772  -0.01559872  0.18999896  1
  Bi2+  Bi105  1  0.34874177  -0.01741977  0.71431724  1
  Bi2+  Bi106  1  0.36201370  0.24618272  0.20794053  1
  Bi2+  Bi107  1  0.34084363  0.22688483  0.68424889  1
  Bi2+  Bi108  1  0.35409826  0.48986645  0.23194262  1
  Bi2+  Bi109  1  0.38931999  0.50515074  0.68096006  1
  Bi2+  Bi110  1  0.42226566  0.71585886  0.20370755  1
  Bi2+  Bi111  1  0.29283738  0.75536419  0.72813427  1
  Bi2+  Bi112  1  0.70111294  -0.01140185  0.20517910  1
  Bi2+  Bi113  1  0.57426079  -0.11864490  0.70147002  1
  Bi2+  Bi114  1  0.67043219  0.18632633  0.22859811  1
  Bi2+  Bi115  1  0.62991009  0.24233983  0.71256386  1
  Bi2+  Bi116  1  0.61284321  0.53616790  0.22260383  1
  Bi2+  Bi117  1  0.55799057  0.45078045  0.75072884  1
  Bi2+  Bi118  1  0.64429157  0.74674151  0.22401743  1
  Bi2+  Bi119  1  0.62727711  0.61457229  0.69767924  1
  Bi2+  Bi120  1  0.87144801  0.03220306  0.15829517  1
  Bi2+  Bi121  1  0.86927306  0.01215180  0.71317718  1
  Bi2+  Bi122  1  0.90600100  0.21912599  0.19282978  1
  Bi2+  Bi123  1  0.89225320  0.27722826  0.71117253  1
  Bi2+  Bi124  1  0.87463482  0.48164475  0.22156216  1
  Bi2+  Bi125  1  0.85286754  0.47410598  0.72495489  1
  Bi2+  Bi126  1  0.89997766  0.74351484  0.19281730  1
  Bi2+  Bi127  1  0.85388650  0.74178654  0.71907619  1
  S2-  S128  1  0.10818114  0.11290337  0.14718539  1
  S2-  S129  1  0.01589245  0.04653580  0.65037372  1
  S2-  S130  1  -0.09425870  0.38398297  0.13825004  1
  S2-  S131  1  0.02018296  0.28164183  0.63971309  1
  S2-  S132  1  0.05375522  0.66043745  0.16772109  1
  S2-  S133  1  -0.03826110  0.63600868  0.66347136  1
  S2-  S134  1  -0.01727924  0.88594356  0.15032308  1
  S2-  S135  1  -0.09722318  0.87015796  0.65784517  1
  S2-  S136  1  0.36164237  0.10734892  0.15694921  1
  S2-  S137  1  0.27707258  0.08455289  0.63251506  1
  S2-  S138  1  0.23532971  0.28526980  0.14804199  1
  S2-  S139  1  0.28468990  0.37777704  0.65173294  1
  S2-  S140  1  0.27871607  0.67441657  0.15339177  1
  S2-  S141  1  0.24118805  0.63866485  0.66028282  1
  S2-  S142  1  0.21328848  0.90875752  0.18221317  1
  S2-  S143  1  0.15358038  0.87228705  0.64699971  1
  S2-  S144  1  0.49619862  0.25832840  0.15511674  1
  S2-  S145  1  0.50205809  0.17912144  0.64439441  1
  S2-  S146  1  0.36863000  0.45117685  0.13994217  1
  S2-  S147  1  0.51382161  0.41693763  0.64847035  1
  S2-  S148  1  0.56950636  0.64650969  0.14652958  1
  S2-  S149  1  0.47463549  0.65075607  0.65025780  1
  S2-  S150  1  0.40843065  0.85748934  0.14898566  1
  S2-  S151  1  0.41256692  0.89647944  0.63763813  1
  S2-  S152  1  0.75071991  0.24043079  0.14648656  1
  S2-  S153  1  0.74857252  0.03520937  0.65110825  1
  S2-  S154  1  0.63326425  0.43138642  0.15232521  1
  S2-  S155  1  0.74824185  0.27899337  0.64245062  1
  S2-  S156  1  0.85473370  0.60177665  0.14586152  1
  S2-  S157  1  0.74845573  0.50985779  0.64450391  1
  S2-  S158  1  0.75129869  0.78443754  0.14501231  1
  S2-  S159  1  0.72905623  0.75175434  0.65359371  1
  S2-  S160  1  0.16375221  -0.03487004  0.33177487  1
  S2-  S161  1  0.03383316  0.01162674  0.84589222  1
  S2-  S162  1  0.06583412  0.23300869  0.34302761  1
  S2-  S163  1  0.21318179  0.24433510  0.85742792  1
  S2-  S164  1  0.13684335  0.53192860  0.35060238  1
  S2-  S165  1  0.22381326  0.51009426  0.85390574  1
  S2-  S166  1  0.24541862  0.76569774  0.35123168  1
  S2-  S167  1  0.09827750  0.74708897  0.84844890  1
  S2-  S168  1  0.33951164  0.05679387  0.31197878  1
  S2-  S169  1  0.25666529  -0.01115289  0.86095562  1
  S2-  S170  1  0.29101155  0.26071836  0.31560481  1
  S2-  S171  1  0.42289513  0.13137951  0.86299921  1
  S2-  S172  1  0.40508692  0.42668213  0.33893537  1
  S2-  S173  1  0.38592300  0.36315516  0.84881833  1
  S2-  S174  1  0.41818913  0.86928376  0.34409632  1
  S2-  S175  1  0.35469629  0.72426623  0.84405997  1
  S2-  S176  1  0.55444279  0.02477265  0.34926622  1
  S2-  S177  1  0.63266789  0.00380908  0.84913352  1
  S2-  S178  1  0.53281014  0.25134063  0.33865156  1
  S2-  S179  1  0.64382320  0.26511460  0.84959061  1
  S2-  S180  1  0.66016821  0.42829652  0.34882394  1
  S2-  S181  1  0.51772851  0.51809604  0.84771914  1
  S2-  S182  1  0.65155484  0.66191309  0.36332798  1
  S2-  S183  1  0.64715531  0.74330666  0.84039743  1
  S2-  S184  1  0.97483105  0.02436090  0.36554297  1
  S2-  S185  1  0.85470592  -0.12281164  0.85154585  1
  S2-  S186  1  0.78617398  0.24097109  0.35738712  1
  S2-  S187  1  0.85489852  0.13268602  0.85388471  1
  S2-  S188  1  0.87857611  0.56575630  0.35229295  1
  S2-  S189  1  0.74936713  0.48407998  0.85661316  1
  S2-  S190  1  1.00853567  0.76618253  0.35921648  1
  S2-  S191  1  0.88332412  0.64632989  0.85646495  1
  S2-  S192  1  0.01015448  0.15182045  0.45972828  1
  S2-  S193  1  0.00151692  0.13297591  0.95338406  1
  S2-  S194  1  0.01248929  0.39482641  0.45315810  1
  S2-  S195  1  -0.00594463  0.38672755  0.94803043  1
  S2-  S196  1  0.01453611  0.64222382  0.46101869  1
  S2-  S197  1  0.00255804  0.63394055  0.95997057  1
  S2-  S198  1  0.00983709  0.89714319  0.46639309  1
  S2-  S199  1  0.00168065  0.88275474  0.94872893  1
  S2-  S200  1  0.26566053  0.14735179  0.43454070  1
  S2-  S201  1  0.24191664  0.13446464  0.96461281  1
  S2-  S202  1  0.26503412  0.39460891  0.44406376  1
  S2-  S203  1  0.24367213  0.38384115  0.95795426  1
  S2-  S204  1  0.26198146  0.64182796  0.45313471  1
  S2-  S205  1  0.24804837  0.63393296  0.95333747  1
  S2-  S206  1  0.26201484  0.90483259  0.45258972  1
  S2-  S207  1  0.24842676  0.87928115  0.96369716  1
  S2-  S208  1  0.51696572  0.15172821  0.44358087  1
  S2-  S209  1  0.50370102  0.13211419  0.97056951  1
  S2-  S210  1  0.51717971  0.40027703  0.44496323  1
  S2-  S211  1  0.50164352  0.37963337  0.95699759  1
  S2-  S212  1  0.50993391  0.64978726  0.44970797  1
  S2-  S213  1  0.49881137  0.63882747  0.94799227  1
  S2-  S214  1  0.52012504  0.89131952  0.45289878  1
  S2-  S215  1  0.49634511  0.88551926  0.95227395  1
  S2-  S216  1  0.76392689  0.14393603  0.46216289  1
  S2-  S217  1  0.74603980  0.13279374  0.95767118  1
  S2-  S218  1  0.76850980  0.40004354  0.45717352  1
  S2-  S219  1  0.75005261  0.37449525  0.96108991  1
  S2-  S220  1  0.77158305  0.64622505  0.46610782  1
  S2-  S221  1  0.74484285  0.63990620  0.95793658  1
  S2-  S222  1  0.76551305  0.89511315  0.47151719  1
  S2-  S223  1  0.74645037  0.88647920  0.95710064  1
  S2-  S224  1  0.12709439  0.00105614  0.04453825  1
  S2-  S225  1  0.14093671  0.02566989  0.53776242  1
  S2-  S226  1  0.11789465  0.26539637  0.04501552  1
  S2-  S227  1  0.14634350  0.27001553  0.53870383  1
  S2-  S228  1  0.12200585  0.50797557  0.04938533  1
  S2-  S229  1  0.14075013  0.51625439  0.55580185  1
  S2-  S230  1  0.12561723  0.75642457  0.05356153  1
  S2-  S231  1  0.14357842  0.76932497  0.54372473  1
  S2-  S232  1  0.36968442  0.00735610  0.04865090  1
  S2-  S233  1  0.39701580  0.02379712  0.52757750  1
  S2-  S234  1  0.37448521  0.26043008  0.04546443  1
  S2-  S235  1  0.39240026  0.27341030  0.53129325  1
  S2-  S236  1  0.37403892  0.51253883  0.02999166  1
  S2-  S237  1  0.39011578  0.51997946  0.53561905  1
  S2-  S238  1  0.37337348  0.75628187  0.04387634  1
  S2-  S239  1  0.38811291  0.77171441  0.53855026  1
  S2-  S240  1  0.62559528  0.00942657  0.05707156  1
  S2-  S241  1  0.63163489  0.02207039  0.54754616  1
  S2-  S242  1  0.62323496  0.25722938  0.05172415  1
  S2-  S243  1  0.63423575  0.27386380  0.53534372  1
  S2-  S244  1  0.62462558  0.51020303  0.04076280  1
  S2-  S245  1  0.63503568  0.52227220  0.53897937  1
  S2-  S246  1  0.62035359  0.76547937  0.04366926  1
  S2-  S247  1  0.63382518  0.77320828  0.54806449  1
  S2-  S248  1  0.87538065  0.00719512  0.03486316  1
  S2-  S249  1  0.88749074  0.02454078  0.55178538  1
  S2-  S250  1  0.87844166  0.25309933  0.03752110  1
  S2-  S251  1  0.88633917  0.27182669  0.54291448  1
  S2-  S252  1  0.86838497  0.50956665  0.03645465  1
  S2-  S253  1  0.89689538  0.51617484  0.55296600  1
  S2-  S254  1  0.87389095  0.76103061  0.03966992  1
  S2-  S255  1  0.89093184  0.76782377  0.54979314  1
