# generated using pymatgen
data_La9Ce10Pr6Nd4Sm3(BiS2)32
_symmetry_space_group_name_H-M   'P 1'
_cell_length_a   16.24534045
_cell_length_b   16.26011967
_cell_length_c   27.12495057
_cell_angle_alpha   90.09795801
_cell_angle_beta   89.73667917
_cell_angle_gamma   89.90453492
_symmetry_Int_Tables_number   1
_chemical_formula_structural   La9Ce10Pr6Nd4Sm3(BiS2)32
_chemical_formula_sum   'La18 Ce20 Pr12 Nd8 Sm6 Bi64 S128'
_cell_volume   7164.99151528
_cell_formula_units_Z   2
loop_
 _symmetry_equiv_pos_site_id
 _symmetry_equiv_pos_as_xyz
  1  'x, y, z'
loop_
 _atom_type_symbol
 _atom_type_oxidation_number
  La3+  3.0
  Ce3+  3.0
  Pr3+  3.0
  Nd3+  3.0
  Sm3+  3.0
  Bi2+  2.0
  S2-  -2.0
loop_
 _atom_site_type_symbol
 _atom_site_label
 _atom_site_symmetry_multiplicity
 _atom_site_fract_x
 _atom_site_fract_y
 _atom_site_fract_z
 _atom_site_occupancy
  La3+  La0  1  0.75378183  0.12264780  0.58861271  1
  La3+  La1  1  0.01804514  0.88232746  0.57211251  1
  La3+  La2  1  0.61331782  0.50748376  0.92627418  1
  La3+  La3  1  0.14583140  0.50189436  0.43295702  1
  La3+  La4  1  0.27007712  0.38766750  0.57136919  1
  La3+  La5  1  0.65269162  0.01080629  0.41069195  1
  La3+  La6  1  0.23144905  0.13466910  0.06952333  1
  La3+  La7  1  0.52181958  0.63061877  0.55872432  1
  La3+  La8  1  0.12302379  0.50489916  0.92753072  1
  La3+  La9  1  0.13021152  0.25254242  0.91483191  1
  La3+  La10  1  0.50761976  0.13167231  0.07550127  1
  La3+  La11  1  0.00906173  0.36362966  0.10292375  1
  La3+  La12  1  0.23691297  0.87955616  0.07719774  1
  La3+  La13  1  0.75068145  0.88021694  0.06280724  1
  La3+  La14  1  0.89596191  0.50043134  0.42787805  1
  La3+  La15  1  0.64907265  0.74481948  0.40838770  1
  La3+  La16  1  0.13951145  -0.00366091  0.91818340  1
  La3+  La17  1  0.14276668  0.00276790  0.43910914  1
  Ce3+  Ce18  1  0.87200768  0.75105538  0.94152005  1
  Ce3+  Ce19  1  0.01451741  0.37752308  0.56444270  1
  Ce3+  Ce20  1  0.39396275  0.01009975  0.43392372  1
  Ce3+  Ce21  1  0.87431284  0.00400910  0.92895632  1
  Ce3+  Ce22  1  0.26463211  0.12959851  0.56460619  1
  Ce3+  Ce23  1  0.00176820  0.13091904  0.04088431  1
  Ce3+  Ce24  1  0.24579696  0.37825683  0.05110038  1
  Ce3+  Ce25  1  0.50084214  0.37838575  0.05489833  1
  Ce3+  Ce26  1  0.51615013  0.12716876  0.55522282  1
  Ce3+  Ce27  1  0.62367142  0.75402008  0.94383987  1
  Ce3+  Ce28  1  0.62254580  0.00374324  0.94130541  1
  Ce3+  Ce29  1  0.64351177  0.50011739  0.43281973  1
  Ce3+  Ce30  1  0.87507675  0.25586976  0.93349109  1
  Ce3+  Ce31  1  0.00096903  0.62119999  0.06022530  1
  Ce3+  Ce32  1  0.76637603  0.37811595  0.56142473  1
  Ce3+  Ce33  1  0.52070551  0.37859069  0.55772714  1
  Ce3+  Ce34  1  0.37179848  0.24936437  0.94438628  1
  Ce3+  Ce35  1  0.00049097  0.87937902  0.04708606  1
  Ce3+  Ce36  1  0.76023607  0.87857922  0.55673178  1
  Ce3+  Ce37  1  0.62340060  0.25019892  0.93647211  1
  Pr3+  Pr38  1  0.14069332  0.25200451  0.44129947  1
  Pr3+  Pr39  1  0.12545471  0.75153238  0.93227678  1
  Pr3+  Pr40  1  0.87260535  0.50188681  0.93515737  1
  Pr3+  Pr41  1  0.39203901  0.25281372  0.43845678  1
  Pr3+  Pr42  1  0.89010172  0.24892327  0.44816259  1
  Pr3+  Pr43  1  0.14369522  0.75515573  0.44594400  1
  Pr3+  Pr44  1  0.39255479  0.50532727  0.43219787  1
  Pr3+  Pr45  1  0.01343204  0.62701120  0.55822888  1
  Pr3+  Pr46  1  0.64357681  0.25429080  0.43870662  1
  Pr3+  Pr47  1  0.88770351  0.00593342  0.45116675  1
  Pr3+  Pr48  1  0.24547194  0.62549212  0.05722842  1
  Pr3+  Pr49  1  0.88817012  0.75527388  0.44305826  1
  Nd3+  Nd50  1  0.37300123  0.00339637  0.95529342  1
  Nd3+  Nd51  1  0.75128387  0.62557924  0.05695292  1
  Nd3+  Nd52  1  0.26697499  0.63126355  0.56174625  1
  Nd3+  Nd53  1  0.26890165  0.88142019  0.56228815  1
  Nd3+  Nd54  1  0.49702453  0.87947738  0.06577111  1
  Nd3+  Nd55  1  0.02334775  0.13811356  0.58937509  1
  Nd3+  Nd56  1  0.75333852  0.37908727  0.05601097  1
  Nd3+  Nd57  1  0.50251196  0.62762185  0.06743970  1
  Sm3+  Sm58  1  0.51939887  0.87937917  0.54423080  1
  Sm3+  Sm59  1  0.39408589  0.75746196  0.43951692  1
  Sm3+  Sm60  1  0.37406921  0.75393647  0.95407902  1
  Sm3+  Sm61  1  0.76483926  0.62720330  0.55471685  1
  Sm3+  Sm62  1  0.75240641  0.13005657  0.05311518  1
  Sm3+  Sm63  1  0.37548233  0.50501531  0.94549428  1
  Bi2+  Bi64  1  -0.03917964  0.13497060  0.25449195  1
  Bi2+  Bi65  1  -0.02690226  0.14589041  0.79035453  1
  Bi2+  Bi66  1  -0.02294791  0.35695379  0.31039911  1
  Bi2+  Bi67  1  0.00700851  0.45774735  0.77832334  1
  Bi2+  Bi68  1  -0.01508777  0.61136544  0.28129666  1
  Bi2+  Bi69  1  0.04597445  0.65140626  0.82120124  1
  Bi2+  Bi70  1  -0.02009064  0.88184539  0.24585530  1
  Bi2+  Bi71  1  0.01950757  0.83234494  0.77965411  1
  Bi2+  Bi72  1  0.23244213  0.13636944  0.30151439  1
  Bi2+  Bi73  1  0.25635558  0.10856493  0.78985620  1
  Bi2+  Bi74  1  0.26787394  0.36386648  0.29596215  1
  Bi2+  Bi75  1  0.29021690  0.35372097  0.78113741  1
  Bi2+  Bi76  1  0.23436994  0.64103035  0.30012537  1
  Bi2+  Bi77  1  0.23058146  0.61293076  0.79730973  1
  Bi2+  Bi78  1  0.21111735  0.88229382  0.30126109  1
  Bi2+  Bi79  1  0.28418311  0.87133267  0.79328862  1
  Bi2+  Bi80  1  0.51580500  0.19848834  0.29252291  1
  Bi2+  Bi81  1  0.47601614  0.10054049  0.79567968  1
  Bi2+  Bi82  1  0.47646690  0.37497378  0.33561245  1
  Bi2+  Bi83  1  0.47905068  0.37478067  0.78823977  1
  Bi2+  Bi84  1  0.50245394  0.55211351  0.28850555  1
  Bi2+  Bi85  1  0.45544847  0.64711614  0.79607358  1
  Bi2+  Bi86  1  0.47125983  0.86520152  0.29163053  1
  Bi2+  Bi87  1  0.49570135  0.87044680  0.76641525  1
  Bi2+  Bi88  1  0.77478548  0.10053612  0.28163679  1
  Bi2+  Bi89  1  0.73073046  0.12964544  0.79620974  1
  Bi2+  Bi90  1  0.67789935  0.35652332  0.31407031  1
  Bi2+  Bi91  1  0.75507448  0.37799203  0.78911538  1
  Bi2+  Bi92  1  0.79068671  0.60389159  0.29506593  1
  Bi2+  Bi93  1  0.71406565  0.63865625  0.79300951  1
  Bi2+  Bi94  1  0.74715351  0.87347726  0.29450395  1
  Bi2+  Bi95  1  0.70123591  0.85078475  0.76583261  1
  Bi2+  Bi96  1  0.15105537  -0.02698977  0.20844098  1
  Bi2+  Bi97  1  0.11249909  -0.02127765  0.70253024  1
  Bi2+  Bi98  1  0.14508732  0.22987559  0.20722622  1
  Bi2+  Bi99  1  0.12470818  0.24226570  0.71835086  1
  Bi2+  Bi100  1  0.12723727  0.49177423  0.20489170  1
  Bi2+  Bi101  1  0.13899224  0.48165341  0.69801818  1
  Bi2+  Bi102  1  0.10588378  0.72719794  0.21574960  1
  Bi2+  Bi103  1  0.13408157  0.71299859  0.71462355  1
  Bi2+  Bi104  1  0.34494014  0.03659839  0.22638539  1
  Bi2+  Bi105  1  0.38136437  0.00561148  0.71014913  1
  Bi2+  Bi106  1  0.40500150  0.31638657  0.22297249  1
  Bi2+  Bi107  1  0.38548673  0.20401127  0.71013590  1
  Bi2+  Bi108  1  0.34287102  0.50759939  0.22403656  1
  Bi2+  Bi109  1  0.38316964  0.49745677  0.71882608  1
  Bi2+  Bi110  1  0.37526418  0.70392402  0.23464626  1
  Bi2+  Bi111  1  0.33034414  0.73075862  0.71981616  1
  Bi2+  Bi112  1  0.60908266  0.00302891  0.20256984  1
  Bi2+  Bi113  1  0.60679346  -0.01517300  0.69802506  1
  Bi2+  Bi114  1  0.63009656  0.26791279  0.20489567  1
  Bi2+  Bi115  1  0.57231190  0.23502744  0.73066975  1
  Bi2+  Bi116  1  0.63796258  0.46605539  0.22144320  1
  Bi2+  Bi117  1  0.60976931  0.49432386  0.68894195  1
  Bi2+  Bi118  1  0.62034810  0.74722956  0.20121891  1
  Bi2+  Bi119  1  0.60192560  0.73914919  0.69337375  1
  Bi2+  Bi120  1  0.86206195  0.00243822  0.19204863  1
  Bi2+  Bi121  1  0.85744951  -0.01316740  0.71617612  1
  Bi2+  Bi122  1  0.82091164  0.25813001  0.22132503  1
  Bi2+  Bi123  1  0.87459309  0.35786596  0.70095799  1
  Bi2+  Bi124  1  0.82586861  0.52118011  0.19620179  1
  Bi2+  Bi125  1  0.88584118  0.54832789  0.70380982  1
  Bi2+  Bi126  1  0.91096437  0.72043734  0.19826665  1
  Bi2+  Bi127  1  0.86261087  0.73189667  0.74250575  1
  S2-  S128  1  0.07043405  0.15274670  0.12932421  1
  S2-  S129  1  -0.02130830  0.08598723  0.68466052  1
  S2-  S130  1  0.02462817  0.35442235  0.21360199  1
  S2-  S131  1  0.00862039  0.28770839  0.64919481  1
  S2-  S132  1  0.00270661  0.52680679  0.14302130  1
  S2-  S133  1  0.03082916  0.61047396  0.65770332  1
  S2-  S134  1  0.08268844  0.88666612  0.13165675  1
  S2-  S135  1  -0.01666842  0.87401954  0.67097545  1
  S2-  S136  1  0.28100471  0.15241828  0.16635788  1
  S2-  S137  1  0.17277413  0.11831513  0.64879309  1
  S2-  S138  1  0.17996797  0.36488180  0.14072508  1
  S2-  S139  1  0.21966187  0.33794652  0.66552171  1
  S2-  S140  1  0.19842864  0.63314775  0.15427852  1
  S2-  S141  1  0.27059111  0.53034995  0.64150759  1
  S2-  S142  1  0.29202042  0.89195058  0.17413278  1
  S2-  S143  1  0.20436259  0.87750405  0.65493883  1
  S2-  S144  1  0.48189424  0.08928144  0.17389538  1
  S2-  S145  1  0.59419094  0.12804762  0.64273817  1
  S2-  S146  1  0.52198664  0.38330672  0.15221527  1
  S2-  S147  1  0.47850446  0.39914136  0.65145031  1
  S2-  S148  1  0.49137098  0.65487683  0.16578717  1
  S2-  S149  1  0.49542082  0.61691812  0.65866178  1
  S2-  S150  1  0.52236723  0.87650544  0.16498553  1
  S2-  S151  1  0.51487152  0.86332625  0.64256748  1
  S2-  S152  1  0.67269187  0.12939395  0.14040289  1
  S2-  S153  1  0.78392701  0.12794086  0.69243053  1
  S2-  S154  1  0.84216312  0.36995552  0.14248801  1
  S2-  S155  1  0.70932652  0.37781493  0.65538293  1
  S2-  S156  1  0.71133011  0.64035475  0.15410483  1
  S2-  S157  1  0.70930340  0.61972583  0.64840261  1
  S2-  S158  1  0.73537284  0.88717220  0.16439517  1
  S2-  S159  1  0.74860353  0.90819671  0.65250814  1
  S2-  S160  1  0.12207862  0.02254686  0.33944817  1
  S2-  S161  1  0.10414551  0.06703424  0.82470129  1
  S2-  S162  1  0.13123332  0.29313392  0.34239784  1
  S2-  S163  1  0.06268473  0.27041860  0.81809823  1
  S2-  S164  1  0.03144153  0.50254913  0.35648918  1
  S2-  S165  1  0.19206625  0.46071543  0.83692196  1
  S2-  S166  1  0.12770684  0.76368964  0.34603671  1
  S2-  S167  1  0.14472251  0.85579450  0.85216737  1
  S2-  S168  1  0.35479710  -0.05275114  0.34519752  1
  S2-  S169  1  0.30474025  -0.00223649  0.86396823  1
  S2-  S170  1  0.37846016  0.15100762  0.35457024  1
  S2-  S171  1  0.28373611  0.23986519  0.85928595  1
  S2-  S172  1  0.26898111  0.50900070  0.35863468  1
  S2-  S173  1  0.45264000  0.50888238  0.85775909  1
  S2-  S174  1  0.38164448  0.72854810  0.34250151  1
  S2-  S175  1  0.36374091  0.75408491  0.85627153  1
  S2-  S176  1  0.58735267  -0.02773637  0.31306058  1
  S2-  S177  1  0.61580587  0.03291626  0.84458421  1
  S2-  S178  1  0.65818373  0.16484240  0.35218700  1
  S2-  S179  1  0.63593235  0.25931009  0.83802287  1
  S2-  S180  1  0.64108254  0.59114940  0.35019975  1
  S2-  S181  1  0.65952593  0.48927967  0.82850956  1
  S2-  S182  1  0.60885626  0.77428541  0.30736045  1
  S2-  S183  1  0.59443809  0.70002373  0.85302320  1
  S2-  S184  1  0.81394519  -0.01079561  0.35936447  1
  S2-  S185  1  0.85747851  0.01697043  0.82945702  1
  S2-  S186  1  0.91423303  0.21770938  0.34824205  1
  S2-  S187  1  0.84669227  0.24250762  0.83581665  1
  S2-  S188  1  0.82722028  0.44552692  0.33760071  1
  S2-  S189  1  0.86847921  0.48139914  0.83430509  1
  S2-  S190  1  0.81042381  0.75744169  0.35154969  1
  S2-  S191  1  0.83181842  0.73071152  0.84822241  1
  S2-  S192  1  0.01697048  0.12619274  0.45808356  1
  S2-  S193  1  -0.00023904  0.12778870  0.93678666  1
  S2-  S194  1  0.01492904  0.37391369  0.45848869  1
  S2-  S195  1  -0.00047898  0.37900298  0.93293688  1
  S2-  S196  1  0.01541169  0.63414680  0.45253440  1
  S2-  S197  1  -0.00347250  0.62825121  0.95204757  1
  S2-  S198  1  0.01343300  0.87881160  0.45837106  1
  S2-  S199  1  -0.00476592  0.87681249  0.94218193  1
  S2-  S200  1  0.26486748  0.12832321  0.45855430  1
  S2-  S201  1  0.24864262  0.12791762  0.96095753  1
  S2-  S202  1  0.26861039  0.37489168  0.45912179  1
  S2-  S203  1  0.25512146  0.38267384  0.94847300  1
  S2-  S204  1  0.27076940  0.63499045  0.45713654  1
  S2-  S205  1  0.25264147  0.62782019  0.94989121  1
  S2-  S206  1  0.26946777  0.87784495  0.45554282  1
  S2-  S207  1  0.25342857  0.87297746  0.96635852  1
  S2-  S208  1  0.52042982  0.12757400  0.45101143  1
  S2-  S209  1  0.49833524  0.12758815  0.95967856  1
  S2-  S210  1  0.51700164  0.37843731  0.45353233  1
  S2-  S211  1  0.49680102  0.37451120  0.95043136  1
  S2-  S212  1  0.51477178  0.63196308  0.44902944  1
  S2-  S213  1  0.49587105  0.63098554  0.96169318  1
  S2-  S214  1  0.52189097  0.87707518  0.43938684  1
  S2-  S215  1  0.49687974  0.87800208  0.95706642  1
  S2-  S216  1  0.76441458  0.12759595  0.46379421  1
  S2-  S217  1  0.74933383  0.12757652  0.94890457  1
  S2-  S218  1  0.76834831  0.37722992  0.45540287  1
  S2-  S219  1  0.74470338  0.37923379  0.94853457  1
  S2-  S220  1  0.76997867  0.62385668  0.45178899  1
  S2-  S221  1  0.74530088  0.62583832  0.95147896  1
  S2-  S222  1  0.75990063  0.87694228  0.45366570  1
  S2-  S223  1  0.74852014  0.87971011  0.95151298  1
  S2-  S224  1  0.12105525  0.00402158  0.03140535  1
  S2-  S225  1  0.14041242  0.00390570  0.54755568  1
  S2-  S226  1  0.11682912  0.26417045  0.02952850  1
  S2-  S227  1  0.14238773  0.25575754  0.54800433  1
  S2-  S228  1  0.12340679  0.50078347  0.03697385  1
  S2-  S229  1  0.13823891  0.50457430  0.54262274  1
  S2-  S230  1  0.12066593  0.74805858  0.03982863  1
  S2-  S231  1  0.14102942  0.75321010  0.55286471  1
  S2-  S232  1  0.37224963  0.00652478  0.06021502  1
  S2-  S233  1  0.39246521  0.00220715  0.54579404  1
  S2-  S234  1  0.37417814  0.25358407  0.05264249  1
  S2-  S235  1  0.39131824  0.25374645  0.54925272  1
  S2-  S236  1  0.37549154  0.50408957  0.05197463  1
  S2-  S237  1  0.39526322  0.50727180  0.53940071  1
  S2-  S238  1  0.37300548  0.75209789  0.05969443  1
  S2-  S239  1  0.39108719  0.75586842  0.54724494  1
  S2-  S240  1  0.62417434  0.00169633  0.04670503  1
  S2-  S241  1  0.63834268  0.00153824  0.54149546  1
  S2-  S242  1  0.62883564  0.25588141  0.04309346  1
  S2-  S243  1  0.64186465  0.25372486  0.54666398  1
  S2-  S244  1  0.62538740  0.50321407  0.04401293  1
  S2-  S245  1  0.64318038  0.50293503  0.54063841  1
  S2-  S246  1  0.62368535  0.75448991  0.05031624  1
  S2-  S247  1  0.64299411  0.75332852  0.53893827  1
  S2-  S248  1  0.87461730  0.00626302  0.03945729  1
  S2-  S249  1  0.89097471  0.00793172  0.55866198  1
  S2-  S250  1  0.87585162  0.25190867  0.04139499  1
  S2-  S251  1  0.88431167  0.24611733  0.55575002  1
  S2-  S252  1  0.87411730  0.50303560  0.04112309  1
  S2-  S253  1  0.88896713  0.50338319  0.54645331  1
  S2-  S254  1  0.87487838  0.75181937  0.04945752  1
  S2-  S255  1  0.88795045  0.75310157  0.55271198  1
