# generated using pymatgen
data_La9Ce10Pr6Nd4Sm3(BiS2)32
_symmetry_space_group_name_H-M   'P 1'
_cell_length_a   16.23518260
_cell_length_b   16.24356100
_cell_length_c   27.06258778
_cell_angle_alpha   89.91738021
_cell_angle_beta   90.01791099
_cell_angle_gamma   89.85063010
_symmetry_Int_Tables_number   1
_chemical_formula_structural   La9Ce10Pr6Nd4Sm3(BiS2)32
_chemical_formula_sum   'La18 Ce20 Pr12 Nd8 Sm6 Bi64 S128'
_cell_volume   7136.83727412
_cell_formula_units_Z   2
loop_
 _symmetry_equiv_pos_site_id
 _symmetry_equiv_pos_as_xyz
  1  'x, y, z'
loop_
 _atom_type_symbol
 _atom_type_oxidation_number
  La3+  3.0
  Ce3+  3.0
  Pr3+  3.0
  Nd3+  3.0
  Sm3+  3.0
  Bi2+  2.0
  S2-  -2.0
loop_
 _atom_site_type_symbol
 _atom_site_label
 _atom_site_symmetry_multiplicity
 _atom_site_fract_x
 _atom_site_fract_y
 _atom_site_fract_z
 _atom_site_occupancy
  La3+  La0  1  0.61848935  0.50083053  0.42757453  1
  La3+  La1  1  0.38894398  0.75426470  0.42315329  1
  La3+  La2  1  0.87065612  -0.01211056  0.92719193  1
  La3+  La3  1  0.13084468  0.24315166  0.92726180  1
  La3+  La4  1  -0.00759384  0.34846612  0.07864081  1
  La3+  La5  1  0.00507945  0.86821566  0.59751706  1
  La3+  La6  1  0.87959407  0.74492719  0.41926968  1
  La3+  La7  1  0.88686798  0.49605668  0.92768501  1
  La3+  La8  1  0.88274134  0.24677587  0.91961536  1
  La3+  La9  1  0.61244548  0.49208439  0.89280064  1
  La3+  La10  1  0.00122854  0.37508028  0.55792693  1
  La3+  La11  1  0.12696247  -0.01685447  0.89545555  1
  La3+  La12  1  -0.00425732  0.86822856  0.07312768  1
  La3+  La13  1  0.24487852  0.12889880  0.57592820  1
  La3+  La14  1  0.25026451  0.61720085  0.07486146  1
  La3+  La15  1  -0.00911571  0.60394936  0.08644072  1
  La3+  La16  1  0.13824416  0.24660211  0.42726118  1
  La3+  La17  1  0.25557670  0.86736752  0.09995167  1
  Ce3+  Ce18  1  0.50199169  0.87881704  0.56778262  1
  Ce3+  Ce19  1  0.50351988  0.37508761  0.56734818  1
  Ce3+  Ce20  1  0.13039602  0.50159984  0.43594734  1
  Ce3+  Ce21  1  0.37146088  -0.01234637  0.94219071  1
  Ce3+  Ce22  1  0.75019561  0.86663737  0.06202895  1
  Ce3+  Ce23  1  0.75596697  0.62578270  0.55156822  1
  Ce3+  Ce24  1  0.37628412  0.49508664  0.94770382  1
  Ce3+  Ce25  1  0.88772041  0.25280176  0.42433412  1
  Ce3+  Ce26  1  0.38458888  0.25196001  0.43569800  1
  Ce3+  Ce27  1  0.75395324  0.61018007  0.05130268  1
  Ce3+  Ce28  1  0.50264907  0.11491071  0.05744678  1
  Ce3+  Ce29  1  0.00256804  0.11311840  0.04513491  1
  Ce3+  Ce30  1  0.12352517  0.49432845  0.95413969  1
  Ce3+  Ce31  1  0.75139308  0.11677914  0.05054943  1
  Ce3+  Ce32  1  0.75831916  0.12715993  0.55660275  1
  Ce3+  Ce33  1  0.37717357  0.00312644  0.44827397  1
  Ce3+  Ce34  1  0.00180502  0.63082265  0.55186279  1
  Ce3+  Ce35  1  0.38091644  0.50052709  0.44897744  1
  Ce3+  Ce36  1  0.88177570  -0.00058562  0.44885711  1
  Ce3+  Ce37  1  0.62364043  0.73660075  0.94439629  1
  Pr3+  Pr38  1  0.25177582  0.37573794  0.56232215  1
  Pr3+  Pr39  1  0.62411234  -0.01050207  0.93016193  1
  Pr3+  Pr40  1  0.63161576  0.00210399  0.44203907  1
  Pr3+  Pr41  1  0.50470875  0.86573640  0.06604309  1
  Pr3+  Pr42  1  0.37284597  0.23985688  0.93563135  1
  Pr3+  Pr43  1  0.24959841  0.36301604  0.06582933  1
  Pr3+  Pr44  1  0.25324635  0.63153936  0.55203646  1
  Pr3+  Pr45  1  0.12905656  -0.00375368  0.44256894  1
  Pr3+  Pr46  1  0.50762225  0.61007878  0.06801514  1
  Pr3+  Pr47  1  0.12724673  0.74778031  0.95169179  1
  Pr3+  Pr48  1  0.62788208  0.75301548  0.44635279  1
  Pr3+  Pr49  1  0.50357706  0.62714765  0.56845017  1
  Nd3+  Nd50  1  0.88186310  0.49463560  0.42621295  1
  Nd3+  Nd51  1  0.87929753  0.74396810  0.94371953  1
  Nd3+  Nd52  1  0.75786288  0.87536689  0.55603799  1
  Nd3+  Nd53  1  0.25894113  0.87657394  0.57061817  1
  Nd3+  Nd54  1  0.24849003  0.11439737  0.05716755  1
  Nd3+  Nd55  1  0.13157453  0.75381193  0.43457105  1
  Nd3+  Nd56  1  0.62285565  0.24471879  0.93398037  1
  Nd3+  Nd57  1  0.50572802  0.12864013  0.55985045  1
  Sm3+  Sm58  1  0.62722699  0.25095542  0.44197313  1
  Sm3+  Sm59  1  0.37294626  0.74495433  0.95278451  1
  Sm3+  Sm60  1  0.75372121  0.37754926  0.55422939  1
  Sm3+  Sm61  1  0.75009081  0.36643708  0.04291147  1
  Sm3+  Sm62  1  0.00324384  0.12575914  0.55644058  1
  Sm3+  Sm63  1  0.50395210  0.36546848  0.05818554  1
  Bi2+  Bi64  1  -0.08146727  0.12642350  0.29403470  1
  Bi2+  Bi65  1  -0.02499364  0.13804072  0.79119744  1
  Bi2+  Bi66  1  0.00113711  0.36828244  0.29034194  1
  Bi2+  Bi67  1  -0.00158935  0.40685260  0.78947495  1
  Bi2+  Bi68  1  -0.01962208  0.61899418  0.28225706  1
  Bi2+  Bi69  1  0.03955007  0.62559651  0.78385351  1
  Bi2+  Bi70  1  0.01772588  0.90431400  0.30741966  1
  Bi2+  Bi71  1  -0.01046976  0.85792604  0.78211893  1
  Bi2+  Bi72  1  0.33306050  0.12628079  0.28191071  1
  Bi2+  Bi73  1  0.34952053  0.16232284  0.77613331  1
  Bi2+  Bi74  1  0.25658026  0.37079844  0.29317259  1
  Bi2+  Bi75  1  0.23399481  0.38838124  0.79869311  1
  Bi2+  Bi76  1  0.26315085  0.56218455  0.28542475  1
  Bi2+  Bi77  1  0.23179345  0.58300145  0.80005444  1
  Bi2+  Bi78  1  0.25526598  0.90528580  0.31123190  1
  Bi2+  Bi79  1  0.25499802  0.84023101  0.79481314  1
  Bi2+  Bi80  1  0.52693124  0.14466993  0.29936470  1
  Bi2+  Bi81  1  0.48824533  0.09788985  0.84437763  1
  Bi2+  Bi82  1  0.52196591  0.40338734  0.29108650  1
  Bi2+  Bi83  1  0.45183299  0.34379279  0.79848983  1
  Bi2+  Bi84  1  0.53322233  0.61891791  0.28683228  1
  Bi2+  Bi85  1  0.45696401  0.63590715  0.79431363  1
  Bi2+  Bi86  1  0.54507420  0.86700163  0.28569333  1
  Bi2+  Bi87  1  0.53290787  0.91015088  0.80682110  1
  Bi2+  Bi88  1  0.72091856  0.13876965  0.29306182  1
  Bi2+  Bi89  1  0.64755419  0.09129563  0.77719093  1
  Bi2+  Bi90  1  0.74677261  0.32886726  0.27515964  1
  Bi2+  Bi91  1  0.74245823  0.33969133  0.78055295  1
  Bi2+  Bi92  1  0.72283923  0.61000267  0.27778369  1
  Bi2+  Bi93  1  0.72972061  0.65629092  0.78698007  1
  Bi2+  Bi94  1  0.73992341  0.87030465  0.28180681  1
  Bi2+  Bi95  1  0.73183921  0.85103779  0.80325508  1
  Bi2+  Bi96  1  0.10874785  0.01380990  0.20060527  1
  Bi2+  Bi97  1  0.13166753  0.00637386  0.71127422  1
  Bi2+  Bi98  1  0.13515372  0.19932347  0.21273294  1
  Bi2+  Bi99  1  0.11170987  0.24932660  0.71113766  1
  Bi2+  Bi100  1  0.15830453  0.47672916  0.20519076  1
  Bi2+  Bi101  1  0.14541473  0.48127201  0.70859568  1
  Bi2+  Bi102  1  0.14326287  0.75346203  0.22641116  1
  Bi2+  Bi103  1  0.14747081  0.71835071  0.70416114  1
  Bi2+  Bi104  1  0.45602675  0.00717844  0.22317620  1
  Bi2+  Bi105  1  0.38956606  -0.01194225  0.72704660  1
  Bi2+  Bi106  1  0.38423258  0.28536305  0.21838091  1
  Bi2+  Bi107  1  0.37970656  0.30211699  0.69255385  1
  Bi2+  Bi108  1  0.36261178  0.47520278  0.20358110  1
  Bi2+  Bi109  1  0.34395795  0.49025742  0.71884091  1
  Bi2+  Bi110  1  0.39043829  0.75962024  0.22335803  1
  Bi2+  Bi111  1  0.37326983  0.75408895  0.71788976  1
  Bi2+  Bi112  1  0.65750795  0.02266055  0.18079847  1
  Bi2+  Bi113  1  0.57910951  -0.03893803  0.69047815  1
  Bi2+  Bi114  1  0.59727477  0.26428211  0.20949413  1
  Bi2+  Bi115  1  0.56886112  0.24220099  0.71690759  1
  Bi2+  Bi116  1  0.61768074  0.55090618  0.18849005  1
  Bi2+  Bi117  1  0.65339625  0.51575612  0.68925205  1
  Bi2+  Bi118  1  0.63246781  0.83191573  0.17918435  1
  Bi2+  Bi119  1  0.58896810  0.77190235  0.72454623  1
  Bi2+  Bi120  1  0.84972617  -0.00106864  0.21563239  1
  Bi2+  Bi121  1  0.77779971  -0.00907256  0.71171939  1
  Bi2+  Bi122  1  0.89311255  0.24255173  0.20288767  1
  Bi2+  Bi123  1  0.86609679  0.27364179  0.69857795  1
  Bi2+  Bi124  1  0.84484435  0.46963098  0.20377611  1
  Bi2+  Bi125  1  0.87837719  0.54594861  0.73993221  1
  Bi2+  Bi126  1  0.80143868  0.74213245  0.20288892  1
  Bi2+  Bi127  1  0.86749182  0.73399350  0.70737720  1
  S2-  S128  1  0.00542377  0.18757898  0.13578827  1
  S2-  S129  1  0.06230556  0.13343822  0.65050129  1
  S2-  S130  1  -0.01007267  0.45897317  0.15792317  1
  S2-  S131  1  0.00267558  0.35795992  0.65899358  1
  S2-  S132  1  0.05390343  0.64323655  0.18421524  1
  S2-  S133  1  0.00318022  0.70640190  0.64087528  1
  S2-  S134  1  0.05109028  0.86688721  0.17295914  1
  S2-  S135  1  -0.02711741  0.93961321  0.69212051  1
  S2-  S136  1  0.24480183  0.11451571  0.15911864  1
  S2-  S137  1  0.27010522  0.04529961  0.66558033  1
  S2-  S138  1  0.16523777  0.33249194  0.15266108  1
  S2-  S139  1  0.23010655  0.26914558  0.64222769  1
  S2-  S140  1  0.26302570  0.71621703  0.15828346  1
  S2-  S141  1  0.27825325  0.65748668  0.65077875  1
  S2-  S142  1  0.23293419  0.91255243  0.20548739  1
  S2-  S143  1  0.15493124  0.86710819  0.65219189  1
  S2-  S144  1  0.51458360  0.12898877  0.15463410  1
  S2-  S145  1  0.50533195  0.11891960  0.65968945  1
  S2-  S146  1  0.57373063  0.39867333  0.14744656  1
  S2-  S147  1  0.54899652  0.39686418  0.66211687  1
  S2-  S148  1  0.48407447  0.66048616  0.16542664  1
  S2-  S149  1  0.53181145  0.63509266  0.66863261  1
  S2-  S150  1  0.41256348  0.88301889  0.15217803  1
  S2-  S151  1  0.38841348  0.86443358  0.64189518  1
  S2-  S152  1  0.78202226  0.12452452  0.14812186  1
  S2-  S153  1  0.78139230  0.14121184  0.65420831  1
  S2-  S154  1  0.82020344  0.34751170  0.13300843  1
  S2-  S155  1  0.77454866  0.38344928  0.65377913  1
  S2-  S156  1  0.83359833  0.60686262  0.14011998  1
  S2-  S157  1  0.78304377  0.61629258  0.64903981  1
  S2-  S158  1  0.85250945  0.88119147  0.14159572  1
  S2-  S159  1  0.77968242  0.85283581  0.65440320  1
  S2-  S160  1  0.13840502  0.02144254  0.34120930  1
  S2-  S161  1  0.12465442  0.08595113  0.80697675  1
  S2-  S162  1  0.02822862  0.23900177  0.34758371  1
  S2-  S163  1  0.01730183  0.27111074  0.84983594  1
  S2-  S164  1  0.06230106  0.50612336  0.34419991  1
  S2-  S165  1  0.04059930  0.51511157  0.86823543  1
  S2-  S166  1  0.13500606  0.78313024  0.33439590  1
  S2-  S167  1  0.12098949  0.81953567  0.85633606  1
  S2-  S168  1  0.38386385  -0.01026016  0.35021950  1
  S2-  S169  1  0.29187795  -0.03295242  0.85528882  1
  S2-  S170  1  0.27418822  0.23245063  0.35987495  1
  S2-  S171  1  0.26321906  0.24786032  0.85564672  1
  S2-  S172  1  0.46569710  0.51265735  0.36323798  1
  S2-  S173  1  0.44621250  0.49474831  0.85611151  1
  S2-  S174  1  0.33897333  0.75752502  0.32461849  1
  S2-  S175  1  0.36003086  0.73627601  0.85291430  1
  S2-  S176  1  0.64280148  -0.02149908  0.34208214  1
  S2-  S177  1  0.74176403  -0.00591574  0.85284416  1
  S2-  S178  1  0.51648366  0.27459047  0.36458478  1
  S2-  S179  1  0.60527138  0.32986062  0.84696749  1
  S2-  S180  1  0.67030634  0.45643732  0.33278491  1
  S2-  S181  1  0.65224699  0.49928981  0.78583338  1
  S2-  S182  1  0.54145119  0.73955116  0.35949101  1
  S2-  S183  1  0.59864219  0.66246466  0.85642650  1
  S2-  S184  1  0.88942973  -0.01756333  0.35188432  1
  S2-  S185  1  0.96421507  -0.01315050  0.84000312  1
  S2-  S186  1  0.87257299  0.37265812  0.35108424  1
  S2-  S187  1  0.82039154  0.21602566  0.82332672  1
  S2-  S188  1  0.86204122  0.60087663  0.34749697  1
  S2-  S189  1  0.84524915  0.44582479  0.83138219  1
  S2-  S190  1  0.93149890  0.77181907  0.32023093  1
  S2-  S191  1  0.88161438  0.77332612  0.84374220  1
  S2-  S192  1  0.00424465  0.12347124  0.45278732  1
  S2-  S193  1  0.00816069  0.11011075  0.94112749  1
  S2-  S194  1  0.00959113  0.37663455  0.45090352  1
  S2-  S195  1  0.00362944  0.36730695  0.96006504  1
  S2-  S196  1  0.00827721  0.62716885  0.44699171  1
  S2-  S197  1  0.00235620  0.62373560  0.96895626  1
  S2-  S198  1  0.00329983  0.87173618  0.44631159  1
  S2-  S199  1  0.00079096  0.86989604  0.96005682  1
  S2-  S200  1  0.25382888  0.12129443  0.46400174  1
  S2-  S201  1  0.24847498  0.11016575  0.95171392  1
  S2-  S202  1  0.25616761  0.37972747  0.45539057  1
  S2-  S203  1  0.25252560  0.37303304  0.95845751  1
  S2-  S204  1  0.25748956  0.62756885  0.44375625  1
  S2-  S205  1  0.25082700  0.61908803  0.96360970  1
  S2-  S206  1  0.25771085  0.87364951  0.45718147  1
  S2-  S207  1  0.25267948  0.86543066  0.96644756  1
  S2-  S208  1  0.50641387  0.12438643  0.45411056  1
  S2-  S209  1  0.50022855  0.11775313  0.95438380  1
  S2-  S210  1  0.50378501  0.37690224  0.46392326  1
  S2-  S211  1  0.49593176  0.36561980  0.95492730  1
  S2-  S212  1  0.50322844  0.62753978  0.46238579  1
  S2-  S213  1  0.49524974  0.61894355  0.96136285  1
  S2-  S214  1  0.50613028  0.88096432  0.45923483  1
  S2-  S215  1  0.50052024  0.86419474  0.95598492  1
  S2-  S216  1  0.75465947  0.13019322  0.44809245  1
  S2-  S217  1  0.74697602  0.12281081  0.94497741  1
  S2-  S218  1  0.74759218  0.37309306  0.45017637  1
  S2-  S219  1  0.74716163  0.37105327  0.93980033  1
  S2-  S220  1  0.74745450  0.62338222  0.44634658  1
  S2-  S221  1  0.75492823  0.61660840  0.94418828  1
  S2-  S222  1  0.75588657  0.87377976  0.44847194  1
  S2-  S223  1  0.74738614  0.86071597  0.95483020  1
  S2-  S224  1  0.12732695  -0.00914687  0.06438259  1
  S2-  S225  1  0.12257321  -0.00306138  0.55040449  1
  S2-  S226  1  0.12905280  0.23915594  0.03694344  1
  S2-  S227  1  0.12272849  0.25086502  0.53759651  1
  S2-  S228  1  0.12618365  0.49052160  0.05807048  1
  S2-  S229  1  0.12896594  0.50335239  0.54652628  1
  S2-  S230  1  0.12421940  0.74192357  0.05978190  1
  S2-  S231  1  0.12927903  0.75367610  0.54120929  1
  S2-  S232  1  0.37598135  -0.00659297  0.05085231  1
  S2-  S233  1  0.38076845  0.00678244  0.55248053  1
  S2-  S234  1  0.37777415  0.24205357  0.04760896  1
  S2-  S235  1  0.38037001  0.25072308  0.54730661  1
  S2-  S236  1  0.37756841  0.48868924  0.05616754  1
  S2-  S237  1  0.37754360  0.50140923  0.55679342  1
  S2-  S238  1  0.38093972  0.73913800  0.05518837  1
  S2-  S239  1  0.38207284  0.75020831  0.53900881  1
  S2-  S240  1  0.62625667  -0.00822820  0.04006062  1
  S2-  S241  1  0.63256616  0.00258259  0.54983610  1
  S2-  S242  1  0.62571872  0.24344289  0.04237927  1
  S2-  S243  1  0.63203337  0.25266527  0.54791541  1
  S2-  S244  1  0.62891546  0.48830775  0.03995453  1
  S2-  S245  1  0.62967624  0.50066936  0.54463967  1
  S2-  S246  1  0.62935298  0.73673991  0.05074493  1
  S2-  S247  1  0.62995042  0.75305742  0.55389952  1
  S2-  S248  1  0.87406726  -0.00509734  0.03755937  1
  S2-  S249  1  0.88492438  -0.00243120  0.55552173  1
  S2-  S250  1  0.87406257  0.23648450  0.02939483  1
  S2-  S251  1  0.87901394  0.25051049  0.53927605  1
  S2-  S252  1  0.87496105  0.48522530  0.03684974  1
  S2-  S253  1  0.87764235  0.50019365  0.53811245  1
  S2-  S254  1  0.87420612  0.74009770  0.04805850  1
  S2-  S255  1  0.87862161  0.75215883  0.53625322  1
