# generated using pymatgen
data_La9Ce10Pr6Nd4Sm3(BiS2)32
_symmetry_space_group_name_H-M   'P 1'
_cell_length_a   16.20324649
_cell_length_b   16.19430191
_cell_length_c   27.20135735
_cell_angle_alpha   89.93632153
_cell_angle_beta   89.86545416
_cell_angle_gamma   89.86025608
_symmetry_Int_Tables_number   1
_chemical_formula_structural   La9Ce10Pr6Nd4Sm3(BiS2)32
_chemical_formula_sum   'La18 Ce20 Pr12 Nd8 Sm6 Bi64 S128'
_cell_volume   7137.59812044
_cell_formula_units_Z   2
loop_
 _symmetry_equiv_pos_site_id
 _symmetry_equiv_pos_as_xyz
  1  'x, y, z'
loop_
 _atom_type_symbol
 _atom_type_oxidation_number
  La3+  3.0
  Ce3+  3.0
  Pr3+  3.0
  Nd3+  3.0
  Sm3+  3.0
  Bi2+  2.0
  S2-  -2.0
loop_
 _atom_site_type_symbol
 _atom_site_label
 _atom_site_symmetry_multiplicity
 _atom_site_fract_x
 _atom_site_fract_y
 _atom_site_fract_z
 _atom_site_occupancy
  La3+  La0  1  0.14517870  0.23592545  0.91683374  1
  La3+  La1  1  0.25414412  0.37005951  0.61009713  1
  La3+  La2  1  0.24582757  0.10760897  0.57458075  1
  La3+  La3  1  0.88481384  0.24828128  0.91856363  1
  La3+  La4  1  0.14589887  0.75258299  0.93292311  1
  La3+  La5  1  0.25799266  0.61739718  0.07363402  1
  La3+  La6  1  -0.01124763  0.34966920  0.57995409  1
  La3+  La7  1  0.14836245  0.50841746  0.91494131  1
  La3+  La8  1  0.62100244  0.22888163  0.42769248  1
  La3+  La9  1  0.75298450  0.85411333  0.56890055  1
  La3+  La10  1  0.62483702  -0.02447296  0.42096463  1
  La3+  La11  1  0.64312684  0.74579014  0.90592399  1
  La3+  La12  1  0.01875563  0.13285427  0.06718082  1
  La3+  La13  1  0.74243023  0.35245899  0.57166162  1
  La3+  La14  1  0.74316592  0.09991731  0.56162415  1
  La3+  La15  1  0.49900495  0.85607644  0.56485544  1
  La3+  La16  1  0.39164854  0.24437565  0.93514874  1
  La3+  La17  1  0.26716649  0.86984346  0.09175467  1
  Ce3+  Ce18  1  0.51985720  0.12355313  0.05767846  1
  Ce3+  Ce19  1  0.62264980  0.48138966  0.44635726  1
  Ce3+  Ce20  1  0.12206046  0.73148548  0.44677596  1
  Ce3+  Ce21  1  0.14272461  -0.00205149  0.94028800  1
  Ce3+  Ce22  1  0.37368471  0.47462046  0.43998760  1
  Ce3+  Ce23  1  0.49745930  0.10056136  0.56461740  1
  Ce3+  Ce24  1  0.64166468  0.24712436  0.93342380  1
  Ce3+  Ce25  1  0.89356163  0.50026856  0.94116385  1
  Ce3+  Ce26  1  0.87146921  0.73324720  0.44115562  1
  Ce3+  Ce27  1  0.24535903  0.85978877  0.57138272  1
  Ce3+  Ce28  1  0.88856166  0.00134520  0.94801174  1
  Ce3+  Ce29  1  0.26606486  0.11485564  0.06846879  1
  Ce3+  Ce30  1  0.87125176  -0.00695544  0.42719782  1
  Ce3+  Ce31  1  0.51781551  0.62432997  0.05842489  1
  Ce3+  Ce32  1  0.01918684  0.87287482  0.05436960  1
  Ce3+  Ce33  1  0.52607622  0.87335895  0.06699336  1
  Ce3+  Ce34  1  0.39323005  0.75199251  0.94965654  1
  Ce3+  Ce35  1  0.37131250  -0.01964048  0.44529849  1
  Ce3+  Ce36  1  0.39404669  -0.00599088  0.94757144  1
  Ce3+  Ce37  1  -0.00659552  0.85809569  0.55561895  1
  Pr3+  Pr38  1  0.76566343  0.86790640  0.06530042  1
  Pr3+  Pr39  1  0.39249567  0.50375404  0.93575533  1
  Pr3+  Pr40  1  0.26362498  0.37339027  0.05600087  1
  Pr3+  Pr41  1  0.64392411  0.49962836  0.93623904  1
  Pr3+  Pr42  1  0.12372114  -0.01788476  0.44196083  1
  Pr3+  Pr43  1  0.77197998  0.13266129  0.08489019  1
  Pr3+  Pr44  1  0.36959134  0.73008994  0.43916364  1
  Pr3+  Pr45  1  0.87110562  0.48033302  0.44509625  1
  Pr3+  Pr46  1  0.74579476  0.60946197  0.56702033  1
  Pr3+  Pr47  1  0.64735463  -0.00194747  0.93802253  1
  Pr3+  Pr48  1  0.87251963  0.24056435  0.42378949  1
  Pr3+  Pr49  1  0.24582421  0.60521433  0.56184877  1
  Nd3+  Nd50  1  0.12342964  0.23431217  0.45163566  1
  Nd3+  Nd51  1  0.37033053  0.23082865  0.44672510  1
  Nd3+  Nd52  1  0.76539531  0.62115656  0.05632632  1
  Nd3+  Nd53  1  0.49519871  0.60888787  0.56457622  1
  Nd3+  Nd54  1  0.12186877  0.47664318  0.44594995  1
  Nd3+  Nd55  1  -0.00011266  0.60250661  0.56182857  1
  Nd3+  Nd56  1  -0.00753769  0.10741329  0.56155102  1
  Nd3+  Nd57  1  0.01792108  0.36967664  0.04142436  1
  Sm3+  Sm58  1  0.62501168  0.73147661  0.43663242  1
  Sm3+  Sm59  1  0.88810070  0.74980220  0.93653719  1
  Sm3+  Sm60  1  0.01832463  0.62271451  0.05442308  1
  Sm3+  Sm61  1  0.76736298  0.37232502  0.05915024  1
  Sm3+  Sm62  1  0.49595352  0.34991105  0.56543287  1
  Sm3+  Sm63  1  0.51667494  0.37086217  0.04854359  1
  Bi2+  Bi64  1  -0.02152541  0.10663780  0.25339487  1
  Bi2+  Bi65  1  -0.03328495  0.04972827  0.78932549  1
  Bi2+  Bi66  1  0.03072594  0.38807249  0.29441363  1
  Bi2+  Bi67  1  -0.02424828  0.37585086  0.79538102  1
  Bi2+  Bi68  1  -0.02015495  0.63756890  0.23880253  1
  Bi2+  Bi69  1  -0.03570597  0.64529028  0.79627852  1
  Bi2+  Bi70  1  -0.00097741  0.81980887  0.28488448  1
  Bi2+  Bi71  1  -0.01578628  0.84049995  0.78650739  1
  Bi2+  Bi72  1  0.23190476  0.14854481  0.31180893  1
  Bi2+  Bi73  1  0.25214678  0.08043473  0.79777673  1
  Bi2+  Bi74  1  0.26124217  0.37395609  0.32431830  1
  Bi2+  Bi75  1  0.25160934  0.37219731  0.80883251  1
  Bi2+  Bi76  1  0.22457058  0.62442741  0.30993095  1
  Bi2+  Bi77  1  0.25106452  0.65116646  0.78892617  1
  Bi2+  Bi78  1  0.24568368  0.89016786  0.31493060  1
  Bi2+  Bi79  1  0.17106616  0.88089156  0.81857948  1
  Bi2+  Bi80  1  0.49581989  0.20968228  0.28744211  1
  Bi2+  Bi81  1  0.50797796  0.21736624  0.81848405  1
  Bi2+  Bi82  1  0.53998670  0.47104696  0.22162025  1
  Bi2+  Bi83  1  0.49841507  0.40289586  0.78941847  1
  Bi2+  Bi84  1  0.53623310  0.64281300  0.27593493  1
  Bi2+  Bi85  1  0.43874123  0.66590133  0.76065973  1
  Bi2+  Bi86  1  0.48998807  0.89157308  0.28672788  1
  Bi2+  Bi87  1  0.36581546  0.86863868  0.78464846  1
  Bi2+  Bi88  1  0.74926296  0.11366685  0.30258738  1
  Bi2+  Bi89  1  0.68207808  0.15047613  0.79832954  1
  Bi2+  Bi90  1  0.75908818  0.40166794  0.29623998  1
  Bi2+  Bi91  1  0.68868177  0.42734422  0.80123443  1
  Bi2+  Bi92  1  0.72136848  0.59583302  0.29662483  1
  Bi2+  Bi93  1  0.70544709  0.66370156  0.77595525  1
  Bi2+  Bi94  1  0.73937523  0.80988221  0.28992905  1
  Bi2+  Bi95  1  0.73750230  0.90266968  0.79636269  1
  Bi2+  Bi96  1  0.13312205  0.00910436  0.20755800  1
  Bi2+  Bi97  1  0.11545677  -0.02354908  0.71904552  1
  Bi2+  Bi98  1  0.19967489  0.24274124  0.21675689  1
  Bi2+  Bi99  1  0.12046632  0.23817884  0.71438858  1
  Bi2+  Bi100  1  0.12233600  0.41805961  0.19370975  1
  Bi2+  Bi101  1  0.11955175  0.51610063  0.71039945  1
  Bi2+  Bi102  1  0.13314782  0.74672671  0.20790786  1
  Bi2+  Bi103  1  0.13137143  0.78301214  0.71186187  1
  Bi2+  Bi104  1  0.36638626  0.10206278  0.23027548  1
  Bi2+  Bi105  1  0.37664157  0.02244367  0.71396793  1
  Bi2+  Bi106  1  0.38344069  0.30936867  0.20923301  1
  Bi2+  Bi107  1  0.40613226  0.21429110  0.72049579  1
  Bi2+  Bi108  1  0.31161675  0.49533249  0.23813360  1
  Bi2+  Bi109  1  0.46724293  0.51497727  0.69320480  1
  Bi2+  Bi110  1  0.38523138  0.75921256  0.23073520  1
  Bi2+  Bi111  1  0.31653476  0.76235428  0.68863469  1
  Bi2+  Bi112  1  0.59018608  -0.01224513  0.21449622  1
  Bi2+  Bi113  1  0.61489161  0.07023895  0.70432817  1
  Bi2+  Bi114  1  0.62235679  0.22552127  0.19888285  1
  Bi2+  Bi115  1  0.63014051  0.35878981  0.70048097  1
  Bi2+  Bi116  1  0.72573682  0.51042593  0.18825890  1
  Bi2+  Bi117  1  0.66196772  0.54544415  0.68298329  1
  Bi2+  Bi118  1  0.58919728  0.73814880  0.18285628  1
  Bi2+  Bi119  1  0.58810734  0.82749082  0.69978796  1
  Bi2+  Bi120  1  0.86588210  -0.05305737  0.24783847  1
  Bi2+  Bi121  1  0.84513120  -0.01744648  0.70739893  1
  Bi2+  Bi122  1  0.89879729  0.26033918  0.20498335  1
  Bi2+  Bi123  1  0.86675966  0.22865328  0.71308673  1
  Bi2+  Bi124  1  0.91114085  0.46392685  0.20562921  1
  Bi2+  Bi125  1  0.84329920  0.53277222  0.73253535  1
  Bi2+  Bi126  1  0.87345644  0.78050874  0.19058870  1
  Bi2+  Bi127  1  0.87251429  0.72830979  0.70066878  1
  S2-  S128  1  -0.08402416  0.11863025  0.15071561  1
  S2-  S129  1  -0.00470740  0.15644652  0.65875861  1
  S2-  S130  1  0.02075466  0.31362444  0.13566822  1
  S2-  S131  1  0.04960797  0.37768395  0.67389561  1
  S2-  S132  1  0.08557293  0.62039059  0.14439561  1
  S2-  S133  1  0.00250386  0.62083738  0.66045178  1
  S2-  S134  1  0.09024281  0.88109825  0.14432395  1
  S2-  S135  1  -0.08474022  0.87611000  0.64331018  1
  S2-  S136  1  0.14488491  0.13648762  0.13891286  1
  S2-  S137  1  0.25534525  0.20813785  0.65797366  1
  S2-  S138  1  0.26479729  0.47811964  0.13806509  1
  S2-  S139  1  0.22669585  0.37776596  0.71569238  1
  S2-  S140  1  0.27416908  0.72802537  0.15261688  1
  S2-  S141  1  0.25143706  0.54203121  0.65418971  1
  S2-  S142  1  0.27879971  0.99774221  0.16150020  1
  S2-  S143  1  0.24290651  0.97618612  0.64781556  1
  S2-  S144  1  0.50164066  0.10633667  0.15533006  1
  S2-  S145  1  0.52422451  0.18414455  0.65159768  1
  S2-  S146  1  0.52284447  0.34849625  0.14615600  1
  S2-  S147  1  0.41546167  0.37057420  0.65187809  1
  S2-  S148  1  0.49048661  0.59835279  0.15421981  1
  S2-  S149  1  0.51052996  0.73310513  0.64190943  1
  S2-  S150  1  0.44530329  0.85736077  0.15633537  1
  S2-  S151  1  0.49554921  0.96907125  0.64635005  1
  S2-  S152  1  0.71159310  0.08527556  0.18193795  1
  S2-  S153  1  0.75417918  0.14913406  0.66050521  1
  S2-  S154  1  0.75533772  0.28152455  0.14314772  1
  S2-  S155  1  0.84947581  0.34881076  0.65083649  1
  S2-  S156  1  0.74827918  0.67773887  0.15022733  1
  S2-  S157  1  0.73627041  0.72916904  0.64377360  1
  S2-  S158  1  0.65427475  0.88308040  0.14293909  1
  S2-  S159  1  0.70246803  0.94461869  0.65200184  1
  S2-  S160  1  0.13912307  0.00344484  0.34092184  1
  S2-  S161  1  0.11324664  0.08115128  0.85648786  1
  S2-  S162  1  0.11836013  0.26394666  0.35208948  1
  S2-  S163  1  0.10499376  0.27806749  0.81645975  1
  S2-  S164  1  0.11029260  0.51909355  0.34787504  1
  S2-  S165  1  0.10287666  0.46775720  0.81578906  1
  S2-  S166  1  0.13216976  0.76081564  0.34995645  1
  S2-  S167  1  0.11967631  0.65766678  0.84981903  1
  S2-  S168  1  0.37450381  -0.01608146  0.34686215  1
  S2-  S169  1  0.38455173  0.00475672  0.84953753  1
  S2-  S170  1  0.39886425  0.30859448  0.35738720  1
  S2-  S171  1  0.29427762  0.22369136  0.85283328  1
  S2-  S172  1  0.35439791  0.52124304  0.34498526  1
  S2-  S173  1  0.30074646  0.51779567  0.85112160  1
  S2-  S174  1  0.34726054  0.74879854  0.33928194  1
  S2-  S175  1  0.37765203  0.72684056  0.85242390  1
  S2-  S176  1  0.59668598  0.10455917  0.34911041  1
  S2-  S177  1  0.62159726  0.00067223  0.83648140  1
  S2-  S178  1  0.74119080  0.25407638  0.35174260  1
  S2-  S179  1  0.73828450  0.28549314  0.85464335  1
  S2-  S180  1  0.62508337  0.44691090  0.35000191  1
  S2-  S181  1  0.62757863  0.59094702  0.84985640  1
  S2-  S182  1  0.60088878  0.82853791  0.35482969  1
  S2-  S183  1  0.59925193  0.80078953  0.80555193  1
  S2-  S184  1  0.76402563  -0.03934087  0.35112158  1
  S2-  S185  1  0.84312121  0.00199456  0.85367193  1
  S2-  S186  1  0.90327532  0.11478957  0.35204650  1
  S2-  S187  1  0.91540776  0.21159183  0.81718132  1
  S2-  S188  1  0.90082300  0.38922062  0.36026109  1
  S2-  S189  1  0.88438104  0.50877531  0.84316194  1
  S2-  S190  1  0.83475319  0.70008397  0.34729476  1
  S2-  S191  1  0.79537001  0.76208815  0.85328354  1
  S2-  S192  1  0.00243031  0.11031252  0.45640547  1
  S2-  S193  1  0.00936344  0.12554187  0.95616616  1
  S2-  S194  1  -0.00231905  0.35609783  0.46664308  1
  S2-  S195  1  0.01706326  0.37183496  0.93557947  1
  S2-  S196  1  -0.00275924  0.60537465  0.45454193  1
  S2-  S197  1  0.01248099  0.62690693  0.95068108  1
  S2-  S198  1  -0.00475383  0.85962077  0.44807190  1
  S2-  S199  1  0.01210912  0.87327210  0.94691744  1
  S2-  S200  1  0.24670023  0.10740763  0.46128477  1
  S2-  S201  1  0.26928915  0.11553376  0.96018999  1
  S2-  S202  1  0.24752160  0.35697552  0.45784763  1
  S2-  S203  1  0.26761491  0.37537054  0.94855856  1
  S2-  S204  1  0.24479827  0.60386391  0.45497106  1
  S2-  S205  1  0.26885970  0.62730221  0.96029707  1
  S2-  S206  1  0.24605489  0.85573892  0.46133004  1
  S2-  S207  1  0.26883183  0.87511186  0.95414607  1
  S2-  S208  1  0.49227732  0.10570037  0.45635076  1
  S2-  S209  1  0.51890512  0.12055012  0.95137179  1
  S2-  S210  1  0.50047377  0.35578138  0.46034738  1
  S2-  S211  1  0.51744243  0.37504803  0.94373388  1
  S2-  S212  1  0.49829780  0.60873118  0.45319956  1
  S2-  S213  1  0.51773209  0.62650960  0.95190512  1
  S2-  S214  1  0.49326963  0.85316399  0.45563166  1
  S2-  S215  1  0.52423888  0.87059537  0.95119474  1
  S2-  S216  1  0.74656589  0.10871245  0.45321080  1
  S2-  S217  1  0.76580966  0.12649553  0.95231925  1
  S2-  S218  1  0.74518223  0.35955960  0.46266387  1
  S2-  S219  1  0.76847246  0.37952424  0.95621518  1
  S2-  S220  1  0.74562644  0.60648236  0.45729575  1
  S2-  S221  1  0.76842696  0.62431004  0.95095416  1
  S2-  S222  1  0.74856795  0.85135672  0.45764105  1
  S2-  S223  1  0.76687808  0.87098914  0.95845917  1
  S2-  S224  1  0.14333709  -0.00551581  0.04390993  1
  S2-  S225  1  0.11594323  -0.01862586  0.54908292  1
  S2-  S226  1  0.14625656  0.24962357  0.03061815  1
  S2-  S227  1  0.12025962  0.23237459  0.55617257  1
  S2-  S228  1  0.13576137  0.49697331  0.03216662  1
  S2-  S229  1  0.12257633  0.47593038  0.55396365  1
  S2-  S230  1  0.13991603  0.74853452  0.04140552  1
  S2-  S231  1  0.12072001  0.73307496  0.55400176  1
  S2-  S232  1  0.39666011  -0.00550485  0.05198437  1
  S2-  S233  1  0.36884206  -0.01993717  0.54796175  1
  S2-  S234  1  0.39022083  0.24795459  0.04572526  1
  S2-  S235  1  0.37316674  0.23190779  0.55104431  1
  S2-  S236  1  0.39624977  0.49506952  0.04169106  1
  S2-  S237  1  0.37483677  0.48291519  0.54676505  1
  S2-  S238  1  0.39418525  0.74786586  0.05160462  1
  S2-  S239  1  0.36725755  0.73115163  0.54629709  1
  S2-  S240  1  0.64965549  0.00726987  0.04614446  1
  S2-  S241  1  0.62177252  -0.02169645  0.53570883  1
  S2-  S242  1  0.64194521  0.24915882  0.04006049  1
  S2-  S243  1  0.62020123  0.23063187  0.54311198  1
  S2-  S244  1  0.64130449  0.49425204  0.04550122  1
  S2-  S245  1  0.61720467  0.48227906  0.55299944  1
  S2-  S246  1  0.64274030  0.74394611  0.04074755  1
  S2-  S247  1  0.62118442  0.72847381  0.53862353  1
  S2-  S248  1  0.88889467  -0.00435013  0.05373474  1
  S2-  S249  1  0.87289221  -0.01593607  0.53801339  1
  S2-  S250  1  0.88671640  0.25172247  0.03504325  1
  S2-  S251  1  0.86759597  0.22751572  0.54336184  1
  S2-  S252  1  0.89359934  0.49743371  0.04899702  1
  S2-  S253  1  0.86956518  0.48531946  0.55281881  1
  S2-  S254  1  0.89291578  0.74498417  0.04284922  1
  S2-  S255  1  0.87720707  0.72618176  0.54535577  1
