# generated using pymatgen
data_La9Ce10Pr6Nd4Sm3(BiS2)32
_symmetry_space_group_name_H-M   'P 1'
_cell_length_a   16.11520053
_cell_length_b   16.06438390
_cell_length_c   27.29507258
_cell_angle_alpha   89.81726632
_cell_angle_beta   89.48298953
_cell_angle_gamma   89.94788075
_symmetry_Int_Tables_number   1
_chemical_formula_structural   La9Ce10Pr6Nd4Sm3(BiS2)32
_chemical_formula_sum   'La18 Ce20 Pr12 Nd8 Sm6 Bi64 S128'
_cell_volume   7065.84299521
_cell_formula_units_Z   2
loop_
 _symmetry_equiv_pos_site_id
 _symmetry_equiv_pos_as_xyz
  1  'x, y, z'
loop_
 _atom_type_symbol
 _atom_type_oxidation_number
  La3+  3.0
  Ce3+  3.0
  Pr3+  3.0
  Nd3+  3.0
  Sm3+  3.0
  Bi2+  2.0
  S2-  -2.0
loop_
 _atom_site_type_symbol
 _atom_site_label
 _atom_site_symmetry_multiplicity
 _atom_site_fract_x
 _atom_site_fract_y
 _atom_site_fract_z
 _atom_site_occupancy
  La3+  La0  1  0.63805976  -0.00610786  0.92336313  1
  La3+  La1  1  0.73716204  0.63495730  0.58503965  1
  La3+  La2  1  0.38379090  -0.00296840  0.90669811  1
  La3+  La3  1  0.36350897  0.49782190  0.40989882  1
  La3+  La4  1  0.49848401  0.11504656  0.06114502  1
  La3+  La5  1  0.24460157  0.37995437  0.57515461  1
  La3+  La6  1  0.49038690  0.61851661  0.57071727  1
  La3+  La7  1  0.02834917  0.87685724  0.10367583  1
  La3+  La8  1  0.61600544  0.75408503  0.43307726  1
  La3+  La9  1  -0.00935005  0.87905801  0.57223802  1
  La3+  La10  1  0.51044146  0.37477733  0.07425798  1
  La3+  La11  1  0.74790048  0.85613916  0.07273834  1
  La3+  La12  1  0.62786657  0.73741295  0.91854670  1
  La3+  La13  1  0.74535996  0.11278227  0.07179371  1
  La3+  La14  1  0.62301143  0.23966962  0.93433385  1
  La3+  La15  1  -0.00985486  0.62497664  0.57755767  1
  La3+  La16  1  0.50083702  0.86301265  0.05637593  1
  La3+  La17  1  0.12363082  0.24092218  0.92467006  1
  Ce3+  Ce18  1  0.24959997  0.86151076  0.04245839  1
  Ce3+  Ce19  1  0.12160379  0.50229935  0.44411121  1
  Ce3+  Ce20  1  0.36832424  0.00500795  0.44124540  1
  Ce3+  Ce21  1  0.87963455  0.23804383  0.94177346  1
  Ce3+  Ce22  1  0.11310700  0.00419764  0.44082736  1
  Ce3+  Ce23  1  0.49280864  0.87685184  0.56430857  1
  Ce3+  Ce24  1  0.24300943  0.62903865  0.56571749  1
  Ce3+  Ce25  1  0.24475915  0.87710717  0.56570087  1
  Ce3+  Ce26  1  0.37944985  0.73390198  0.92639558  1
  Ce3+  Ce27  1  0.74946342  0.61811456  0.05166397  1
  Ce3+  Ce28  1  0.25253783  0.61993762  0.06886066  1
  Ce3+  Ce29  1  0.75044515  0.36954407  0.04733889  1
  Ce3+  Ce30  1  0.61974262  0.25248888  0.44230525  1
  Ce3+  Ce31  1  0.37541678  0.49059322  0.93605391  1
  Ce3+  Ce32  1  0.36820848  0.24478451  0.93791606  1
  Ce3+  Ce33  1  0.49430928  0.12749567  0.56416076  1
  Ce3+  Ce34  1  0.74157545  0.87669211  0.55382455  1
  Ce3+  Ce35  1  -0.00108455  0.36454786  0.06881492  1
  Ce3+  Ce36  1  0.87502011  0.74272712  0.93255378  1
  Ce3+  Ce37  1  0.87480188  -0.01374906  0.95230827  1
  Pr3+  Pr38  1  0.62043581  0.48822864  0.92459993  1
  Pr3+  Pr39  1  0.61954738  0.50583499  0.43371659  1
  Pr3+  Pr40  1  -0.01064782  0.37417074  0.57244393  1
  Pr3+  Pr41  1  0.11970115  0.75318073  0.44358839  1
  Pr3+  Pr42  1  0.24063806  0.11447461  0.06299216  1
  Pr3+  Pr43  1  0.00087662  0.12117832  0.06547813  1
  Pr3+  Pr44  1  0.85618622  0.00198582  0.38388025  1
  Pr3+  Pr45  1  0.88810438  0.49002137  0.92480340  1
  Pr3+  Pr46  1  0.12734910  -0.00901856  0.92921160  1
  Pr3+  Pr47  1  0.12349169  0.73660695  0.92734009  1
  Pr3+  Pr48  1  0.61235771  0.00420104  0.43553468  1
  Pr3+  Pr49  1  0.86991837  0.50685986  0.43889499  1
  Nd3+  Nd50  1  0.25717510  0.36539488  0.07464354  1
  Nd3+  Nd51  1  0.87151453  0.75113967  0.43829059  1
  Nd3+  Nd52  1  0.37086515  0.74817459  0.43531610  1
  Nd3+  Nd53  1  0.74233520  0.12599808  0.55623589  1
  Nd3+  Nd54  1  0.24408206  0.12519418  0.57207980  1
  Nd3+  Nd55  1  -0.00190203  0.62046868  0.06159643  1
  Nd3+  Nd56  1  0.11927395  0.25294717  0.44701844  1
  Nd3+  Nd57  1  0.87263241  0.25060970  0.43738902  1
  Sm3+  Sm58  1  0.74252517  0.38023320  0.55418921  1
  Sm3+  Sm59  1  0.36608674  0.25546483  0.44384777  1
  Sm3+  Sm60  1  0.49324658  0.38100688  0.55406089  1
  Sm3+  Sm61  1  0.12649472  0.48932266  0.95277408  1
  Sm3+  Sm62  1  0.49647556  0.61577926  0.05773273  1
  Sm3+  Sm63  1  -0.00904272  0.12534075  0.56799455  1
  Bi2+  Bi64  1  0.01394003  0.22441582  0.29578018  1
  Bi2+  Bi65  1  0.03661503  0.06643829  0.77859662  1
  Bi2+  Bi66  1  -0.05175577  0.40177246  0.32626873  1
  Bi2+  Bi67  1  0.04709989  0.34936039  0.79396501  1
  Bi2+  Bi68  1  -0.02385110  0.58762494  0.27951533  1
  Bi2+  Bi69  1  0.00108006  0.59858158  0.78792895  1
  Bi2+  Bi70  1  0.04231702  0.85891700  0.30664746  1
  Bi2+  Bi71  1  0.01116000  0.87140763  0.79902819  1
  Bi2+  Bi72  1  0.25331973  0.07604019  0.33282654  1
  Bi2+  Bi73  1  0.26952718  0.18135979  0.78978844  1
  Bi2+  Bi74  1  0.24246510  0.36898427  0.29360928  1
  Bi2+  Bi75  1  0.27911548  0.41326028  0.77723530  1
  Bi2+  Bi76  1  0.25374802  0.68886539  0.27641194  1
  Bi2+  Bi77  1  0.19932298  0.60567349  0.80109674  1
  Bi2+  Bi78  1  0.26375980  0.89304520  0.28533369  1
  Bi2+  Bi79  1  0.19966949  0.80793591  0.80148664  1
  Bi2+  Bi80  1  0.43068948  0.11718849  0.28417474  1
  Bi2+  Bi81  1  0.52462647  0.10951909  0.78281031  1
  Bi2+  Bi82  1  0.51035666  0.36992861  0.29065925  1
  Bi2+  Bi83  1  0.53173792  0.34426811  0.77683731  1
  Bi2+  Bi84  1  0.51380049  0.65734548  0.30063357  1
  Bi2+  Bi85  1  0.48970515  0.60035163  0.80113158  1
  Bi2+  Bi86  1  0.49394269  0.90475246  0.28115597  1
  Bi2+  Bi87  1  0.45454136  0.87036509  0.77492196  1
  Bi2+  Bi88  1  0.74279751  0.24120986  0.28885012  1
  Bi2+  Bi89  1  0.80091281  0.14013259  0.80637578  1
  Bi2+  Bi90  1  0.74952001  0.43028415  0.32376754  1
  Bi2+  Bi91  1  0.72827571  0.33914866  0.79563841  1
  Bi2+  Bi92  1  0.77234902  0.60640722  0.27660661  1
  Bi2+  Bi93  1  0.76009164  0.64254680  0.77839058  1
  Bi2+  Bi94  1  0.73951886  0.85920227  0.29498382  1
  Bi2+  Bi95  1  0.72954111  0.89834157  0.78237635  1
  Bi2+  Bi96  1  0.19050840  0.04917686  0.22669357  1
  Bi2+  Bi97  1  0.11722612  -0.06472368  0.70572275  1
  Bi2+  Bi98  1  0.11413358  0.30322413  0.20740745  1
  Bi2+  Bi99  1  0.10851420  0.21831561  0.71108131  1
  Bi2+  Bi100  1  0.12537512  0.50389966  0.21671567  1
  Bi2+  Bi101  1  0.13199600  0.41673891  0.69900200  1
  Bi2+  Bi102  1  0.14745313  0.69651575  0.18656431  1
  Bi2+  Bi103  1  0.11592033  0.68963569  0.70763892  1
  Bi2+  Bi104  1  0.37502129  -0.00921116  0.19861745  1
  Bi2+  Bi105  1  0.34507235  0.01834661  0.72537813  1
  Bi2+  Bi106  1  0.33462292  0.23822357  0.21985527  1
  Bi2+  Bi107  1  0.37891859  0.28398482  0.71240970  1
  Bi2+  Bi108  1  0.40413325  0.51408054  0.19460193  1
  Bi2+  Bi109  1  0.37858394  0.54411166  0.70925767  1
  Bi2+  Bi110  1  0.40795092  0.78392299  0.20415453  1
  Bi2+  Bi111  1  0.33715046  0.73377533  0.72528300  1
  Bi2+  Bi112  1  0.68629213  0.01808191  0.20030505  1
  Bi2+  Bi113  1  0.60447233  0.01720522  0.69503597  1
  Bi2+  Bi114  1  0.60610569  0.27160197  0.21110584  1
  Bi2+  Bi115  1  0.65679649  0.24175669  0.70603398  1
  Bi2+  Bi116  1  0.65126478  0.47223073  0.22222402  1
  Bi2+  Bi117  1  0.61760049  0.48861887  0.70369001  1
  Bi2+  Bi118  1  0.60796648  0.76010472  0.20466259  1
  Bi2+  Bi119  1  0.62541644  0.77502663  0.71363754  1
  Bi2+  Bi120  1  0.93380964  0.03529171  0.20255199  1
  Bi2+  Bi121  1  0.86532683  0.01253341  0.72178757  1
  Bi2+  Bi122  1  0.89169076  0.33199951  0.21754603  1
  Bi2+  Bi123  1  0.88266995  0.26809738  0.73099692  1
  Bi2+  Bi124  1  0.94066718  0.50345941  0.17516103  1
  Bi2+  Bi125  1  0.86505704  0.46278803  0.71259981  1
  Bi2+  Bi126  1  0.86419748  0.76856821  0.20518886  1
  Bi2+  Bi127  1  0.87482004  0.81561258  0.71957364  1
  S2-  S128  1  0.08858709  0.04358711  0.14301344  1
  S2-  S129  1  -0.02635122  0.24170615  0.64447137  1
  S2-  S130  1  -0.00972087  0.24742646  0.14315658  1
  S2-  S131  1  -0.00412905  0.49076680  0.65001107  1
  S2-  S132  1  -0.01528545  0.71635581  0.14486164  1
  S2-  S133  1  -0.01239928  0.75466120  0.64990486  1
  S2-  S134  1  0.00548340  0.87626119  0.21198771  1
  S2-  S135  1  -0.00302217  1.00796800  0.64678040  1
  S2-  S136  1  0.23197025  0.22955827  0.14084579  1
  S2-  S137  1  0.24846370  -0.00502608  0.64440817  1
  S2-  S138  1  0.25425946  0.49759404  0.14524131  1
  S2-  S139  1  0.25405208  0.24507938  0.64793474  1
  S2-  S140  1  0.38517408  0.65874173  0.13715795  1
  S2-  S141  1  0.24758675  0.51672684  0.64394441  1
  S2-  S142  1  0.19722483  0.83362887  0.13505319  1
  S2-  S143  1  0.24379891  0.75349385  0.64242613  1
  S2-  S144  1  0.59653690  0.11745026  0.14665473  1
  S2-  S145  1  0.46273699  0.10770890  0.66050682  1
  S2-  S146  1  0.40711834  0.35530323  0.15684019  1
  S2-  S147  1  0.48844088  0.46003514  0.64200372  1
  S2-  S148  1  0.54030582  0.52286161  0.14126437  1
  S2-  S149  1  0.59803958  0.63731468  0.65263575  1
  S2-  S150  1  0.60093084  0.88559585  0.14271386  1
  S2-  S151  1  0.50337919  0.87610440  0.66341482  1
  S2-  S152  1  0.80172334  0.12557095  0.16862879  1
  S2-  S153  1  0.73425159  0.10803490  0.65680676  1
  S2-  S154  1  0.68719621  0.36200953  0.13934085  1
  S2-  S155  1  0.72682515  0.38772341  0.65250308  1
  S2-  S156  1  0.74025986  0.70015897  0.14066183  1
  S2-  S157  1  0.81785098  0.60312088  0.67618366  1
  S2-  S158  1  0.81848445  0.91398794  0.16191728  1
  S2-  S159  1  0.74215659  0.81046663  0.64531585  1
  S2-  S160  1  0.03159802  0.00335005  0.35481848  1
  S2-  S161  1  0.14482888  0.10565384  0.85244399  1
  S2-  S162  1  0.16290601  0.23106746  0.34940319  1
  S2-  S163  1  0.25299236  0.30517957  0.86061826  1
  S2-  S164  1  0.20288331  0.48701008  0.35693641  1
  S2-  S165  1  0.04610651  0.47970252  0.86463805  1
  S2-  S166  1  0.12104557  0.71872190  0.34361412  1
  S2-  S167  1  -0.00720817  0.71864708  0.85515177  1
  S2-  S168  1  0.47727590  0.01321649  0.36254428  1
  S2-  S169  1  0.30460604  -0.04944360  0.81692961  1
  S2-  S170  1  0.37333218  0.33840297  0.35561409  1
  S2-  S171  1  0.40177961  0.15466470  0.85288673  1
  S2-  S172  1  0.35807103  0.64446954  0.34976791  1
  S2-  S173  1  0.48703203  0.44928470  0.85673357  1
  S2-  S174  1  0.48990193  0.78924862  0.35815296  1
  S2-  S175  1  0.34329866  0.60537236  0.86021178  1
  S2-  S176  1  0.69053676  -0.01187074  0.34533971  1
  S2-  S177  1  0.52757337  -0.02950240  0.84336768  1
  S2-  S178  1  0.59533799  0.24003736  0.34614543  1
  S2-  S179  1  0.64519156  0.14130209  0.85150298  1
  S2-  S180  1  0.51926620  0.50607087  0.34966481  1
  S2-  S181  1  0.63892269  0.59821343  0.84314684  1
  S2-  S182  1  0.67215397  0.70400525  0.33757386  1
  S2-  S183  1  0.49333144  0.75460190  0.84775595  1
  S2-  S184  1  0.84417006  -0.00093426  0.27635659  1
  S2-  S185  1  0.79991625  -0.00801971  0.86263662  1
  S2-  S186  1  0.86948220  0.17126558  0.34935153  1
  S2-  S187  1  0.97378923  0.25112382  0.86041003  1
  S2-  S188  1  0.88343908  0.62423059  0.36179855  1
  S2-  S189  1  0.84661588  0.52693827  0.82477512  1
  S2-  S190  1  0.88396306  0.83591786  0.34901808  1
  S2-  S191  1  0.76647790  0.76342514  0.85082590  1
  S2-  S192  1  -0.00520709  0.13153596  0.46231008  1
  S2-  S193  1  -0.00044639  0.11112201  0.95692178  1
  S2-  S194  1  -0.00640200  0.37728255  0.46073260  1
  S2-  S195  1  0.00011639  0.36562249  0.96380642  1
  S2-  S196  1  -0.00186896  0.62607908  0.46455965  1
  S2-  S197  1  0.00151230  0.61426618  0.95811153  1
  S2-  S198  1  -0.00488842  0.87601419  0.46181406  1
  S2-  S199  1  0.00129271  0.86862897  0.94158100  1
  S2-  S200  1  0.24485908  0.13002528  0.46378131  1
  S2-  S201  1  0.25619829  0.11101305  0.95581646  1
  S2-  S202  1  0.24387701  0.37460552  0.46343190  1
  S2-  S203  1  0.24961836  0.37265946  0.96721833  1
  S2-  S204  1  0.24427805  0.62735995  0.45931673  1
  S2-  S205  1  0.24373739  0.61474615  0.96122844  1
  S2-  S206  1  0.24605505  0.87860251  0.45355182  1
  S2-  S207  1  0.25396226  0.86453528  0.93760520  1
  S2-  S208  1  0.49083990  0.13509292  0.45907404  1
  S2-  S209  1  0.50044367  0.11340744  0.95547747  1
  S2-  S210  1  0.49504486  0.37664407  0.45303130  1
  S2-  S211  1  0.49903601  0.36050027  0.96082826  1
  S2-  S212  1  0.49303554  0.62534668  0.45801341  1
  S2-  S213  1  0.50141495  0.61353156  0.95293838  1
  S2-  S214  1  0.48893993  0.87999306  0.46179339  1
  S2-  S215  1  0.49839751  0.87015745  0.95083686  1
  S2-  S216  1  0.74428890  0.12595335  0.45098441  1
  S2-  S217  1  0.75507139  0.11905149  0.96262406  1
  S2-  S218  1  0.74531407  0.37643596  0.45048299  1
  S2-  S219  1  0.75447902  0.36628560  0.94060715  1
  S2-  S220  1  0.74149531  0.62785598  0.45837123  1
  S2-  S221  1  0.75689347  0.60915189  0.94752481  1
  S2-  S222  1  0.74498174  0.87955110  0.45014441  1
  S2-  S223  1  0.74873631  0.86317011  0.96053064  1
  S2-  S224  1  0.12495954  -0.01551931  0.03413756  1
  S2-  S225  1  0.11943060  0.00504791  0.54523650  1
  S2-  S226  1  0.12315353  0.24388740  0.03788102  1
  S2-  S227  1  0.11750956  0.25073429  0.55125753  1
  S2-  S228  1  0.12049794  0.49154470  0.05478563  1
  S2-  S229  1  0.11628140  0.50148193  0.54751376  1
  S2-  S230  1  0.12015097  0.74234361  0.03576749  1
  S2-  S231  1  0.11721112  0.75371791  0.54827048  1
  S2-  S232  1  0.37114745  -0.01134409  0.05617435  1
  S2-  S233  1  0.37191278  0.00368152  0.54643007  1
  S2-  S234  1  0.37640951  0.23974388  0.04591950  1
  S2-  S235  1  0.37362912  0.25434020  0.54785116  1
  S2-  S236  1  0.37821072  0.49185603  0.04230273  1
  S2-  S237  1  0.36841181  0.50092180  0.54086712  1
  S2-  S238  1  0.37496925  0.74151200  0.03241914  1
  S2-  S239  1  0.37319037  0.75226883  0.54562786  1
  S2-  S240  1  0.62690916  -0.00972338  0.03748854  1
  S2-  S241  1  0.61637264  0.00248138  0.54564783  1
  S2-  S242  1  0.62548440  0.24305932  0.04124521  1
  S2-  S243  1  0.61752831  0.25532718  0.55028822  1
  S2-  S244  1  0.62883607  0.49461170  0.03182892  1
  S2-  S245  1  0.62180639  0.50187210  0.54181459  1
  S2-  S246  1  0.62010452  0.73451875  0.03548699  1
  S2-  S247  1  0.61401995  0.75288747  0.54365337  1
  S2-  S248  1  0.88569085  -0.01485870  0.05565218  1
  S2-  S249  1  0.86320891  0.00357295  0.55389984  1
  S2-  S250  1  0.86883231  0.24225251  0.04619092  1
  S2-  S251  1  0.86195822  0.25285343  0.54435163  1
  S2-  S252  1  0.87501943  0.49183894  0.04106484  1
  S2-  S253  1  0.86192028  0.50321253  0.54801966  1
  S2-  S254  1  0.87393875  0.74056918  0.03866973  1
  S2-  S255  1  0.86432089  0.74923092  0.54588781  1
