# generated using pymatgen
data_La9Ce10Pr6Nd4Sm3(BiS2)32
_symmetry_space_group_name_H-M   'P 1'
_cell_length_a   16.20816988
_cell_length_b   16.20323880
_cell_length_c   27.12964473
_cell_angle_alpha   89.82683657
_cell_angle_beta   90.31121770
_cell_angle_gamma   90.02767035
_symmetry_Int_Tables_number   1
_chemical_formula_structural   La9Ce10Pr6Nd4Sm3(BiS2)32
_chemical_formula_sum   'La18 Ce20 Pr12 Nd8 Sm6 Bi64 S128'
_cell_volume   7124.78037447
_cell_formula_units_Z   2
loop_
 _symmetry_equiv_pos_site_id
 _symmetry_equiv_pos_as_xyz
  1  'x, y, z'
loop_
 _atom_type_symbol
 _atom_type_oxidation_number
  La3+  3.0
  Ce3+  3.0
  Pr3+  3.0
  Nd3+  3.0
  Sm3+  3.0
  Bi2+  2.0
  S2-  -2.0
loop_
 _atom_site_type_symbol
 _atom_site_label
 _atom_site_symmetry_multiplicity
 _atom_site_fract_x
 _atom_site_fract_y
 _atom_site_fract_z
 _atom_site_occupancy
  La3+  La0  1  0.36726826  -0.01644944  0.91494365  1
  La3+  La1  1  0.75332477  0.85698163  0.58415807  1
  La3+  La2  1  0.85711495  0.73789220  0.41379299  1
  La3+  La3  1  0.11275843  0.49099929  0.43290227  1
  La3+  La4  1  0.74048656  0.36570905  0.56388155  1
  La3+  La5  1  0.36411660  0.48737657  0.43675516  1
  La3+  La6  1  0.26749751  0.11254478  0.06875957  1
  La3+  La7  1  0.74294815  0.60682046  0.10869059  1
  La3+  La8  1  0.63784017  -0.02173709  0.91465554  1
  La3+  La9  1  0.13458440  0.25236334  0.38227790  1
  La3+  La10  1  0.75267832  0.86423553  0.07071037  1
  La3+  La11  1  0.37453162  0.73900974  0.94155990  1
  La3+  La12  1  0.24035481  0.36055801  0.56497501  1
  La3+  La13  1  0.74931892  0.11512761  0.57683324  1
  La3+  La14  1  0.87534334  0.73587567  0.93416709  1
  La3+  La15  1  -0.00130085  0.10726915  0.08341043  1
  La3+  La16  1  0.25222740  0.86429091  0.07188779  1
  La3+  La17  1  0.36383735  0.25322038  0.91245894  1
  Ce3+  Ce18  1  0.37211262  0.49096008  0.94055916  1
  Ce3+  Ce19  1  0.75016766  0.11791565  0.05823057  1
  Ce3+  Ce20  1  -0.01048384  0.61646561  0.55060466  1
  Ce3+  Ce21  1  0.11504537  0.74831334  0.42887829  1
  Ce3+  Ce22  1  0.61935874  0.23611410  0.44961999  1
  Ce3+  Ce23  1  0.11234407  -0.00878811  0.43027970  1
  Ce3+  Ce24  1  0.25106083  0.60679983  0.07589617  1
  Ce3+  Ce25  1  -0.00070489  0.36523162  0.06029694  1
  Ce3+  Ce26  1  0.50232775  0.11225135  0.03291310  1
  Ce3+  Ce27  1  0.12567849  0.73901704  0.94751491  1
  Ce3+  Ce28  1  -0.00854110  0.36055794  0.55349600  1
  Ce3+  Ce29  1  0.12534539  0.23717713  0.95015637  1
  Ce3+  Ce30  1  0.49077713  0.62091020  0.56267169  1
  Ce3+  Ce31  1  0.74273775  0.61699107  0.56089801  1
  Ce3+  Ce32  1  -0.00295889  0.61871792  0.07061514  1
  Ce3+  Ce33  1  0.49061764  0.85990312  0.57117609  1
  Ce3+  Ce34  1  0.12582449  -0.00431518  0.94324428  1
  Ce3+  Ce35  1  0.50217507  0.86870033  0.05568123  1
  Ce3+  Ce36  1  0.49085771  0.36306442  0.55908199  1
  Ce3+  Ce37  1  0.87923376  -0.00529124  0.93992711  1
  Pr3+  Pr38  1  0.47937498  0.10765780  0.59619147  1
  Pr3+  Pr39  1  0.75267769  0.36330859  0.06794829  1
  Pr3+  Pr40  1  0.24084914  0.61554009  0.55116479  1
  Pr3+  Pr41  1  0.63224776  0.24409445  0.91822113  1
  Pr3+  Pr42  1  0.36556857  0.23672828  0.44223566  1
  Pr3+  Pr43  1  0.61720957  -0.01221837  0.45574279  1
  Pr3+  Pr44  1  0.87341139  0.48987561  0.94554322  1
  Pr3+  Pr45  1  0.36671269  -0.00812718  0.44060191  1
  Pr3+  Pr46  1  0.12633449  0.49024153  0.95168574  1
  Pr3+  Pr47  1  0.49638036  0.61280734  0.06951859  1
  Pr3+  Pr48  1  0.36809421  0.74243430  0.42942653  1
  Pr3+  Pr49  1  0.87692493  0.23858000  0.93604967  1
  Nd3+  Nd50  1  0.23731059  0.11044822  0.56034740  1
  Nd3+  Nd51  1  0.86032047  0.23669482  0.42788876  1
  Nd3+  Nd52  1  0.24264917  0.86434679  0.55719312  1
  Nd3+  Nd53  1  0.62763644  0.73862594  0.94934815  1
  Nd3+  Nd54  1  0.50573677  0.35941185  0.05134101  1
  Nd3+  Nd55  1  0.26460748  0.36002042  0.07435706  1
  Nd3+  Nd56  1  0.86321621  0.49045954  0.43846448  1
  Nd3+  Nd57  1  -0.00956403  0.86145672  0.55121510  1
  Sm3+  Sm58  1  0.61510733  0.49193771  0.44408792  1
  Sm3+  Sm59  1  0.61272817  0.74262046  0.43991553  1
  Sm3+  Sm60  1  -0.00829367  0.11283690  0.55452650  1
  Sm3+  Sm61  1  0.86043080  -0.01179801  0.44237976  1
  Sm3+  Sm62  1  0.62869547  0.49163504  0.94418723  1
  Sm3+  Sm63  1  0.00203635  0.86609997  0.05476532  1
  Bi2+  Bi64  1  -0.02297667  0.11945906  0.28578084  1
  Bi2+  Bi65  1  0.00471808  0.12088086  0.85291082  1
  Bi2+  Bi66  1  -0.07219053  0.43650915  0.31612375  1
  Bi2+  Bi67  1  -0.01380916  0.31625393  0.80842132  1
  Bi2+  Bi68  1  0.10024925  0.63860452  0.31309606  1
  Bi2+  Bi69  1  -0.01042465  0.67285745  0.80095513  1
  Bi2+  Bi70  1  0.07498345  0.81621839  0.26381090  1
  Bi2+  Bi71  1  0.04411109  0.94578437  0.77826577  1
  Bi2+  Bi72  1  0.24629718  0.11466661  0.28224478  1
  Bi2+  Bi73  1  0.16792410  0.10672490  0.78533248  1
  Bi2+  Bi74  1  0.27915490  0.38323171  0.28524061  1
  Bi2+  Bi75  1  0.23913584  0.37920507  0.79999875  1
  Bi2+  Bi76  1  0.29179695  0.65648485  0.30333118  1
  Bi2+  Bi77  1  0.28616012  0.59226681  0.81808832  1
  Bi2+  Bi78  1  0.29167841  0.85052606  0.30012168  1
  Bi2+  Bi79  1  0.22550838  0.85469585  0.78939644  1
  Bi2+  Bi80  1  0.49307170  0.11728556  0.27757453  1
  Bi2+  Bi81  1  0.50761247  0.15027952  0.80303878  1
  Bi2+  Bi82  1  0.55701079  0.30370563  0.25659196  1
  Bi2+  Bi83  1  0.52069619  0.50089174  0.72435690  1
  Bi2+  Bi84  1  0.48749052  0.61960738  0.29599448  1
  Bi2+  Bi85  1  0.46133670  0.65534714  0.78963411  1
  Bi2+  Bi86  1  0.49529792  0.90001872  0.30051544  1
  Bi2+  Bi87  1  0.49597814  0.86980718  0.79673084  1
  Bi2+  Bi88  1  0.75972082  0.11852478  0.28551863  1
  Bi2+  Bi89  1  0.83827398  0.12986762  0.79411147  1
  Bi2+  Bi90  1  0.76330139  0.34833534  0.30297155  1
  Bi2+  Bi91  1  0.79673014  0.42040417  0.81140143  1
  Bi2+  Bi92  1  0.73362126  0.62158694  0.29035768  1
  Bi2+  Bi93  1  0.73858741  0.60561776  0.78977421  1
  Bi2+  Bi94  1  0.74887183  0.88786466  0.30525712  1
  Bi2+  Bi95  1  0.74727529  0.86269245  0.78889737  1
  Bi2+  Bi96  1  0.13205991  -0.00884388  0.21308640  1
  Bi2+  Bi97  1  0.08662078  0.05707586  0.68315021  1
  Bi2+  Bi98  1  0.11989424  0.30503393  0.18414080  1
  Bi2+  Bi99  1  0.09742040  0.24681410  0.71455738  1
  Bi2+  Bi100  1  0.11341650  0.55169640  0.21148037  1
  Bi2+  Bi101  1  0.06258544  0.48317895  0.75979465  1
  Bi2+  Bi102  1  0.13708423  0.73268547  0.16331396  1
  Bi2+  Bi103  1  0.15819672  0.68503149  0.74263371  1
  Bi2+  Bi104  1  0.41780742  -0.00875628  0.19557994  1
  Bi2+  Bi105  1  0.34229149  -0.00297516  0.71065876  1
  Bi2+  Bi106  1  0.39985295  0.23404511  0.19923657  1
  Bi2+  Bi107  1  0.37180837  0.26948479  0.70459521  1
  Bi2+  Bi108  1  0.45056139  0.50074204  0.20639225  1
  Bi2+  Bi109  1  0.33050667  0.52091878  0.71179371  1
  Bi2+  Bi110  1  0.31731567  0.75762565  0.20080405  1
  Bi2+  Bi111  1  0.34466695  0.75244861  0.70171718  1
  Bi2+  Bi112  1  0.63099873  0.06275726  0.20522205  1
  Bi2+  Bi113  1  0.61396293  0.01860078  0.70849987  1
  Bi2+  Bi114  1  0.64555254  0.23905472  0.15758697  1
  Bi2+  Bi115  1  0.63436503  0.28034526  0.71825049  1
  Bi2+  Bi116  1  0.65780314  0.47028056  0.23352708  1
  Bi2+  Bi117  1  0.70357536  0.51419799  0.68099068  1
  Bi2+  Bi118  1  0.55886360  0.76364927  0.23088985  1
  Bi2+  Bi119  1  0.61236334  0.68774489  0.71289232  1
  Bi2+  Bi120  1  0.89144050  -0.00096022  0.21222063  1
  Bi2+  Bi121  1  0.89914694  0.00026169  0.71033272  1
  Bi2+  Bi122  1  0.82119462  0.25176093  0.20713185  1
  Bi2+  Bi123  1  0.90070599  0.26038044  0.71043640  1
  Bi2+  Bi124  1  0.91894670  0.49505557  0.21217987  1
  Bi2+  Bi125  1  0.89278000  0.52451566  0.71138714  1
  Bi2+  Bi126  1  0.87280899  0.77430593  0.21471296  1
  Bi2+  Bi127  1  0.89408942  0.72949543  0.70472808  1
  S2-  S128  1  0.06892329  0.13596761  0.17759502  1
  S2-  S129  1  -0.10047652  0.12362966  0.63899272  1
  S2-  S130  1  -0.04142511  0.34741000  0.15609873  1
  S2-  S131  1  0.00582397  0.36063807  0.65169023  1
  S2-  S132  1  -0.09502308  0.63543944  0.15470698  1
  S2-  S133  1  -0.00901009  0.62566642  0.64866489  1
  S2-  S134  1  0.00535807  0.93885365  0.14462413  1
  S2-  S135  1  -0.08016212  0.85892919  0.64295649  1
  S2-  S136  1  0.25886905  0.22984167  0.14459357  1
  S2-  S137  1  0.31788222  0.12780301  0.65065913  1
  S2-  S138  1  0.21743083  0.45089397  0.16189104  1
  S2-  S139  1  0.26063000  0.37645079  0.66525391  1
  S2-  S140  1  0.37256804  0.61537316  0.14712596  1
  S2-  S141  1  0.23991853  0.63506554  0.65140271  1
  S2-  S142  1  0.26297887  0.98399350  0.14649969  1
  S2-  S143  1  0.24788793  0.87926718  0.65716263  1
  S2-  S144  1  0.43940381  0.11319743  0.12482629  1
  S2-  S145  1  0.50922431  0.16345064  0.69342637  1
  S2-  S146  1  0.42336660  0.37290627  0.13932152  1
  S2-  S147  1  0.50208010  0.35966319  0.65764987  1
  S2-  S148  1  0.58096566  0.57036073  0.15591356  1
  S2-  S149  1  0.48500759  0.72874188  0.64077568  1
  S2-  S150  1  0.51576208  0.85990226  0.15421547  1
  S2-  S151  1  0.47214348  0.95697284  0.65496781  1
  S2-  S152  1  0.84965574  0.11920247  0.14120970  1
  S2-  S153  1  0.70000437  0.14142734  0.67512915  1
  S2-  S154  1  0.76734314  0.45457998  0.15704280  1
  S2-  S155  1  0.75728127  0.34043667  0.66362904  1
  S2-  S156  1  0.71918281  0.70873307  0.19501428  1
  S2-  S157  1  0.74785179  0.71051558  0.64392291  1
  S2-  S158  1  0.77674875  0.90131732  0.16998949  1
  S2-  S159  1  0.72602535  0.91494480  0.68360209  1
  S2-  S160  1  0.11638528  0.08618970  0.34542959  1
  S2-  S161  1  0.21315813  -0.01148175  0.85803302  1
  S2-  S162  1  0.14855556  0.26004044  0.27337734  1
  S2-  S163  1  0.19872946  0.26592369  0.86463912  1
  S2-  S164  1  0.16071298  0.41945773  0.34611396  1
  S2-  S165  1  0.14002445  0.50414577  0.85040618  1
  S2-  S166  1  0.12096432  0.86908245  0.35639974  1
  S2-  S167  1  0.12541875  0.75026214  0.85024476  1
  S2-  S168  1  0.33347402  0.00357868  0.34081728  1
  S2-  S169  1  0.40541154  0.00385591  0.81075156  1
  S2-  S170  1  0.31073498  0.24064330  0.34546460  1
  S2-  S171  1  0.36571495  0.22063411  0.80527208  1
  S2-  S172  1  0.38428219  0.46743340  0.33666408  1
  S2-  S173  1  0.37192266  0.41245439  0.85394238  1
  S2-  S174  1  0.49645802  0.75603255  0.36177447  1
  S2-  S175  1  0.36425919  0.82516634  0.85422439  1
  S2-  S176  1  0.62841973  -0.03485905  0.35423096  1
  S2-  S177  1  0.60872234  0.00238479  0.81365793  1
  S2-  S178  1  0.71005868  0.22008757  0.36619103  1
  S2-  S179  1  0.57729443  0.28835131  0.82071033  1
  S2-  S180  1  0.61632074  0.52657647  0.34722782  1
  S2-  S181  1  0.65051101  0.49358529  0.84494868  1
  S2-  S182  1  0.70815492  0.75145062  0.35499571  1
  S2-  S183  1  0.63185873  0.80667998  0.85615734  1
  S2-  S184  1  0.86984004  0.00656598  0.34240942  1
  S2-  S185  1  0.79503534  -0.01510424  0.85397531  1
  S2-  S186  1  0.96402586  0.24466336  0.34531315  1
  S2-  S187  1  0.77326688  0.25466447  0.85290412  1
  S2-  S188  1  0.85547653  0.58639380  0.35233075  1
  S2-  S189  1  0.88466688  0.55953580  0.85272583  1
  S2-  S190  1  0.89675045  0.79498021  0.31230105  1
  S2-  S191  1  0.86432713  0.78828283  0.83590929  1
  S2-  S192  1  -0.01823220  0.11001833  0.45224682  1
  S2-  S193  1  0.00028813  0.11561431  0.96839699  1
  S2-  S194  1  -0.01107305  0.36489955  0.44886788  1
  S2-  S195  1  0.00029836  0.36568958  0.95263765  1
  S2-  S196  1  -0.00912024  0.61954347  0.44629719  1
  S2-  S197  1  0.00124586  0.61532077  0.96100235  1
  S2-  S198  1  -0.01843918  0.86411531  0.44647954  1
  S2-  S199  1  0.00171149  0.86656212  0.94925320  1
  S2-  S200  1  0.23884677  0.11537683  0.45450554  1
  S2-  S201  1  0.25263620  0.11685842  0.95554248  1
  S2-  S202  1  0.23936951  0.36021094  0.45625489  1
  S2-  S203  1  0.24991982  0.36998695  0.96623278  1
  S2-  S204  1  0.24103745  0.61751745  0.44453811  1
  S2-  S205  1  0.25003998  0.61568877  0.96387009  1
  S2-  S206  1  0.24478645  0.86613436  0.45191142  1
  S2-  S207  1  0.24637768  0.86173168  0.96145278  1
  S2-  S208  1  0.49346316  0.11523803  0.44559931  1
  S2-  S209  1  0.50363705  0.11290384  0.92794990  1
  S2-  S210  1  0.49393307  0.36342095  0.45057254  1
  S2-  S211  1  0.50635114  0.36805275  0.94615055  1
  S2-  S212  1  0.49015622  0.61276047  0.45589799  1
  S2-  S213  1  0.50272033  0.61370749  0.95378693  1
  S2-  S214  1  0.48907515  0.86737014  0.46310079  1
  S2-  S215  1  0.50427589  0.86689364  0.95100865  1
  S2-  S216  1  0.74262207  0.11097416  0.46583448  1
  S2-  S217  1  0.74951041  0.11305582  0.95190515  1
  S2-  S218  1  0.73875229  0.36919465  0.45557040  1
  S2-  S219  1  0.74938551  0.36799994  0.95877853  1
  S2-  S220  1  0.73518521  0.61330421  0.45651418  1
  S2-  S221  1  0.74852779  0.61565850  0.95231835  1
  S2-  S222  1  0.74111886  0.86413472  0.46215437  1
  S2-  S223  1  0.75387276  0.86170653  0.96083578  1
  S2-  S224  1  0.12775774  -0.01012233  0.04733275  1
  S2-  S225  1  0.11430570  -0.01280134  0.54165575  1
  S2-  S226  1  0.12350908  0.24009455  0.05390402  1
  S2-  S227  1  0.11507608  0.23414588  0.55661091  1
  S2-  S228  1  0.12042689  0.49183081  0.05659612  1
  S2-  S229  1  0.11666356  0.48933513  0.54418047  1
  S2-  S230  1  0.12532502  0.73946235  0.05103066  1
  S2-  S231  1  0.11754482  0.74186758  0.54017170  1
  S2-  S232  1  0.37965426  -0.01615299  0.03038397  1
  S2-  S233  1  0.36594604  -0.00914990  0.54690231  1
  S2-  S234  1  0.38304209  0.24069691  0.02761819  1
  S2-  S235  1  0.36980275  0.23505084  0.54862222  1
  S2-  S236  1  0.37818024  0.48914865  0.04373327  1
  S2-  S237  1  0.36690017  0.49028821  0.54724357  1
  S2-  S238  1  0.37695192  0.74254957  0.04864660  1
  S2-  S239  1  0.36300985  0.74024318  0.53826486  1
  S2-  S240  1  0.62834552  -0.00924138  0.04582835  1
  S2-  S241  1  0.61855505  -0.01038306  0.56205285  1
  S2-  S242  1  0.62693622  0.23772168  0.03027449  1
  S2-  S243  1  0.61224901  0.23464553  0.55588956  1
  S2-  S244  1  0.62817881  0.48800451  0.04839456  1
  S2-  S245  1  0.61232180  0.49172893  0.55002003  1
  S2-  S246  1  0.62872710  0.73477944  0.05661463  1
  S2-  S247  1  0.61819998  0.74006465  0.54450444  1
  S2-  S248  1  0.87490017  -0.01337914  0.04430804  1
  S2-  S249  1  0.86743829  -0.01351989  0.54622352  1
  S2-  S250  1  0.87517395  0.24277108  0.04346784  1
  S2-  S251  1  0.86623568  0.24247643  0.53869212  1
  S2-  S252  1  0.87385999  0.49365508  0.05138471  1
  S2-  S253  1  0.86704683  0.48970235  0.54626657  1
  S2-  S254  1  0.87852162  0.74479204  0.04719591  1
  S2-  S255  1  0.86758697  0.73645540  0.53574224  1
