# generated using pymatgen
data_La9Ce10Pr6Nd4Sm3(BiS2)32
_symmetry_space_group_name_H-M   'P 1'
_cell_length_a   16.20761328
_cell_length_b   16.14053478
_cell_length_c   27.11100789
_cell_angle_alpha   89.62162768
_cell_angle_beta   89.98687723
_cell_angle_gamma   89.89574831
_symmetry_Int_Tables_number   1
_chemical_formula_structural   La9Ce10Pr6Nd4Sm3(BiS2)32
_chemical_formula_sum   'La18 Ce20 Pr12 Nd8 Sm6 Bi64 S128'
_cell_volume   7092.06079532
_cell_formula_units_Z   2
loop_
 _symmetry_equiv_pos_site_id
 _symmetry_equiv_pos_as_xyz
  1  'x, y, z'
loop_
 _atom_type_symbol
 _atom_type_oxidation_number
  La3+  3.0
  Ce3+  3.0
  Pr3+  3.0
  Nd3+  3.0
  Sm3+  3.0
  Bi2+  2.0
  S2-  -2.0
loop_
 _atom_site_type_symbol
 _atom_site_label
 _atom_site_symmetry_multiplicity
 _atom_site_fract_x
 _atom_site_fract_y
 _atom_site_fract_z
 _atom_site_occupancy
  La3+  La0  1  0.25311383  0.36824860  0.58970641  1
  La3+  La1  1  0.85851462  0.26061434  0.42701133  1
  La3+  La2  1  0.11506286  0.26005337  0.43954443  1
  La3+  La3  1  -0.01560222  0.36764758  0.58451739  1
  La3+  La4  1  0.73695002  0.36894531  0.57027080  1
  La3+  La5  1  0.38701867  0.52833214  0.92231064  1
  La3+  La6  1  0.50724716  0.88825284  0.07820855  1
  La3+  La7  1  0.13823772  0.25715044  0.91448253  1
  La3+  La8  1  0.75035786  0.14268231  0.08175535  1
  La3+  La9  1  0.49875170  0.63847847  0.08266670  1
  La3+  La10  1  0.38088543  0.01536338  0.94256143  1
  La3+  La11  1  0.75787231  0.38659846  0.06730414  1
  La3+  La12  1  0.24434037  0.88974578  0.07928339  1
  La3+  La13  1  0.36616118  0.25925375  0.43830857  1
  La3+  La14  1  0.13938841  0.51992353  0.89681486  1
  La3+  La15  1  0.75732671  0.88808298  0.07231592  1
  La3+  La16  1  0.00386274  0.15222453  0.06681485  1
  La3+  La17  1  0.87633998  0.27193935  0.91989893  1
  Ce3+  Ce18  1  0.37724779  0.76700317  0.94779944  1
  Ce3+  Ce19  1  -0.00989724  0.12320997  0.55897988  1
  Ce3+  Ce20  1  0.11257546  0.75321838  0.44267285  1
  Ce3+  Ce21  1  -0.00714004  0.88647651  0.55535282  1
  Ce3+  Ce22  1  0.23948881  0.87968340  0.55700931  1
  Ce3+  Ce23  1  0.36792360  0.50250804  0.44477759  1
  Ce3+  Ce24  1  0.62997118  0.01483819  0.94592762  1
  Ce3+  Ce25  1  0.25542679  0.63663952  0.06887972  1
  Ce3+  Ce26  1  0.36412346  0.00296594  0.44192915  1
  Ce3+  Ce27  1  0.25203478  0.38743426  0.05228920  1
  Ce3+  Ce28  1  0.11596089  0.49580768  0.45335745  1
  Ce3+  Ce29  1  0.00781226  0.38739062  0.04150189  1
  Ce3+  Ce30  1  0.12998666  0.01804113  0.94223602  1
  Ce3+  Ce31  1  0.74139697  0.88457894  0.55350986  1
  Ce3+  Ce32  1  0.86628380  0.50045810  0.44493455  1
  Ce3+  Ce33  1  0.87629811  0.52177336  0.93069415  1
  Ce3+  Ce34  1  0.61603514  0.75337820  0.43366236  1
  Ce3+  Ce35  1  0.49411744  0.12663635  0.55437079  1
  Ce3+  Ce36  1  -0.00768661  0.62782618  0.56547384  1
  Ce3+  Ce37  1  0.25387095  0.14376529  0.06888586  1
  Pr3+  Pr38  1  0.50351733  0.14147895  0.06732832  1
  Pr3+  Pr39  1  0.87727897  0.76581394  0.92973418  1
  Pr3+  Pr40  1  0.61134910  0.51050461  0.40975761  1
  Pr3+  Pr41  1  0.87772549  0.01949396  0.94563496  1
  Pr3+  Pr42  1  0.75799398  0.63250628  0.08142906  1
  Pr3+  Pr43  1  0.61548667  0.25527831  0.43314667  1
  Pr3+  Pr44  1  0.23984017  0.62504111  0.56273011  1
  Pr3+  Pr45  1  0.61568144  0.00101908  0.42594243  1
  Pr3+  Pr46  1  0.49042237  0.87799226  0.55524119  1
  Pr3+  Pr47  1  0.13246797  0.76739266  0.93929083  1
  Pr3+  Pr48  1  0.36249021  0.75053057  0.43820612  1
  Pr3+  Pr49  1  0.74107610  0.62930928  0.55857601  1
  Nd3+  Nd50  1  0.87004081  0.01096175  0.42256512  1
  Nd3+  Nd51  1  0.49300875  0.62839226  0.55980210  1
  Nd3+  Nd52  1  0.00161621  0.63734512  0.05113370  1
  Nd3+  Nd53  1  0.12418072  0.01328328  0.42081037  1
  Nd3+  Nd54  1  0.62885198  0.76366083  0.95047445  1
  Nd3+  Nd55  1  0.63002984  0.26683772  0.93801359  1
  Nd3+  Nd56  1  0.63092942  0.52132183  0.94771810  1
  Nd3+  Nd57  1  0.00290484  0.89129858  0.05958167  1
  Sm3+  Sm58  1  0.86750435  0.75266931  0.44437675  1
  Sm3+  Sm59  1  0.50206941  0.39212920  0.05450807  1
  Sm3+  Sm60  1  0.74211417  0.12195127  0.55811874  1
  Sm3+  Sm61  1  0.49451121  0.37879040  0.56249831  1
  Sm3+  Sm62  1  0.24009834  0.12612554  0.56118108  1
  Sm3+  Sm63  1  0.38033785  0.26874858  0.93997581  1
  Bi2+  Bi64  1  0.03112673  0.08606010  0.28987650  1
  Bi2+  Bi65  1  0.00067825  0.09244316  0.78929243  1
  Bi2+  Bi66  1  0.00611673  0.35559579  0.25997199  1
  Bi2+  Bi67  1  -0.02307424  0.39412906  0.78577315  1
  Bi2+  Bi68  1  0.03531471  0.53928872  0.30226877  1
  Bi2+  Bi69  1  -0.06796198  0.64947024  0.76858576  1
  Bi2+  Bi70  1  0.00359713  0.73703750  0.27264724  1
  Bi2+  Bi71  1  -0.02287099  0.83052391  0.81014058  1
  Bi2+  Bi72  1  0.27193963  0.09867865  0.26521672  1
  Bi2+  Bi73  1  0.24326179  0.14236676  0.74325699  1
  Bi2+  Bi74  1  0.27279700  0.36383300  0.31262395  1
  Bi2+  Bi75  1  0.27333310  0.37376441  0.78805017  1
  Bi2+  Bi76  1  0.23271865  0.54970885  0.28112843  1
  Bi2+  Bi77  1  0.21339857  0.74939454  0.74761682  1
  Bi2+  Bi78  1  0.23579015  0.84993723  0.31558210  1
  Bi2+  Bi79  1  0.16617282  0.89352114  0.82043710  1
  Bi2+  Bi80  1  0.48667904  0.11698539  0.29331242  1
  Bi2+  Bi81  1  0.47656231  0.03892225  0.81976616  1
  Bi2+  Bi82  1  0.54902411  0.36111018  0.30867981  1
  Bi2+  Bi83  1  0.51338996  0.42174350  0.79254289  1
  Bi2+  Bi84  1  0.48102066  0.62122929  0.29116935  1
  Bi2+  Bi85  1  0.46026077  0.67191201  0.76263311  1
  Bi2+  Bi86  1  0.55926296  0.88320231  0.31446178  1
  Bi2+  Bi87  1  0.46157826  0.84001898  0.81979844  1
  Bi2+  Bi88  1  0.79005127  0.08307531  0.28165250  1
  Bi2+  Bi89  1  0.72546777  0.10546388  0.76586008  1
  Bi2+  Bi90  1  0.79137781  0.36004461  0.28412996  1
  Bi2+  Bi91  1  0.71335458  0.37056854  0.79706343  1
  Bi2+  Bi92  1  0.81864241  0.64654324  0.26480915  1
  Bi2+  Bi93  1  0.68829853  0.63390061  0.80033372  1
  Bi2+  Bi94  1  0.74198292  0.83182537  0.28862958  1
  Bi2+  Bi95  1  0.75091156  0.89207132  0.80866919  1
  Bi2+  Bi96  1  0.18721948  -0.08034140  0.21668402  1
  Bi2+  Bi97  1  0.12333340  -0.00723916  0.71762987  1
  Bi2+  Bi98  1  0.17398647  0.26442622  0.23248645  1
  Bi2+  Bi99  1  0.10199668  0.26262837  0.70650475  1
  Bi2+  Bi100  1  0.19685267  0.44376711  0.18065562  1
  Bi2+  Bi101  1  0.13724750  0.54839936  0.71236094  1
  Bi2+  Bi102  1  0.09261186  0.61480000  0.19653296  1
  Bi2+  Bi103  1  0.03791163  0.79938631  0.69643006  1
  Bi2+  Bi104  1  0.40873917  -0.02376770  0.22063905  1
  Bi2+  Bi105  1  0.39802251  0.04547246  0.71452163  1
  Bi2+  Bi106  1  0.40709994  0.17194496  0.18918520  1
  Bi2+  Bi107  1  0.48639984  0.23604232  0.82233656  1
  Bi2+  Bi108  1  0.38040852  0.45684302  0.21975972  1
  Bi2+  Bi109  1  0.42317624  0.50817893  0.70070994  1
  Bi2+  Bi110  1  0.34455792  0.70866062  0.21720615  1
  Bi2+  Bi111  1  0.36898538  0.85240557  0.71161192  1
  Bi2+  Bi112  1  0.60276560  -0.00230528  0.21896494  1
  Bi2+  Bi113  1  0.63427833  -0.05003136  0.71479385  1
  Bi2+  Bi114  1  0.57504938  0.26303998  0.21543942  1
  Bi2+  Bi115  1  0.58764973  0.22722602  0.72083112  1
  Bi2+  Bi116  1  0.63753691  0.49995118  0.21035703  1
  Bi2+  Bi117  1  0.59817074  0.41585568  0.68192942  1
  Bi2+  Bi118  1  0.58270490  0.75552564  0.22745554  1
  Bi2+  Bi119  1  0.63170188  0.74323325  0.70956079  1
  Bi2+  Bi120  1  0.93188322  -0.03710920  0.19840729  1
  Bi2+  Bi121  1  0.86438652  0.01589268  0.70301217  1
  Bi2+  Bi122  1  0.91051438  0.22565308  0.19445186  1
  Bi2+  Bi123  1  0.84126439  0.25284270  0.70555740  1
  Bi2+  Bi124  1  0.92237833  0.50906190  0.20310998  1
  Bi2+  Bi125  1  0.76122536  0.50800872  0.72036594  1
  Bi2+  Bi126  1  0.83887978  0.79159712  0.18722352  1
  Bi2+  Bi127  1  0.84255152  0.81677669  0.71484189  1
  S2-  S128  1  0.02204688  0.09625503  0.16775380  1
  S2-  S129  1  -0.01905033  0.21249274  0.64647319  1
  S2-  S130  1  0.00192073  0.30660990  0.12940131  1
  S2-  S131  1  0.03661848  0.41146680  0.68363487  1
  S2-  S132  1  -0.09124776  0.65629306  0.13635859  1
  S2-  S133  1  0.00099065  0.63413648  0.66399628  1
  S2-  S134  1  0.06821645  0.87946183  0.15243939  1
  S2-  S135  1  -0.00815873  0.99567021  0.63186241  1
  S2-  S136  1  0.24679480  0.02681397  0.14637643  1
  S2-  S137  1  0.24444811  0.21093896  0.64792991  1
  S2-  S138  1  0.24003017  0.28172525  0.13419930  1
  S2-  S139  1  0.23369873  0.42858367  0.68784845  1
  S2-  S140  1  0.36746219  0.58408872  0.14808287  1
  S2-  S141  1  0.25014271  0.64187081  0.66275967  1
  S2-  S142  1  0.23909339  0.75292436  0.14993931  1
  S2-  S143  1  0.23693912  0.92530965  0.65085186  1
  S2-  S144  1  0.60570502  0.13678237  0.15015514  1
  S2-  S145  1  0.50719756  0.12867894  0.65276277  1
  S2-  S146  1  0.52015847  0.40349945  0.15413344  1
  S2-  S147  1  0.41638102  0.36511442  0.64979208  1
  S2-  S148  1  0.62698241  0.63520325  0.15739917  1
  S2-  S149  1  0.50251354  0.65393753  0.65804742  1
  S2-  S150  1  0.46459358  0.77758812  0.15647617  1
  S2-  S151  1  0.51445528  0.88759914  0.65507004  1
  S2-  S152  1  0.80446964  0.05632114  0.17450680  1
  S2-  S153  1  0.72570301  0.22166748  0.64169788  1
  S2-  S154  1  0.77472565  0.27551255  0.14878674  1
  S2-  S155  1  0.84119364  0.39554014  0.65072497  1
  S2-  S156  1  0.76621061  0.49048341  0.15211126  1
  S2-  S157  1  0.74759434  0.65109796  0.65899050  1
  S2-  S158  1  0.64363401  0.89165964  0.15155740  1
  S2-  S159  1  0.73942170  0.99397835  0.63107355  1
  S2-  S160  1  0.08054628  -0.05391651  0.32911180  1
  S2-  S161  1  0.12828406  0.10276887  0.85588924  1
  S2-  S162  1  0.12128741  0.15594291  0.35512884  1
  S2-  S163  1  0.12907607  0.36728356  0.83342855  1
  S2-  S164  1  0.13061559  0.39766335  0.37163353  1
  S2-  S165  1  0.04627022  0.55172473  0.80807544  1
  S2-  S166  1  0.13128803  0.72770888  0.34556955  1
  S2-  S167  1  0.17171664  0.71972170  0.84414667  1
  S2-  S168  1  0.29567588  0.00628906  0.35261939  1
  S2-  S169  1  0.32957154  -0.04964556  0.85112300  1
  S2-  S170  1  0.41666716  0.26439625  0.34068619  1
  S2-  S171  1  0.30588050  0.24367859  0.85199862  1
  S2-  S172  1  0.45509461  0.49337968  0.35797732  1
  S2-  S173  1  0.28613530  0.50827386  0.83914634  1
  S2-  S174  1  0.36755210  0.74147017  0.33628311  1
  S2-  S175  1  0.40071688  0.68927675  0.86083784  1
  S2-  S176  1  0.64116410  0.07443038  0.33440702  1
  S2-  S177  1  0.65404008  0.02815290  0.84821414  1
  S2-  S178  1  0.70787316  0.27087548  0.34809461  1
  S2-  S179  1  0.73405055  0.24547712  0.85814583  1
  S2-  S180  1  0.68575524  0.47784997  0.31459170  1
  S2-  S181  1  0.56663846  0.54707942  0.85515595  1
  S2-  S182  1  0.61202833  0.66208620  0.35142548  1
  S2-  S183  1  0.64004589  0.78328944  0.84919002  1
  S2-  S184  1  0.84782597  -0.05488121  0.32763484  1
  S2-  S185  1  0.89537993  -0.02083010  0.84645476  1
  S2-  S186  1  0.88967306  0.14466816  0.34830608  1
  S2-  S187  1  0.95368149  0.23435659  0.82602670  1
  S2-  S188  1  0.88360836  0.40385454  0.36415113  1
  S2-  S189  1  0.85860451  0.42370440  0.84939034  1
  S2-  S190  1  0.88769305  0.70402255  0.35026087  1
  S2-  S191  1  0.84051839  0.64498768  0.85717650  1
  S2-  S192  1  -0.00740228  0.12881591  0.45364318  1
  S2-  S193  1  0.00186494  0.14161140  0.95358635  1
  S2-  S194  1  -0.01128859  0.37922910  0.47152021  1
  S2-  S195  1  0.01245746  0.39696280  0.93884331  1
  S2-  S196  1  -0.00815079  0.62593455  0.45791883  1
  S2-  S197  1  0.00860095  0.64061370  0.94466461  1
  S2-  S198  1  -0.01096180  0.87813244  0.44736516  1
  S2-  S199  1  0.00427220  0.89158840  0.95298869  1
  S2-  S200  1  0.24634841  0.13266411  0.45680018  1
  S2-  S201  1  0.26010610  0.13870148  0.96006591  1
  S2-  S202  1  0.24809877  0.38122312  0.47166987  1
  S2-  S203  1  0.25860312  0.39342605  0.94773854  1
  S2-  S204  1  0.23907359  0.62437102  0.45408562  1
  S2-  S205  1  0.25230272  0.63826011  0.95828654  1
  S2-  S206  1  0.23825516  0.87711579  0.45150360  1
  S2-  S207  1  0.25226991  0.89182833  0.96583371  1
  S2-  S208  1  0.49056453  0.12680574  0.44609786  1
  S2-  S209  1  0.50588607  0.14274354  0.95818182  1
  S2-  S210  1  0.49536443  0.38152886  0.45794723  1
  S2-  S211  1  0.50522628  0.39259417  0.94911295  1
  S2-  S212  1  0.49086424  0.62910012  0.45492322  1
  S2-  S213  1  0.50552873  0.64462968  0.96886019  1
  S2-  S214  1  0.48731394  0.87623061  0.44796280  1
  S2-  S215  1  0.50622608  0.88899622  0.96192616  1
  S2-  S216  1  0.73793391  0.12589486  0.45110047  1
  S2-  S217  1  0.75086101  0.13764476  0.96327011  1
  S2-  S218  1  0.72978531  0.39014488  0.45690675  1
  S2-  S219  1  0.74909052  0.39531473  0.95629983  1
  S2-  S220  1  0.74230835  0.62848675  0.45159085  1
  S2-  S221  1  0.75299469  0.64223866  0.96642652  1
  S2-  S222  1  0.74331626  0.87604853  0.44592661  1
  S2-  S223  1  0.75509288  0.88912882  0.95904021  1
  S2-  S224  1  0.12322640  0.01984167  0.04659254  1
  S2-  S225  1  0.12230402  0.00496508  0.53384764  1
  S2-  S226  1  0.13243466  0.26488916  0.02840593  1
  S2-  S227  1  0.11906081  0.25000139  0.54854133  1
  S2-  S228  1  0.12752837  0.51386701  0.05206422  1
  S2-  S229  1  0.11681145  0.49802417  0.56038837  1
  S2-  S230  1  0.12269403  0.76159738  0.04602758  1
  S2-  S231  1  0.11564267  0.75494576  0.55053127  1
  S2-  S232  1  0.38385565  0.01290305  0.05222427  1
  S2-  S233  1  0.36603950  0.00472163  0.54891130  1
  S2-  S234  1  0.38302897  0.26650406  0.04417323  1
  S2-  S235  1  0.37075351  0.24855055  0.54584205  1
  S2-  S236  1  0.37771310  0.50894323  0.03795299  1
  S2-  S237  1  0.36937937  0.50376783  0.55166546  1
  S2-  S238  1  0.37529092  0.76754712  0.05038013  1
  S2-  S239  1  0.36457257  0.75243872  0.54779060  1
  S2-  S240  1  0.63032843  0.01426443  0.04943943  1
  S2-  S241  1  0.61278818  0.00154045  0.53411442  1
  S2-  S242  1  0.62389339  0.26936081  0.04466183  1
  S2-  S243  1  0.61147988  0.25066252  0.54024226  1
  S2-  S244  1  0.62572235  0.51261773  0.05129558  1
  S2-  S245  1  0.61598942  0.50399266  0.55506904  1
  S2-  S246  1  0.63365295  0.76080494  0.05464135  1
  S2-  S247  1  0.61735141  0.75560920  0.54369139  1
  S2-  S248  1  0.87965089  0.01684368  0.05273145  1
  S2-  S249  1  0.86516213  0.00264841  0.53040922  1
  S2-  S250  1  0.87797996  0.26590078  0.03193713  1
  S2-  S251  1  0.86124307  0.24603844  0.53891630  1
  S2-  S252  1  0.88305353  0.51036566  0.03862914  1
  S2-  S253  1  0.86656385  0.50772413  0.55027212  1
  S2-  S254  1  0.88112935  0.76922407  0.03752553  1
  S2-  S255  1  0.86814401  0.75819716  0.55018955  1
