# generated using pymatgen
data_La9Ce10Pr6Nd4Sm3(BiS2)32
_symmetry_space_group_name_H-M   'P 1'
_cell_length_a   16.10860367
_cell_length_b   16.16687419
_cell_length_c   27.21300724
_cell_angle_alpha   89.77728161
_cell_angle_beta   90.23053300
_cell_angle_gamma   90.03476424
_symmetry_Int_Tables_number   1
_chemical_formula_structural   La9Ce10Pr6Nd4Sm3(BiS2)32
_chemical_formula_sum   'La18 Ce20 Pr12 Nd8 Sm6 Bi64 S128'
_cell_volume   7086.85618916
_cell_formula_units_Z   2
loop_
 _symmetry_equiv_pos_site_id
 _symmetry_equiv_pos_as_xyz
  1  'x, y, z'
loop_
 _atom_type_symbol
 _atom_type_oxidation_number
  La3+  3.0
  Ce3+  3.0
  Pr3+  3.0
  Nd3+  3.0
  Sm3+  3.0
  Bi2+  2.0
  S2-  -2.0
loop_
 _atom_site_type_symbol
 _atom_site_label
 _atom_site_symmetry_multiplicity
 _atom_site_fract_x
 _atom_site_fract_y
 _atom_site_fract_z
 _atom_site_occupancy
  La3+  La0  1  0.26474955  0.88183531  0.11031312  1
  La3+  La1  1  0.87607045  0.26282731  0.93818120  1
  La3+  La2  1  0.36830944  0.75099516  0.43768253  1
  La3+  La3  1  0.74488955  0.12955370  0.07031876  1
  La3+  La4  1  0.87736466  0.50854405  0.41168401  1
  La3+  La5  1  0.23820574  0.12131357  0.57348710  1
  La3+  La6  1  0.48947358  0.12566028  0.56392594  1
  La3+  La7  1  0.73841633  0.12075290  0.60363066  1
  La3+  La8  1  0.24461802  0.87202830  0.57669821  1
  La3+  La9  1  0.36121095  0.00172422  0.43256878  1
  La3+  La10  1  0.61370193  0.50232390  0.41266019  1
  La3+  La11  1  0.86931118  0.76029697  0.93347377  1
  La3+  La12  1  0.74987618  0.37436198  0.56271260  1
  La3+  La13  1  0.76078433  0.37471730  0.08798676  1
  La3+  La14  1  0.75142581  0.63318462  0.07343547  1
  La3+  La15  1  0.37853584  0.26584858  0.92706405  1
  La3+  La16  1  0.50031884  0.61892511  0.56644085  1
  La3+  La17  1  0.49939416  0.87545395  0.56417440  1
  Ce3+  Ce18  1  0.50060560  0.88455886  0.04714647  1
  Ce3+  Ce19  1  -0.01606859  0.87313946  0.55791607  1
  Ce3+  Ce20  1  -0.00926762  0.37583056  0.55533528  1
  Ce3+  Ce21  1  0.87221115  0.50420247  0.94345946  1
  Ce3+  Ce22  1  0.73882395  0.62258081  0.54781419  1
  Ce3+  Ce23  1  0.25209790  0.38230860  0.06210973  1
  Ce3+  Ce24  1  0.62917168  0.75785307  0.94207484  1
  Ce3+  Ce25  1  0.62674565  0.50587665  0.95499503  1
  Ce3+  Ce26  1  0.74420801  0.87097946  0.56494431  1
  Ce3+  Ce27  1  0.11927903  0.00057050  0.44050902  1
  Ce3+  Ce28  1  0.12104703  0.00824172  0.94389159  1
  Ce3+  Ce29  1  0.25389852  0.63798110  0.06390046  1
  Ce3+  Ce30  1  -0.01431261  0.12772619  0.55833837  1
  Ce3+  Ce31  1  -0.00930940  0.62482251  0.55430071  1
  Ce3+  Ce32  1  0.25563584  0.13326200  0.05975055  1
  Ce3+  Ce33  1  0.37014216  0.50086322  0.44079133  1
  Ce3+  Ce34  1  0.12352349  0.24780176  0.43385173  1
  Ce3+  Ce35  1  0.49825743  0.63358423  0.05655373  1
  Ce3+  Ce36  1  0.62578029  0.26366147  0.94864690  1
  Ce3+  Ce37  1  0.75294732  0.88359124  0.06448669  1
  Pr3+  Pr38  1  0.37421134  0.01260898  0.93213575  1
  Pr3+  Pr39  1  0.00379246  0.63559934  0.05945539  1
  Pr3+  Pr40  1  0.11931366  0.50297573  0.44604342  1
  Pr3+  Pr41  1  0.86766218  0.25162583  0.43141876  1
  Pr3+  Pr42  1  0.63290363  0.01537854  0.92283882  1
  Pr3+  Pr43  1  0.49798841  0.36794038  0.55078100  1
  Pr3+  Pr44  1  0.36886404  0.51288574  0.93034827  1
  Pr3+  Pr45  1  0.86651809  0.00186033  0.44195363  1
  Pr3+  Pr46  1  0.49328499  0.12926593  0.06311527  1
  Pr3+  Pr47  1  0.61844876  0.00458357  0.43849920  1
  Pr3+  Pr48  1  0.61481021  0.75208491  0.42404926  1
  Pr3+  Pr49  1  0.25001345  0.62364572  0.57579817  1
  Nd3+  Nd50  1  0.36722047  0.24806708  0.42662013  1
  Nd3+  Nd51  1  0.00451000  0.13243047  0.06181962  1
  Nd3+  Nd52  1  0.00653018  0.38169265  0.06606555  1
  Nd3+  Nd53  1  0.49215881  0.38455814  0.07533170  1
  Nd3+  Nd54  1  0.12382556  0.75353283  0.43461755  1
  Nd3+  Nd55  1  0.00216697  0.88499816  0.07125712  1
  Nd3+  Nd56  1  0.37262321  0.76241522  0.93897942  1
  Nd3+  Nd57  1  0.86704733  0.75455101  0.43079363  1
  Sm3+  Sm58  1  0.12670921  0.51181830  0.94499638  1
  Sm3+  Sm59  1  0.12724455  0.26235041  0.93728545  1
  Sm3+  Sm60  1  0.12410491  0.76320040  0.94383031  1
  Sm3+  Sm61  1  0.24302166  0.37100268  0.55311360  1
  Sm3+  Sm62  1  0.61991510  0.25097950  0.43570772  1
  Sm3+  Sm63  1  0.88031772  0.01668373  0.93318101  1
  Bi2+  Bi64  1  0.06221747  0.19442816  0.29717387  1
  Bi2+  Bi65  1  -0.01664757  0.12543804  0.79324723  1
  Bi2+  Bi66  1  0.06179330  0.38846367  0.28500257  1
  Bi2+  Bi67  1  -0.02175159  0.40033206  0.79503758  1
  Bi2+  Bi68  1  0.03157981  0.65701768  0.30535090  1
  Bi2+  Bi69  1  -0.09011966  0.58899360  0.80027470  1
  Bi2+  Bi70  1  0.06027997  0.84863594  0.30347286  1
  Bi2+  Bi71  1  0.05561186  0.86790951  0.79233852  1
  Bi2+  Bi72  1  0.22804818  0.10553961  0.28251575  1
  Bi2+  Bi73  1  0.18163626  0.11696074  0.77762619  1
  Bi2+  Bi74  1  0.25841957  0.39831136  0.28260293  1
  Bi2+  Bi75  1  0.17725469  0.38502083  0.79206847  1
  Bi2+  Bi76  1  0.23399406  0.61666839  0.28774002  1
  Bi2+  Bi77  1  0.26548954  0.64410010  0.79537115  1
  Bi2+  Bi78  1  0.32819084  0.87205293  0.30674573  1
  Bi2+  Bi79  1  0.23803825  0.92823725  0.78250660  1
  Bi2+  Bi80  1  0.53879414  0.12040120  0.30026096  1
  Bi2+  Bi81  1  0.48112387  0.11205041  0.81095542  1
  Bi2+  Bi82  1  0.48279958  0.38501067  0.27812578  1
  Bi2+  Bi83  1  0.46919025  0.36419435  0.76839880  1
  Bi2+  Bi84  1  0.46830473  0.64405596  0.29537857  1
  Bi2+  Bi85  1  0.49622006  0.55045546  0.79432756  1
  Bi2+  Bi86  1  0.57208105  0.87431806  0.27760078  1
  Bi2+  Bi87  1  0.51543872  0.74261292  0.77696149  1
  Bi2+  Bi88  1  0.78944267  0.10465050  0.30910875  1
  Bi2+  Bi89  1  0.73400133  0.10256261  0.79884546  1
  Bi2+  Bi90  1  0.76719024  0.33877926  0.28634865  1
  Bi2+  Bi91  1  0.73483530  0.37042314  0.78941955  1
  Bi2+  Bi92  1  0.73391169  0.72481970  0.28667278  1
  Bi2+  Bi93  1  0.71354585  0.58818383  0.81241240  1
  Bi2+  Bi94  1  0.85595937  0.87138770  0.31581249  1
  Bi2+  Bi95  1  0.80425696  0.84444881  0.78951669  1
  Bi2+  Bi96  1  0.06989268  -0.00253798  0.23023082  1
  Bi2+  Bi97  1  0.05882295  0.08490635  0.68417699  1
  Bi2+  Bi98  1  0.14034172  0.24875356  0.15345923  1
  Bi2+  Bi99  1  0.13038868  0.27204353  0.69748078  1
  Bi2+  Bi100  1  0.13197001  0.44127101  0.18276284  1
  Bi2+  Bi101  1  0.06696104  0.51793893  0.71543867  1
  Bi2+  Bi102  1  0.12872631  0.72857833  0.21124406  1
  Bi2+  Bi103  1  0.10929016  0.70967865  0.72601231  1
  Bi2+  Bi104  1  0.42944457  0.01049898  0.21051759  1
  Bi2+  Bi105  1  0.34760907  0.01178424  0.70559675  1
  Bi2+  Bi106  1  0.30599359  0.24194765  0.21355535  1
  Bi2+  Bi107  1  0.32069478  0.23807224  0.73022379  1
  Bi2+  Bi108  1  0.30863367  0.52225273  0.19748374  1
  Bi2+  Bi109  1  0.26258790  0.51571229  0.70828621  1
  Bi2+  Bi110  1  0.46193032  0.74637334  0.20277346  1
  Bi2+  Bi111  1  0.37364898  0.73887453  0.69909486  1
  Bi2+  Bi112  1  0.67455632  -0.02080835  0.19961280  1
  Bi2+  Bi113  1  0.60550524  -0.02475777  0.71751008  1
  Bi2+  Bi114  1  0.64536570  0.23921718  0.20234147  1
  Bi2+  Bi115  1  0.59184324  0.24644997  0.71344187  1
  Bi2+  Bi116  1  0.62045917  0.51071717  0.21529297  1
  Bi2+  Bi117  1  0.59385135  0.49406489  0.70070754  1
  Bi2+  Bi118  1  0.65918351  0.78703512  0.18454918  1
  Bi2+  Bi119  1  0.67006425  0.73889119  0.71038647  1
  Bi2+  Bi120  1  0.86526664  -0.00167451  0.22106892  1
  Bi2+  Bi121  1  0.91707017  -0.04499499  0.71956192  1
  Bi2+  Bi122  1  0.96036614  0.24599909  0.20053973  1
  Bi2+  Bi123  1  0.85704798  0.28301721  0.71118236  1
  Bi2+  Bi124  1  0.89360569  0.52465503  0.21452898  1
  Bi2+  Bi125  1  0.79760305  0.49478989  0.70930482  1
  Bi2+  Bi126  1  0.89939435  0.77275447  0.21766198  1
  Bi2+  Bi127  1  0.86224564  0.71080047  0.70876266  1
  S2-  S128  1  -0.02378909  0.08660244  0.15731204  1
  S2-  S129  1  -0.09693694  0.15459387  0.64397822  1
  S2-  S130  1  -0.08334708  0.39779474  0.15189599  1
  S2-  S131  1  -0.10697616  0.39757039  0.63617310  1
  S2-  S132  1  -0.00786360  0.63872553  0.16083965  1
  S2-  S133  1  -0.00325306  0.65061457  0.65136879  1
  S2-  S134  1  0.10456257  0.88208796  0.15428911  1
  S2-  S135  1  -0.12252479  0.85941450  0.63797330  1
  S2-  S136  1  0.36743465  0.12923851  0.13977744  1
  S2-  S137  1  0.36592487  0.14856191  0.64444515  1
  S2-  S138  1  0.35141007  0.38222039  0.14094045  1
  S2-  S139  1  0.25760018  0.36861954  0.65123484  1
  S2-  S140  1  0.26767393  0.71914982  0.15068582  1
  S2-  S141  1  0.22010021  0.74515257  0.64990769  1
  S2-  S142  1  0.28985191  0.93013850  0.21590087  1
  S2-  S143  1  0.20599383  0.99593481  0.64791680  1
  S2-  S144  1  0.60559190  0.10600649  0.14198072  1
  S2-  S145  1  0.57585447  0.11081275  0.65419657  1
  S2-  S146  1  0.53935345  0.36744477  0.17549384  1
  S2-  S147  1  0.50786371  0.36726765  0.65228839  1
  S2-  S148  1  0.50632817  0.60337625  0.15404344  1
  S2-  S149  1  0.38640188  0.60026580  0.64601448  1
  S2-  S150  1  0.44283991  0.89532947  0.14028452  1
  S2-  S151  1  0.39325774  0.88610424  0.64597917  1
  S2-  S152  1  0.78497009  0.22072239  0.15436215  1
  S2-  S153  1  0.75238161  0.03638094  0.70046771  1
  S2-  S154  1  0.72594956  0.39555593  0.19036512  1
  S2-  S155  1  0.71897909  0.27752938  0.64982103  1
  S2-  S156  1  0.76095594  0.58989272  0.17237792  1
  S2-  S157  1  0.64091883  0.62496049  0.63242016  1
  S2-  S158  1  0.86937751  0.87108480  0.14062447  1
  S2-  S159  1  0.62500299  0.86819535  0.64071419  1
  S2-  S160  1  0.22060475  -0.01655226  0.36035426  1
  S2-  S161  1  0.01449174  0.00138663  0.86430822  1
  S2-  S162  1  0.23580330  0.22420891  0.35901023  1
  S2-  S163  1  0.06122671  0.26510190  0.84690060  1
  S2-  S164  1  0.03793877  0.50429462  0.35685148  1
  S2-  S165  1  0.20880404  0.51109495  0.85862116  1
  S2-  S166  1  0.24677008  0.74962902  0.35984405  1
  S2-  S167  1  0.15688715  0.75180194  0.84660987  1
  S2-  S168  1  0.42457454  0.01394100  0.33523757  1
  S2-  S169  1  0.37559483  -0.01719987  0.83174899  1
  S2-  S170  1  0.45473923  0.24865871  0.33605152  1
  S2-  S171  1  0.33698803  0.19629435  0.83516097  1
  S2-  S172  1  0.44003464  0.50594451  0.35094730  1
  S2-  S173  1  0.40768799  0.40073320  0.85778046  1
  S2-  S174  1  0.47405641  0.78199529  0.35581127  1
  S2-  S175  1  0.38146023  0.74323596  0.84011992  1
  S2-  S176  1  0.65129692  -0.00676963  0.33774826  1
  S2-  S177  1  0.58378270  -0.01816077  0.82204406  1
  S2-  S178  1  0.66557334  0.22077074  0.34070266  1
  S2-  S179  1  0.61988113  0.18945565  0.85850364  1
  S2-  S180  1  0.62712054  0.42888910  0.31668453  1
  S2-  S181  1  0.64122151  0.45105134  0.86197182  1
  S2-  S182  1  0.62510927  0.63688149  0.34367240  1
  S2-  S183  1  0.72111185  0.74856835  0.86044077  1
  S2-  S184  1  0.92115217  0.02874902  0.34660693  1
  S2-  S185  1  0.77520199  -0.02194131  0.85727369  1
  S2-  S186  1  0.89472212  0.24269752  0.33082864  1
  S2-  S187  1  0.85756805  0.15846345  0.85553381  1
  S2-  S188  1  0.83910047  0.47251194  0.31057223  1
  S2-  S189  1  0.85322004  0.39154559  0.86739604  1
  S2-  S190  1  0.87264096  0.66021982  0.34739508  1
  S2-  S191  1  0.93817453  0.77115565  0.84062036  1
  S2-  S192  1  -0.00354307  0.12776812  0.45114797  1
  S2-  S193  1  0.00586796  0.13975525  0.95724134  1
  S2-  S194  1  -0.00371745  0.37281040  0.44986998  1
  S2-  S195  1  0.00797415  0.38766332  0.95894137  1
  S2-  S196  1  -0.00238937  0.63360791  0.45183755  1
  S2-  S197  1  0.00215414  0.63352233  0.95141780  1
  S2-  S198  1  -0.00532798  0.87464965  0.45036252  1
  S2-  S199  1  -0.00070879  0.88151991  0.96291528  1
  S2-  S200  1  0.23973622  0.12433759  0.46381399  1
  S2-  S201  1  0.24695597  0.13601447  0.94983571  1
  S2-  S202  1  0.24403777  0.37747939  0.44832678  1
  S2-  S203  1  0.24764040  0.38507072  0.95522314  1
  S2-  S204  1  0.24428931  0.62211962  0.46186494  1
  S2-  S205  1  0.24743784  0.63992448  0.95733658  1
  S2-  S206  1  0.24045928  0.87489954  0.46595065  1
  S2-  S207  1  0.24772672  0.88514780  0.94334499  1
  S2-  S208  1  0.49395497  0.12921714  0.45105324  1
  S2-  S209  1  0.49810102  0.13509474  0.95532525  1
  S2-  S210  1  0.49472782  0.37137031  0.44517276  1
  S2-  S211  1  0.50158089  0.38731736  0.96629214  1
  S2-  S212  1  0.49427745  0.62310144  0.45635530  1
  S2-  S213  1  0.50109282  0.63462647  0.94869040  1
  S2-  S214  1  0.49298403  0.88310312  0.45582186  1
  S2-  S215  1  0.50327997  0.88398474  0.94106445  1
  S2-  S216  1  0.74514508  0.12757027  0.44609751  1
  S2-  S217  1  0.74906295  0.13667929  0.96236041  1
  S2-  S218  1  0.74445238  0.37844564  0.44215237  1
  S2-  S219  1  0.74870736  0.38273248  0.97435859  1
  S2-  S220  1  0.74387800  0.62545338  0.44450534  1
  S2-  S221  1  0.75084727  0.62918852  0.96405372  1
  S2-  S222  1  0.74244171  0.87520087  0.45001210  1
  S2-  S223  1  0.75037090  0.88524245  0.96072558  1
  S2-  S224  1  0.13213066  0.00831138  0.05096853  1
  S2-  S225  1  0.10545739  -0.00212915  0.54431040  1
  S2-  S226  1  0.12863472  0.25797684  0.04091053  1
  S2-  S227  1  0.11579196  0.25120587  0.54517705  1
  S2-  S228  1  0.12936246  0.51084552  0.04960396  1
  S2-  S229  1  0.12057414  0.49968370  0.55390552  1
  S2-  S230  1  0.12860805  0.76162251  0.04853897  1
  S2-  S231  1  0.11175055  0.75117688  0.54287577  1
  S2-  S232  1  0.36810969  0.00083138  0.03921177  1
  S2-  S233  1  0.36680654  0.00161436  0.54230168  1
  S2-  S234  1  0.37322044  0.25933670  0.03776461  1
  S2-  S235  1  0.36409396  0.25213801  0.53648961  1
  S2-  S236  1  0.37322931  0.51332081  0.04071555  1
  S2-  S237  1  0.36874539  0.49075276  0.54483156  1
  S2-  S238  1  0.37574388  0.76109922  0.04432803  1
  S2-  S239  1  0.37310106  0.74488340  0.54597538  1
  S2-  S240  1  0.62440016  0.00286278  0.03694241  1
  S2-  S241  1  0.62586674  0.00612333  0.54492885  1
  S2-  S242  1  0.61858555  0.26151133  0.05435198  1
  S2-  S243  1  0.62391550  0.24427474  0.54058800  1
  S2-  S244  1  0.62597883  0.50470672  0.06076687  1
  S2-  S245  1  0.62218024  0.49190671  0.53408027  1
  S2-  S246  1  0.62526413  0.75776181  0.04831094  1
  S2-  S247  1  0.62181248  0.75000838  0.53158360  1
  S2-  S248  1  0.87670499  0.01167906  0.04355307  1
  S2-  S249  1  0.86108071  0.00528511  0.54784781  1
  S2-  S250  1  0.88403418  0.25685310  0.04686218  1
  S2-  S251  1  0.86792634  0.25300950  0.53704041  1
  S2-  S252  1  0.87907525  0.50920822  0.04967928  1
  S2-  S253  1  0.86884998  0.50431319  0.53060174  1
  S2-  S254  1  0.87540188  0.75439262  0.04426172  1
  S2-  S255  1  0.86486066  0.74552076  0.53649107  1
