# generated using pymatgen
data_La9Ce10Pr6Nd4Sm3(BiS2)32
_symmetry_space_group_name_H-M   'P 1'
_cell_length_a   16.17041013
_cell_length_b   16.18330784
_cell_length_c   27.04392479
_cell_angle_alpha   89.97825942
_cell_angle_beta   90.22539490
_cell_angle_gamma   89.82793184
_symmetry_Int_Tables_number   1
_chemical_formula_structural   La9Ce10Pr6Nd4Sm3(BiS2)32
_chemical_formula_sum   'La18 Ce20 Pr12 Nd8 Sm6 Bi64 S128'
_cell_volume   7077.05706584
_cell_formula_units_Z   2
loop_
 _symmetry_equiv_pos_site_id
 _symmetry_equiv_pos_as_xyz
  1  'x, y, z'
loop_
 _atom_type_symbol
 _atom_type_oxidation_number
  La3+  3.0
  Ce3+  3.0
  Pr3+  3.0
  Nd3+  3.0
  Sm3+  3.0
  Bi2+  2.0
  S2-  -2.0
loop_
 _atom_site_type_symbol
 _atom_site_label
 _atom_site_symmetry_multiplicity
 _atom_site_fract_x
 _atom_site_fract_y
 _atom_site_fract_z
 _atom_site_occupancy
  La3+  La0  1  0.88929374  -0.00973653  0.93071157  1
  La3+  La1  1  0.87070678  0.50995856  0.39696790  1
  La3+  La2  1  -0.01496207  0.86982406  0.59156530  1
  La3+  La3  1  0.25791250  0.85595547  0.07387972  1
  La3+  La4  1  -0.01789699  0.62242324  0.57579434  1
  La3+  La5  1  -0.01402644  0.38013562  0.56450636  1
  La3+  La6  1  0.48721546  0.11963616  0.58032772  1
  La3+  La7  1  0.88453154  0.73791233  0.90723110  1
  La3+  La8  1  0.77280391  0.62086432  0.09613916  1
  La3+  La9  1  0.37736135  0.23364399  0.89814016  1
  La3+  La10  1  0.10877047  0.74953358  0.43570050  1
  La3+  La11  1  0.61237329  0.24453523  0.43654942  1
  La3+  La12  1  0.63449427  0.24319841  0.93193774  1
  La3+  La13  1  0.88526482  0.24004831  0.92882508  1
  La3+  La14  1  0.51546197  0.62690963  0.09540035  1
  La3+  La15  1  0.24277407  0.37944771  0.56708652  1
  La3+  La16  1  0.26695962  0.11318384  0.08038977  1
  La3+  La17  1  -0.00848671  0.12290669  0.56369335  1
  Ce3+  Ce18  1  0.86733786  0.00245016  0.43671163  1
  Ce3+  Ce19  1  0.23875731  0.63110671  0.55258935  1
  Ce3+  Ce20  1  0.38386779  0.74239177  0.93321061  1
  Ce3+  Ce21  1  0.11204364  0.25463382  0.44477869  1
  Ce3+  Ce22  1  0.76483713  0.36473286  0.06806031  1
  Ce3+  Ce23  1  0.23818054  0.87522087  0.55572327  1
  Ce3+  Ce24  1  0.73602759  0.37754562  0.54736177  1
  Ce3+  Ce25  1  0.26460127  0.61799660  0.05978296  1
  Ce3+  Ce26  1  0.01017217  0.61956465  0.05753350  1
  Ce3+  Ce27  1  0.64054367  0.73840251  0.94459299  1
  Ce3+  Ce28  1  0.76194649  0.12241974  0.06717114  1
  Ce3+  Ce29  1  0.51521918  0.36814558  0.05941823  1
  Ce3+  Ce30  1  0.61328577  0.00648744  0.44229379  1
  Ce3+  Ce31  1  0.14071978  0.24136037  0.94312352  1
  Ce3+  Ce32  1  0.74168338  0.87620762  0.55607325  1
  Ce3+  Ce33  1  0.86376490  0.74923409  0.44148844  1
  Ce3+  Ce34  1  0.48688916  0.62981009  0.55325124  1
  Ce3+  Ce35  1  0.01165170  0.36651551  0.05843655  1
  Ce3+  Ce36  1  0.13871630  0.49062266  0.94403689  1
  Ce3+  Ce37  1  0.48689528  0.87478438  0.56077223  1
  Pr3+  Pr38  1  0.49488645  0.38466550  0.56868501  1
  Pr3+  Pr39  1  0.26728758  0.36699741  0.05702021  1
  Pr3+  Pr40  1  0.36637625  0.50199471  0.43291351  1
  Pr3+  Pr41  1  0.61522312  0.75262527  0.43530058  1
  Pr3+  Pr42  1  0.74393166  0.12625546  0.57002352  1
  Pr3+  Pr43  1  0.76369680  0.86744862  0.06003203  1
  Pr3+  Pr44  1  0.73624523  0.62176097  0.55502432  1
  Pr3+  Pr45  1  0.61172218  0.49370242  0.41790424  1
  Pr3+  Pr46  1  0.14277187  -0.00658571  0.94277250  1
  Pr3+  Pr47  1  0.63971504  0.49564570  0.94781059  1
  Pr3+  Pr48  1  0.36165608  0.24920877  0.44062504  1
  Pr3+  Pr49  1  0.63602437  -0.00541547  0.94056316  1
  Nd3+  Nd50  1  0.38666582  -0.00712153  0.94055441  1
  Nd3+  Nd51  1  0.23825346  0.12166244  0.56180608  1
  Nd3+  Nd52  1  0.01551270  0.11492433  0.06833455  1
  Nd3+  Nd53  1  0.00800874  0.87048641  0.06174864  1
  Nd3+  Nd54  1  0.51083338  0.11981396  0.06341857  1
  Nd3+  Nd55  1  0.51363233  0.86565633  0.05899064  1
  Nd3+  Nd56  1  0.10787919  0.00054530  0.43130045  1
  Nd3+  Nd57  1  0.36591772  0.76206754  0.42574000  1
  Sm3+  Sm58  1  0.13693222  0.74154446  0.93130979  1
  Sm3+  Sm59  1  0.11314833  0.49992483  0.44109795  1
  Sm3+  Sm60  1  0.39125769  0.49393734  0.94417665  1
  Sm3+  Sm61  1  0.86592077  0.25188167  0.44139355  1
  Sm3+  Sm62  1  0.88700758  0.49473151  0.93995298  1
  Sm3+  Sm63  1  0.35672595  0.00984611  0.42759733  1
  Bi2+  Bi64  1  0.02699144  0.09608366  0.27761136  1
  Bi2+  Bi65  1  0.00436526  0.16304155  0.78513973  1
  Bi2+  Bi66  1  0.09254704  0.37656384  0.30126938  1
  Bi2+  Bi67  1  -0.06257786  0.36412391  0.81703085  1
  Bi2+  Bi68  1  0.02310018  0.66553368  0.29625407  1
  Bi2+  Bi69  1  0.00942022  0.53698580  0.77925795  1
  Bi2+  Bi70  1  -0.08238802  0.91211668  0.27223969  1
  Bi2+  Bi71  1  0.01350595  0.87113880  0.79112831  1
  Bi2+  Bi72  1  0.25929635  0.19747273  0.29772853  1
  Bi2+  Bi73  1  0.23981832  0.08315874  0.78846638  1
  Bi2+  Bi74  1  0.28547888  0.38416764  0.33121969  1
  Bi2+  Bi75  1  0.13479342  0.36207619  0.81285605  1
  Bi2+  Bi76  1  0.23801458  0.58279615  0.29924108  1
  Bi2+  Bi77  1  0.27506941  0.60654363  0.78727810  1
  Bi2+  Bi78  1  0.24972671  0.88487784  0.29835662  1
  Bi2+  Bi79  1  0.25292757  0.86462925  0.79120467  1
  Bi2+  Bi80  1  0.50957973  0.11363152  0.28050447  1
  Bi2+  Bi81  1  0.52285895  0.11025760  0.78766700  1
  Bi2+  Bi82  1  0.46961261  0.37724577  0.28449941  1
  Bi2+  Bi83  1  0.49304843  0.40343638  0.79979051  1
  Bi2+  Bi84  1  0.49233395  0.62647199  0.27865698  1
  Bi2+  Bi85  1  0.48828541  0.69452347  0.78116299  1
  Bi2+  Bi86  1  0.52954519  0.91452883  0.29110010  1
  Bi2+  Bi87  1  0.44950614  0.87575613  0.81525884  1
  Bi2+  Bi88  1  0.76676235  0.07131427  0.31203057  1
  Bi2+  Bi89  1  0.76804951  0.13611224  0.78581020  1
  Bi2+  Bi90  1  0.73910627  0.35330950  0.29798358  1
  Bi2+  Bi91  1  0.74917604  0.37776695  0.77962949  1
  Bi2+  Bi92  1  0.74137721  0.64981452  0.27966044  1
  Bi2+  Bi93  1  0.74956004  0.59114475  0.79662952  1
  Bi2+  Bi94  1  0.72648208  0.88274534  0.29805005  1
  Bi2+  Bi95  1  0.74774203  0.83618262  0.77474408  1
  Bi2+  Bi96  1  0.11085971  -0.02656932  0.19767736  1
  Bi2+  Bi97  1  0.14046507  0.03720642  0.69519657  1
  Bi2+  Bi98  1  0.11711251  0.26006204  0.20922000  1
  Bi2+  Bi99  1  0.12110794  0.25339585  0.71195385  1
  Bi2+  Bi100  1  0.11638614  0.51867393  0.21241426  1
  Bi2+  Bi101  1  0.14447711  0.45637445  0.70791339  1
  Bi2+  Bi102  1  0.15410040  0.71412255  0.21628857  1
  Bi2+  Bi103  1  0.19836924  0.73391783  0.71104801  1
  Bi2+  Bi104  1  0.39247885  -0.00571588  0.22106835  1
  Bi2+  Bi105  1  0.37486254  -0.07117369  0.70804779  1
  Bi2+  Bi106  1  0.38426847  0.24671793  0.21472299  1
  Bi2+  Bi107  1  0.37122992  0.25541818  0.71057899  1
  Bi2+  Bi108  1  0.30982019  0.47099738  0.21259890  1
  Bi2+  Bi109  1  0.40218578  0.56519389  0.70378582  1
  Bi2+  Bi110  1  0.38747503  0.74638016  0.21899269  1
  Bi2+  Bi111  1  0.41842302  0.74747399  0.66540225  1
  Bi2+  Bi112  1  0.62408652  0.06669093  0.17513366  1
  Bi2+  Bi113  1  0.59202011  -0.05905992  0.73969585  1
  Bi2+  Bi114  1  0.65363725  0.24543046  0.21401489  1
  Bi2+  Bi115  1  0.63330132  0.26755532  0.69446659  1
  Bi2+  Bi116  1  0.62626953  0.47243275  0.20437778  1
  Bi2+  Bi117  1  0.60992158  0.57163563  0.72026722  1
  Bi2+  Bi118  1  0.63801996  0.87424264  0.19181570  1
  Bi2+  Bi119  1  0.61352456  0.76352934  0.69192708  1
  Bi2+  Bi120  1  0.81276375  0.01021044  0.18538780  1
  Bi2+  Bi121  1  0.85247302  0.01349854  0.70618155  1
  Bi2+  Bi122  1  0.86846084  0.17943374  0.23511517  1
  Bi2+  Bi123  1  0.92709353  0.28929168  0.70371153  1
  Bi2+  Bi124  1  0.91113101  0.47658702  0.21333076  1
  Bi2+  Bi125  1  0.85436859  0.47680537  0.69775959  1
  Bi2+  Bi126  1  0.88839387  0.73614562  0.22153983  1
  Bi2+  Bi127  1  0.87350811  0.73643377  0.71131241  1
  S2-  S128  1  -0.02714392  -0.00810575  0.13999243  1
  S2-  S129  1  -0.07733346  0.13250147  0.65554019  1
  S2-  S130  1  -0.00873009  0.35013062  0.15653133  1
  S2-  S131  1  0.00066544  0.48760653  0.64490955  1
  S2-  S132  1  -0.06721625  0.61646712  0.14720275  1
  S2-  S133  1  0.00691090  0.73091362  0.65647784  1
  S2-  S134  1  0.09567538  0.82644697  0.14781766  1
  S2-  S135  1  0.01053458  0.93832254  0.68955752  1
  S2-  S136  1  0.13250907  0.13013270  0.14911890  1
  S2-  S137  1  0.28080476  0.12973715  0.65870387  1
  S2-  S138  1  0.25684151  0.32557215  0.15597106  1
  S2-  S139  1  0.28173230  0.38276540  0.66591080  1
  S2-  S140  1  0.27969267  0.71566327  0.14197424  1
  S2-  S141  1  0.21169326  0.60480286  0.64930457  1
  S2-  S142  1  0.26846451  0.96286669  0.15533282  1
  S2-  S143  1  0.21059143  0.88877083  0.65394490  1
  S2-  S144  1  0.40628011  0.12132976  0.14731191  1
  S2-  S145  1  0.50700010  0.15706387  0.68330707  1
  S2-  S146  1  0.53610570  0.34626269  0.15713971  1
  S2-  S147  1  0.49534105  0.34641557  0.67152281  1
  S2-  S148  1  0.43502040  0.56929724  0.18168604  1
  S2-  S149  1  0.52432233  0.53266871  0.63131656  1
  S2-  S150  1  0.49466782  0.78741768  0.14925585  1
  S2-  S151  1  0.49584837  0.96986662  0.64318140  1
  S2-  S152  1  0.77661372  0.24013126  0.14178682  1
  S2-  S153  1  0.72018766  0.11713286  0.67171369  1
  S2-  S154  1  0.77437492  0.46243690  0.15267190  1
  S2-  S155  1  0.72171827  0.39189297  0.64477601  1
  S2-  S156  1  0.64408386  0.62048426  0.17052873  1
  S2-  S157  1  0.81806872  0.62472320  0.64644291  1
  S2-  S158  1  0.77702855  0.78460787  0.14957241  1
  S2-  S159  1  0.81943661  0.87928467  0.64465845  1
  S2-  S160  1  0.21732738  0.00934743  0.35221930  1
  S2-  S161  1  0.12574558  -0.02032894  0.84035049  1
  S2-  S162  1  0.08223003  0.22242691  0.34854167  1
  S2-  S163  1  0.20749538  0.20231582  0.85491141  1
  S2-  S164  1  0.03665302  0.52395020  0.35410157  1
  S2-  S165  1  0.14585171  0.52977872  0.84742556  1
  S2-  S166  1  0.12000260  0.80184843  0.33809393  1
  S2-  S167  1  0.03394695  0.74659000  0.84833177  1
  S2-  S168  1  0.39247279  -0.10643522  0.35577282  1
  S2-  S169  1  0.38624448  0.07533528  0.84921469  1
  S2-  S170  1  0.38457710  0.14316665  0.35914650  1
  S2-  S171  1  0.35657955  0.32102137  0.80340895  1
  S2-  S172  1  0.47612373  0.51516899  0.35013230  1
  S2-  S173  1  0.39782795  0.51256519  0.84459726  1
  S2-  S174  1  0.35473686  0.69426609  0.32983478  1
  S2-  S175  1  0.26373590  0.73557206  0.85945585  1
  S2-  S176  1  0.61573686  0.11301561  0.36317595  1
  S2-  S177  1  0.65597261  0.05069357  0.84453514  1
  S2-  S178  1  0.59104834  0.34052194  0.35228300  1
  S2-  S179  1  0.53136680  0.24801801  0.84590309  1
  S2-  S180  1  0.71976126  0.51598783  0.33580225  1
  S2-  S181  1  0.64266168  0.46962753  0.84579897  1
  S2-  S182  1  0.60988029  0.71468168  0.33485137  1
  S2-  S183  1  0.71095339  0.73457860  0.85418475  1
  S2-  S184  1  0.97794987  -0.00027863  0.35836896  1
  S2-  S185  1  0.89836650  0.10821189  0.85351572  1
  S2-  S186  1  0.83224789  0.22239741  0.34488547  1
  S2-  S187  1  0.75288790  0.25527518  0.85443864  1
  S2-  S188  1  0.88975085  0.41769307  0.30417806  1
  S2-  S189  1  0.88713330  0.58361197  0.85146530  1
  S2-  S190  1  0.86775705  0.67669330  0.35092635  1
  S2-  S191  1  0.87974761  0.88673806  0.84504501  1
  S2-  S192  1  -0.01140120  0.13033813  0.45700572  1
  S2-  S193  1  0.01901363  0.11855341  0.95784363  1
  S2-  S194  1  -0.01404334  0.37878427  0.45280883  1
  S2-  S195  1  0.01303113  0.36831160  0.95112472  1
  S2-  S196  1  -0.01310885  0.62419171  0.45944635  1
  S2-  S197  1  0.01472588  0.61480245  0.95261538  1
  S2-  S198  1  -0.01409168  0.87335142  0.45559437  1
  S2-  S199  1  0.01780492  0.86786241  0.95463696  1
  S2-  S200  1  0.23167642  0.12783532  0.45653680  1
  S2-  S201  1  0.26735499  0.11735344  0.96374283  1
  S2-  S202  1  0.23737323  0.37735759  0.45752177  1
  S2-  S203  1  0.26979052  0.36726953  0.94856710  1
  S2-  S204  1  0.23769515  0.62519539  0.44492411  1
  S2-  S205  1  0.26385759  0.61248769  0.95584860  1
  S2-  S206  1  0.23600379  0.87726953  0.45110614  1
  S2-  S207  1  0.26471648  0.86706346  0.95839902  1
  S2-  S208  1  0.48548996  0.12214508  0.46688282  1
  S2-  S209  1  0.50858918  0.11751838  0.95628451  1
  S2-  S210  1  0.48331756  0.37265288  0.45886394  1
  S2-  S211  1  0.51051804  0.37097770  0.95293690  1
  S2-  S212  1  0.48630297  0.63405115  0.44847470  1
  S2-  S213  1  0.51186780  0.61958146  0.94486092  1
  S2-  S214  1  0.49434634  0.88074153  0.45584838  1
  S2-  S215  1  0.51346747  0.86657576  0.95200145  1
  S2-  S216  1  0.74655686  0.12681706  0.46160712  1
  S2-  S217  1  0.75985277  0.11735001  0.95894810  1
  S2-  S218  1  0.74615029  0.37545141  0.44272945  1
  S2-  S219  1  0.76594635  0.37192813  0.95868641  1
  S2-  S220  1  0.73844120  0.62600644  0.44828201  1
  S2-  S221  1  0.76602698  0.61650450  0.95693266  1
  S2-  S222  1  0.73977284  0.87891398  0.44803295  1
  S2-  S223  1  0.75934921  0.86787054  0.95265481  1
  S2-  S224  1  0.13993189  -0.01026668  0.04806135  1
  S2-  S225  1  0.11124162  -0.00303809  0.54731290  1
  S2-  S226  1  0.13930435  0.24537119  0.04688721  1
  S2-  S227  1  0.11506022  0.25303413  0.55496543  1
  S2-  S228  1  0.13839205  0.49240962  0.05273676  1
  S2-  S229  1  0.11723327  0.50252165  0.54381959  1
  S2-  S230  1  0.13621248  0.73614952  0.03782141  1
  S2-  S231  1  0.11188600  0.75231261  0.54559849  1
  S2-  S232  1  0.39071128  -0.01396630  0.04711297  1
  S2-  S233  1  0.36032894  -0.00110060  0.54262154  1
  S2-  S234  1  0.39127667  0.24593021  0.04936389  1
  S2-  S235  1  0.36557433  0.24995949  0.55126556  1
  S2-  S236  1  0.39240703  0.49656171  0.05166250  1
  S2-  S237  1  0.36331171  0.50515638  0.54232438  1
  S2-  S238  1  0.39397231  0.73700430  0.03959742  1
  S2-  S239  1  0.36197719  0.75359004  0.53519709  1
  S2-  S240  1  0.63622883  -0.00755227  0.04765067  1
  S2-  S241  1  0.62027818  0.00144616  0.54859623  1
  S2-  S242  1  0.63516477  0.24152194  0.04395042  1
  S2-  S243  1  0.61296949  0.24794107  0.55002291  1
  S2-  S244  1  0.63485529  0.49804186  0.05434439  1
  S2-  S245  1  0.61481271  0.50120905  0.52743929  1
  S2-  S246  1  0.63891324  0.73908887  0.04931242  1
  S2-  S247  1  0.61527763  0.75230872  0.54425870  1
  S2-  S248  1  0.88169380  -0.00391138  0.03810374  1
  S2-  S249  1  0.86691757  0.00008446  0.54520768  1
  S2-  S250  1  0.89420982  0.23956102  0.04075287  1
  S2-  S251  1  0.86380772  0.25345537  0.54792195  1
  S2-  S252  1  0.88966676  0.49177066  0.04419348  1
  S2-  S253  1  0.85991210  0.49817966  0.54185842  1
  S2-  S254  1  0.89013675  0.74421685  0.04342987  1
  S2-  S255  1  0.86274025  0.75112005  0.54503872  1
