# generated using pymatgen
data_La9Ce10Pr6Nd4Sm3(BiS2)32
_symmetry_space_group_name_H-M   'P 1'
_cell_length_a   16.18488575
_cell_length_b   16.23313586
_cell_length_c   27.29421846
_cell_angle_alpha   90.16233244
_cell_angle_beta   90.23245672
_cell_angle_gamma   90.04042554
_symmetry_Int_Tables_number   1
_chemical_formula_structural   La9Ce10Pr6Nd4Sm3(BiS2)32
_chemical_formula_sum   'La18 Ce20 Pr12 Nd8 Sm6 Bi64 S128'
_cell_volume   7170.95992435
_cell_formula_units_Z   2
loop_
 _symmetry_equiv_pos_site_id
 _symmetry_equiv_pos_as_xyz
  1  'x, y, z'
loop_
 _atom_type_symbol
 _atom_type_oxidation_number
  La3+  3.0
  Ce3+  3.0
  Pr3+  3.0
  Nd3+  3.0
  Sm3+  3.0
  Bi2+  2.0
  S2-  -2.0
loop_
 _atom_site_type_symbol
 _atom_site_label
 _atom_site_symmetry_multiplicity
 _atom_site_fract_x
 _atom_site_fract_y
 _atom_site_fract_z
 _atom_site_occupancy
  La3+  La0  1  0.62901441  0.26237658  0.94450580  1
  La3+  La1  1  0.38229178  0.50428583  0.89412930  1
  La3+  La2  1  0.88553327  0.23221013  0.41994249  1
  La3+  La3  1  0.12922068  0.48080011  0.42776813  1
  La3+  La4  1  0.76423930  0.88605306  0.06499621  1
  La3+  La5  1  0.37929642  0.75901216  0.92818845  1
  La3+  La6  1  0.87737147  0.75323467  0.92695894  1
  La3+  La7  1  0.51859752  0.87310166  0.59846017  1
  La3+  La8  1  0.00531349  0.12444570  0.57734254  1
  La3+  La9  1  0.86478340  0.50635432  0.38931200  1
  La3+  La10  1  0.75664301  0.64510237  0.09147590  1
  La3+  La11  1  0.52020944  0.60738703  0.58224449  1
  La3+  La12  1  0.62276923  0.75366987  0.92469923  1
  La3+  La13  1  0.62390914  0.48663443  0.42615269  1
  La3+  La14  1  0.38866037  -0.01412097  0.43799606  1
  La3+  La15  1  0.12943482  0.26170278  0.93038561  1
  La3+  La16  1  0.38921461  0.00780106  0.92139059  1
  La3+  La17  1  0.01312336  0.13795703  0.06686217  1
  Ce3+  Ce18  1  0.26161009  0.61210776  0.56214501  1
  Ce3+  Ce19  1  0.51495707  0.11528257  0.56478835  1
  Ce3+  Ce20  1  0.76700695  0.86575253  0.56616434  1
  Ce3+  Ce21  1  0.37741083  0.26327162  0.94504509  1
  Ce3+  Ce22  1  0.63411520  -0.01435066  0.44691981  1
  Ce3+  Ce23  1  0.76466963  0.36783209  0.54553355  1
  Ce3+  Ce24  1  0.76474258  0.13820112  0.07297494  1
  Ce3+  Ce25  1  0.38400540  0.23871052  0.45140727  1
  Ce3+  Ce26  1  0.76024392  0.61293514  0.55994545  1
  Ce3+  Ce27  1  0.13328294  0.01057074  0.94454420  1
  Ce3+  Ce28  1  0.13324173  0.51062068  0.93938992  1
  Ce3+  Ce29  1  0.38433243  0.48924655  0.44298970  1
  Ce3+  Ce30  1  0.88431575  -0.01139800  0.44262987  1
  Ce3+  Ce31  1  0.50245084  0.13349063  0.06368357  1
  Ce3+  Ce32  1  0.76398431  0.11849127  0.55749216  1
  Ce3+  Ce33  1  0.26453810  0.86380956  0.56021557  1
  Ce3+  Ce34  1  0.38752172  0.73708392  0.45497577  1
  Ce3+  Ce35  1  0.13167206  -0.00761837  0.44451391  1
  Ce3+  Ce36  1  0.26183289  0.10926306  0.56342418  1
  Ce3+  Ce37  1  0.25793737  0.63530762  0.05449061  1
  Pr3+  Pr38  1  0.62567988  0.50738795  0.94812174  1
  Pr3+  Pr39  1  0.25874714  0.36155726  0.56372454  1
  Pr3+  Pr40  1  0.87627452  0.50930501  0.94599335  1
  Pr3+  Pr41  1  0.63240213  0.01129671  0.94963680  1
  Pr3+  Pr42  1  0.01077111  0.86281032  0.56719744  1
  Pr3+  Pr43  1  0.88244246  0.73881178  0.44023481  1
  Pr3+  Pr44  1  0.13454030  0.23071340  0.43558420  1
  Pr3+  Pr45  1  0.76082898  0.37785368  0.08821284  1
  Pr3+  Pr46  1  0.13470400  0.73814690  0.44170073  1
  Pr3+  Pr47  1  0.63257910  0.24029636  0.43711676  1
  Pr3+  Pr48  1  0.50757429  0.63360458  0.06115612  1
  Pr3+  Pr49  1  0.88252486  0.01127865  0.93348190  1
  Nd3+  Nd50  1  0.25255312  0.38770843  0.06463119  1
  Nd3+  Nd51  1  0.25989065  0.88238034  0.05798354  1
  Nd3+  Nd52  1  0.13078826  0.75869623  0.94214743  1
  Nd3+  Nd53  1  0.51050140  0.88049441  0.05794280  1
  Nd3+  Nd54  1  0.26137810  0.13112309  0.06421760  1
  Nd3+  Nd55  1  0.00966307  0.38865824  0.06675560  1
  Nd3+  Nd56  1  0.88136537  0.26153401  0.93854349  1
  Nd3+  Nd57  1  0.51505024  0.36298343  0.56589032  1
  Sm3+  Sm58  1  0.00086293  0.63690973  0.05819227  1
  Sm3+  Sm59  1  0.01128402  0.61126858  0.55233812  1
  Sm3+  Sm60  1  0.00246023  0.88283062  0.05271634  1
  Sm3+  Sm61  1  0.00765701  0.36473157  0.55079145  1
  Sm3+  Sm62  1  0.50480359  0.38855625  0.06652654  1
  Sm3+  Sm63  1  0.63180228  0.73845291  0.44882994  1
  Bi2+  Bi64  1  0.00687073  0.06246460  0.28836475  1
  Bi2+  Bi65  1  0.05087056  0.14358134  0.80698835  1
  Bi2+  Bi66  1  0.00918748  0.37195618  0.28249179  1
  Bi2+  Bi67  1  -0.09407744  0.39652472  0.80125947  1
  Bi2+  Bi68  1  0.02215774  0.64252336  0.28775808  1
  Bi2+  Bi69  1  -0.02046674  0.63890201  0.80319680  1
  Bi2+  Bi70  1  -0.02390665  0.86574645  0.29737750  1
  Bi2+  Bi71  1  0.01050427  0.89676252  0.79567368  1
  Bi2+  Bi72  1  0.19872381  0.08677495  0.26802559  1
  Bi2+  Bi73  1  0.31744116  0.11398076  0.80645763  1
  Bi2+  Bi74  1  0.26400077  0.33882969  0.29233168  1
  Bi2+  Bi75  1  0.25383150  0.37606280  0.78887475  1
  Bi2+  Bi76  1  0.24404771  0.53386491  0.31318703  1
  Bi2+  Bi77  1  0.14619359  0.66027709  0.74200640  1
  Bi2+  Bi78  1  0.17633439  0.84451359  0.30420551  1
  Bi2+  Bi79  1  0.24305850  0.81777408  0.78879141  1
  Bi2+  Bi80  1  0.46972934  0.11983015  0.29440967  1
  Bi2+  Bi81  1  0.50966727  0.10526967  0.78777175  1
  Bi2+  Bi82  1  0.46925775  0.37738766  0.30124214  1
  Bi2+  Bi83  1  0.51154446  0.35336589  0.78729536  1
  Bi2+  Bi84  1  0.40000829  0.63075309  0.28099106  1
  Bi2+  Bi85  1  0.52431767  0.59943654  0.77928056  1
  Bi2+  Bi86  1  0.49225004  0.85938248  0.31982070  1
  Bi2+  Bi87  1  0.52132970  0.85671083  0.80082356  1
  Bi2+  Bi88  1  0.74625686  0.10717084  0.28759551  1
  Bi2+  Bi89  1  0.79789578  0.14524734  0.78548772  1
  Bi2+  Bi90  1  0.71312613  0.38388846  0.28251536  1
  Bi2+  Bi91  1  0.72736642  0.31834676  0.81471666  1
  Bi2+  Bi92  1  0.72713101  0.67929841  0.29377756  1
  Bi2+  Bi93  1  0.77225258  0.57437430  0.72657574  1
  Bi2+  Bi94  1  0.75668010  0.90697896  0.29165761  1
  Bi2+  Bi95  1  0.75069998  0.92826802  0.74416222  1
  Bi2+  Bi96  1  0.09097939  -0.05766096  0.21093466  1
  Bi2+  Bi97  1  0.17113954  0.00582440  0.74072644  1
  Bi2+  Bi98  1  0.13943656  0.25373782  0.20944192  1
  Bi2+  Bi99  1  0.14528261  0.24416662  0.69481536  1
  Bi2+  Bi100  1  0.14825172  0.52617250  0.20867775  1
  Bi2+  Bi101  1  0.06879376  0.47045495  0.75406423  1
  Bi2+  Bi102  1  0.11124917  0.73797452  0.20507277  1
  Bi2+  Bi103  1  0.08170724  0.83800390  0.69658462  1
  Bi2+  Bi104  1  0.37395050  -0.01611419  0.21151174  1
  Bi2+  Bi105  1  0.37719987  0.01300688  0.71572552  1
  Bi2+  Bi106  1  0.33379289  0.20141542  0.21518093  1
  Bi2+  Bi107  1  0.38950387  0.24225019  0.72097107  1
  Bi2+  Bi108  1  0.33990760  0.47186025  0.21379962  1
  Bi2+  Bi109  1  0.36619460  0.49741554  0.69111937  1
  Bi2+  Bi110  1  0.30212407  0.76922996  0.22648243  1
  Bi2+  Bi111  1  0.35074846  0.75199759  0.70394436  1
  Bi2+  Bi112  1  0.60769552  -0.00594268  0.21748948  1
  Bi2+  Bi113  1  0.66029436  0.08753323  0.70966919  1
  Bi2+  Bi114  1  0.60279886  0.18721342  0.22403524  1
  Bi2+  Bi115  1  0.56864557  0.24598387  0.67638804  1
  Bi2+  Bi116  1  0.56366735  0.51749234  0.20689006  1
  Bi2+  Bi117  1  0.66131568  0.40828067  0.71561312  1
  Bi2+  Bi118  1  0.57653622  0.77204941  0.20718284  1
  Bi2+  Bi119  1  0.67992657  0.75075458  0.72125506  1
  Bi2+  Bi120  1  0.80001331  0.00282265  0.19283594  1
  Bi2+  Bi121  1  0.91325155  0.01280142  0.70425974  1
  Bi2+  Bi122  1  0.86605239  0.24306104  0.21192405  1
  Bi2+  Bi123  1  0.88552314  0.26724504  0.70967316  1
  Bi2+  Bi124  1  0.85011519  0.51911011  0.19466764  1
  Bi2+  Bi125  1  0.92539227  0.48299823  0.67891505  1
  Bi2+  Bi126  1  0.86016371  0.79024722  0.20760222  1
  Bi2+  Bi127  1  0.89959278  0.73051118  0.70867013  1
  S2-  S128  1  -0.10030087  0.12850605  0.14409641  1
  S2-  S129  1  0.07427051  0.08581752  0.67128094  1
  S2-  S130  1  -0.08813460  0.37564601  0.15073070  1
  S2-  S131  1  0.01520755  0.28211626  0.63840930  1
  S2-  S132  1  -0.08369877  0.65470522  0.14369553  1
  S2-  S133  1  -0.00324179  0.63074796  0.65040387  1
  S2-  S134  1  -0.09213171  0.88915339  0.13500214  1
  S2-  S135  1  -0.10690513  0.87096825  0.64222815  1
  S2-  S136  1  0.14442183  0.14082786  0.13903564  1
  S2-  S137  1  0.27696360  0.16313263  0.65586417  1
  S2-  S138  1  0.13726019  0.39219130  0.14101921  1
  S2-  S139  1  0.23349265  0.38471642  0.66276128  1
  S2-  S140  1  0.24001554  0.65340774  0.15116887  1
  S2-  S141  1  0.24511847  0.61757310  0.65948072  1
  S2-  S142  1  0.26331880  0.91289340  0.15684325  1
  S2-  S143  1  0.29601038  0.89571286  0.65380253  1
  S2-  S144  1  0.38982542  0.10924742  0.13658153  1
  S2-  S145  1  0.50391471  0.02768689  0.64916118  1
  S2-  S146  1  0.47903722  0.39052717  0.16502582  1
  S2-  S147  1  0.51580618  0.45452632  0.64944041  1
  S2-  S148  1  0.48894216  0.66110685  0.16067710  1
  S2-  S149  1  0.46001531  0.63019582  0.67901449  1
  S2-  S150  1  0.49411804  0.89270724  0.15721498  1
  S2-  S151  1  0.49873147  0.82188701  0.69893710  1
  S2-  S152  1  0.72916500  0.23637948  0.15303857  1
  S2-  S153  1  0.85516712  0.13036988  0.64119785  1
  S2-  S154  1  0.69392813  0.42890722  0.18000201  1
  S2-  S155  1  0.78331934  0.36327333  0.64441660  1
  S2-  S156  1  0.70425573  0.61785150  0.19414624  1
  S2-  S157  1  0.67475576  0.62146429  0.64498369  1
  S2-  S158  1  0.71567837  0.79528147  0.14655384  1
  S2-  S159  1  0.67851663  0.87558573  0.65113736  1
  S2-  S160  1  0.13079711  0.09514239  0.36426766  1
  S2-  S161  1  0.13585075  0.00318611  0.84762302  1
  S2-  S162  1  0.12516563  0.32873625  0.35185841  1
  S2-  S163  1  0.19400574  0.23509001  0.83503696  1
  S2-  S164  1  0.02418246  0.50218936  0.34711396  1
  S2-  S165  1  0.21107409  0.48786283  0.85401318  1
  S2-  S166  1  0.15669241  0.68269996  0.34721354  1
  S2-  S167  1  0.13226762  0.72415325  0.84447413  1
  S2-  S168  1  0.37993359  -0.01062003  0.33701022  1
  S2-  S169  1  0.36667824  -0.11852378  0.84941989  1
  S2-  S170  1  0.39312198  0.24094165  0.35379038  1
  S2-  S171  1  0.38202372  0.34118851  0.85611868  1
  S2-  S172  1  0.47882424  0.50622436  0.36016819  1
  S2-  S173  1  0.37157579  0.55329675  0.78926892  1
  S2-  S174  1  0.38512838  0.75540073  0.35723445  1
  S2-  S175  1  0.48820987  0.71435428  0.84979252  1
  S2-  S176  1  0.61660388  -0.03319849  0.35076516  1
  S2-  S177  1  0.55031900  -0.00345010  0.86109153  1
  S2-  S178  1  0.61436586  0.32591239  0.34927600  1
  S2-  S179  1  0.58308657  0.23255574  0.84825590  1
  S2-  S180  1  0.70673505  0.52578393  0.34062020  1
  S2-  S181  1  0.55421865  0.49732344  0.85403493  1
  S2-  S182  1  0.60797726  0.73394204  0.34918775  1
  S2-  S183  1  0.67106851  0.78753775  0.82698244  1
  S2-  S184  1  0.88246730  0.07862243  0.35894751  1
  S2-  S185  1  0.91786704  0.04206619  0.83607813  1
  S2-  S186  1  0.88305993  0.28055866  0.31932005  1
  S2-  S187  1  0.99049810  0.26524161  0.85884865  1
  S2-  S188  1  0.86491618  0.46872452  0.28356059  1
  S2-  S189  1  0.85984591  0.54992943  0.84762597  1
  S2-  S190  1  0.87608114  0.67253343  0.34692990  1
  S2-  S191  1  0.90152811  0.79381484  0.82999900  1
  S2-  S192  1  0.00663338  0.11094481  0.46370736  1
  S2-  S193  1  0.00754220  0.13311054  0.95724597  1
  S2-  S194  1  0.00480346  0.35794098  0.44952782  1
  S2-  S195  1  0.00531237  0.39034201  0.95788697  1
  S2-  S196  1  0.00800165  0.61396146  0.45053398  1
  S2-  S197  1  0.00538963  0.63361438  0.95293844  1
  S2-  S198  1  0.00968417  0.86341872  0.45559016  1
  S2-  S199  1  0.00561160  0.88281002  0.94893613  1
  S2-  S200  1  0.26437767  0.11045553  0.45853178  1
  S2-  S201  1  0.25873465  0.13254279  0.95569568  1
  S2-  S202  1  0.26064143  0.36309442  0.45557650  1
  S2-  S203  1  0.25678113  0.38816098  0.95978573  1
  S2-  S204  1  0.25912767  0.61169569  0.45647718  1
  S2-  S205  1  0.25788185  0.63419392  0.94822291  1
  S2-  S206  1  0.25830011  0.86446579  0.45410601  1
  S2-  S207  1  0.25322762  0.88350882  0.95261220  1
  S2-  S208  1  0.51186434  0.11449172  0.45593330  1
  S2-  S209  1  0.50287275  0.13654584  0.95879241  1
  S2-  S210  1  0.50567554  0.36158364  0.46084114  1
  S2-  S211  1  0.50031114  0.38593980  0.96202538  1
  S2-  S212  1  0.50999107  0.61628331  0.46670441  1
  S2-  S213  1  0.49482216  0.62381540  0.95629410  1
  S2-  S214  1  0.51114023  0.86171069  0.46074076  1
  S2-  S215  1  0.50888936  0.88038566  0.95472906  1
  S2-  S216  1  0.75465825  0.11420940  0.45261552  1
  S2-  S217  1  0.75821096  0.13641713  0.95411830  1
  S2-  S218  1  0.76492419  0.36663135  0.43931855  1
  S2-  S219  1  0.75522522  0.38429187  0.95533209  1
  S2-  S220  1  0.75598978  0.61535417  0.45413456  1
  S2-  S221  1  0.74869554  0.63342542  0.94678811  1
  S2-  S222  1  0.75866871  0.86238954  0.45530335  1
  S2-  S223  1  0.75634558  0.88563640  0.94797063  1
  S2-  S224  1  0.13097152  0.00043030  0.04883517  1
  S2-  S225  1  0.13496202  -0.01315209  0.55189165  1
  S2-  S226  1  0.13377340  0.26413122  0.03856640  1
  S2-  S227  1  0.13809376  0.23677990  0.54273622  1
  S2-  S228  1  0.12775620  0.51864905  0.04477460  1
  S2-  S229  1  0.13236754  0.48655085  0.54372599  1
  S2-  S230  1  0.12678509  0.76029837  0.04859699  1
  S2-  S231  1  0.13484535  0.73792655  0.54936655  1
  S2-  S232  1  0.38415394  0.00139030  0.03524928  1
  S2-  S233  1  0.38860502  -0.01198201  0.54694700  1
  S2-  S234  1  0.37959658  0.26676007  0.05170840  1
  S2-  S235  1  0.38824231  0.23888675  0.55589255  1
  S2-  S236  1  0.37940970  0.50984815  0.06171732  1
  S2-  S237  1  0.38381013  0.48777723  0.54938299  1
  S2-  S238  1  0.38332516  0.76010893  0.04407333  1
  S2-  S239  1  0.39125820  0.74062821  0.56085371  1
  S2-  S240  1  0.63337789  0.01192458  0.05594428  1
  S2-  S241  1  0.64106534  -0.00661783  0.55050414  1
  S2-  S242  1  0.62558352  0.26256052  0.05186218  1
  S2-  S243  1  0.63951009  0.24109638  0.54385030  1
  S2-  S244  1  0.63552982  0.50867114  0.05615015  1
  S2-  S245  1  0.63798891  0.48585792  0.53999572  1
  S2-  S246  1  0.63286813  0.75603099  0.03911780  1
  S2-  S247  1  0.63529345  0.74604278  0.55147403  1
  S2-  S248  1  0.88425311  0.01175722  0.03832272  1
  S2-  S249  1  0.88830868  -0.00746805  0.54475149  1
  S2-  S250  1  0.88239162  0.26449823  0.04317784  1
  S2-  S251  1  0.88362255  0.24297247  0.53308087  1
  S2-  S252  1  0.87435543  0.51365630  0.05153093  1
  S2-  S253  1  0.88901660  0.49111652  0.54521553  1
  S2-  S254  1  0.87956635  0.75696012  0.03553832  1
  S2-  S255  1  0.88780619  0.73404844  0.54588030  1
