# generated using pymatgen
data_La9Ce10Pr6Nd4Sm3(BiS2)32
_symmetry_space_group_name_H-M   'P 1'
_cell_length_a   16.09360813
_cell_length_b   16.10976381
_cell_length_c   27.13567013
_cell_angle_alpha   89.30893440
_cell_angle_beta   90.19181932
_cell_angle_gamma   90.01608859
_symmetry_Int_Tables_number   1
_chemical_formula_structural   La9Ce10Pr6Nd4Sm3(BiS2)32
_chemical_formula_sum   'La18 Ce20 Pr12 Nd8 Sm6 Bi64 S128'
_cell_volume   7034.75715180
_cell_formula_units_Z   2
loop_
 _symmetry_equiv_pos_site_id
 _symmetry_equiv_pos_as_xyz
  1  'x, y, z'
loop_
 _atom_type_symbol
 _atom_type_oxidation_number
  La3+  3.0
  Ce3+  3.0
  Pr3+  3.0
  Nd3+  3.0
  Sm3+  3.0
  Bi2+  2.0
  S2-  -2.0
loop_
 _atom_site_type_symbol
 _atom_site_label
 _atom_site_symmetry_multiplicity
 _atom_site_fract_x
 _atom_site_fract_y
 _atom_site_fract_z
 _atom_site_occupancy
  La3+  La0  1  0.64157525  0.26139731  0.91783061  1
  La3+  La1  1  0.25361861  0.13162897  0.07595525  1
  La3+  La2  1  0.61915631  0.52363928  0.43961696  1
  La3+  La3  1  0.88071951  0.00895466  0.94463108  1
  La3+  La4  1  0.50784394  0.88823928  0.08065505  1
  La3+  La5  1  0.12401714  0.02772564  0.42788802  1
  La3+  La6  1  0.37866198  0.01160884  0.93906645  1
  La3+  La7  1  0.61980073  0.27531373  0.44048587  1
  La3+  La8  1  0.12719441  0.27509725  0.43042027  1
  La3+  La9  1  0.00023367  0.89543565  0.56935104  1
  La3+  La10  1  -0.00053667  0.63729301  0.58090437  1
  La3+  La11  1  0.00943099  0.39238400  0.08535124  1
  La3+  La12  1  0.88026235  0.75863078  0.89470578  1
  La3+  La13  1  0.87292108  0.52631897  0.42981557  1
  La3+  La14  1  0.75617091  0.14072513  0.07486418  1
  La3+  La15  1  0.87749850  0.77683393  0.42063142  1
  La3+  La16  1  0.74727916  0.40158492  0.56730978  1
  La3+  La17  1  0.37250531  0.26438933  0.91682399  1
  Ce3+  Ce18  1  0.49209156  0.65492881  0.56554038  1
  Ce3+  Ce19  1  -0.00018157  0.39771102  0.55604173  1
  Ce3+  Ce20  1  0.24650577  0.89608368  0.55456981  1
  Ce3+  Ce21  1  0.37289831  0.77421698  0.42905979  1
  Ce3+  Ce22  1  0.25137171  0.14431234  0.56418177  1
  Ce3+  Ce23  1  -0.00112695  0.14902876  0.55737664  1
  Ce3+  Ce24  1  0.26218853  0.88012966  0.07380084  1
  Ce3+  Ce25  1  0.38687860  0.76121477  0.93997490  1
  Ce3+  Ce26  1  0.88760398  0.26404375  0.94531570  1
  Ce3+  Ce27  1  0.25852125  0.63357461  0.05286427  1
  Ce3+  Ce28  1  0.37555962  0.03365800  0.43537022  1
  Ce3+  Ce29  1  0.00782119  0.13734919  0.06952846  1
  Ce3+  Ce30  1  0.75016413  0.65884331  0.55962896  1
  Ce3+  Ce31  1  0.13063542  0.00798475  0.94765704  1
  Ce3+  Ce32  1  0.12816101  0.76081075  0.93979099  1
  Ce3+  Ce33  1  0.49218342  0.39387457  0.58160714  1
  Ce3+  Ce34  1  0.50787916  0.37605105  0.05630064  1
  Ce3+  Ce35  1  0.88603559  0.51071952  0.93245338  1
  Ce3+  Ce36  1  0.38069019  0.50619583  0.93896826  1
  Ce3+  Ce37  1  0.13155914  0.51002717  0.93660087  1
  Pr3+  Pr38  1  0.25879109  0.38069129  0.07033281  1
  Pr3+  Pr39  1  0.75367379  0.89738377  0.55501671  1
  Pr3+  Pr40  1  0.50185906  0.89969335  0.55985065  1
  Pr3+  Pr41  1  0.50727339  0.13752319  0.05846582  1
  Pr3+  Pr42  1  0.62344769  0.02862624  0.43031027  1
  Pr3+  Pr43  1  0.49509300  0.14341607  0.58300877  1
  Pr3+  Pr44  1  0.75850731  0.87679068  0.07020259  1
  Pr3+  Pr45  1  0.61550647  0.77137837  0.42287098  1
  Pr3+  Pr46  1  0.87277667  0.03073479  0.43083694  1
  Pr3+  Pr47  1  0.12423787  0.77550937  0.43110238  1
  Pr3+  Pr48  1  0.63127372  0.50930425  0.93430624  1
  Pr3+  Pr49  1  0.00331233  0.87898111  0.06850541  1
  Nd3+  Nd50  1  0.75266834  0.14798997  0.56796010  1
  Nd3+  Nd51  1  0.24773876  0.64882858  0.56281854  1
  Nd3+  Nd52  1  0.50861852  0.63075771  0.06470865  1
  Nd3+  Nd53  1  0.87009949  0.27570898  0.43096167  1
  Nd3+  Nd54  1  0.37586043  0.27806168  0.44346733  1
  Nd3+  Nd55  1  0.63295606  0.01076431  0.94557163  1
  Nd3+  Nd56  1  0.75749218  0.38466477  0.06181280  1
  Nd3+  Nd57  1  0.12545511  0.52202906  0.43112142  1
  Sm3+  Sm58  1  0.00505669  0.63336816  0.05692168  1
  Sm3+  Sm59  1  0.37277681  0.51918712  0.44437116  1
  Sm3+  Sm60  1  0.75864921  0.63284200  0.05063335  1
  Sm3+  Sm61  1  0.62783002  0.76316399  0.93639202  1
  Sm3+  Sm62  1  0.24947137  0.39727372  0.56537421  1
  Sm3+  Sm63  1  0.13074669  0.26186009  0.94506794  1
  Bi2+  Bi64  1  -0.00932141  0.04513580  0.20353887  1
  Bi2+  Bi65  1  0.02204587  0.17088508  0.80723648  1
  Bi2+  Bi66  1  -0.00188009  0.45942905  0.28458152  1
  Bi2+  Bi67  1  0.01085816  0.37751542  0.85216682  1
  Bi2+  Bi68  1  0.08974222  0.62655005  0.31039230  1
  Bi2+  Bi69  1  0.00968128  0.54403984  0.78253064  1
  Bi2+  Bi70  1  0.00531989  0.88747485  0.27915548  1
  Bi2+  Bi71  1  0.02399671  0.91694458  0.79772420  1
  Bi2+  Bi72  1  0.22568732  0.06206262  0.29377334  1
  Bi2+  Bi73  1  0.27476705  0.10036655  0.80465104  1
  Bi2+  Bi74  1  0.27856961  0.29296219  0.31108841  1
  Bi2+  Bi75  1  0.21312205  0.38643687  0.80283634  1
  Bi2+  Bi76  1  0.29485095  0.61215229  0.33534625  1
  Bi2+  Bi77  1  0.29053618  0.62825891  0.79008143  1
  Bi2+  Bi78  1  0.24617476  0.79401250  0.31065021  1
  Bi2+  Bi79  1  0.25893645  0.81890989  0.79579095  1
  Bi2+  Bi80  1  0.50720010  0.08704153  0.30785596  1
  Bi2+  Bi81  1  0.52148970  0.08290681  0.78338415  1
  Bi2+  Bi82  1  0.49426858  0.44349260  0.29152933  1
  Bi2+  Bi83  1  0.51512950  0.42610406  0.77963960  1
  Bi2+  Bi84  1  0.48312780  0.64513147  0.29572649  1
  Bi2+  Bi85  1  0.47694973  0.60507506  0.82472741  1
  Bi2+  Bi86  1  0.38722222  0.88540022  0.24800729  1
  Bi2+  Bi87  1  0.45347501  0.85056842  0.77493370  1
  Bi2+  Bi88  1  0.76460684  0.06834979  0.30854918  1
  Bi2+  Bi89  1  0.76881443  0.10789478  0.80552825  1
  Bi2+  Bi90  1  0.74798758  0.36493571  0.29003351  1
  Bi2+  Bi91  1  0.79688809  0.40782076  0.81025844  1
  Bi2+  Bi92  1  0.73341962  0.56153667  0.28828771  1
  Bi2+  Bi93  1  0.73481237  0.59115386  0.77927122  1
  Bi2+  Bi94  1  0.78917148  0.76347542  0.28534536  1
  Bi2+  Bi95  1  0.70499663  0.87080955  0.78266919  1
  Bi2+  Bi96  1  0.12159901  -0.10357892  0.18365522  1
  Bi2+  Bi97  1  0.07213069  0.08285730  0.70912960  1
  Bi2+  Bi98  1  0.14279654  0.27043826  0.20484657  1
  Bi2+  Bi99  1  0.13697309  0.27147603  0.71939748  1
  Bi2+  Bi100  1  0.20648620  0.46991619  0.26605625  1
  Bi2+  Bi101  1  0.13805403  0.47452887  0.70610771  1
  Bi2+  Bi102  1  0.10530831  0.70752040  0.20452421  1
  Bi2+  Bi103  1  0.14583418  0.76120052  0.70507983  1
  Bi2+  Bi104  1  0.36771388  0.07644965  0.21425762  1
  Bi2+  Bi105  1  0.24376146  -0.01979002  0.71472162  1
  Bi2+  Bi106  1  0.40854659  0.27518965  0.22256226  1
  Bi2+  Bi107  1  0.38477175  0.25653722  0.71356369  1
  Bi2+  Bi108  1  0.36995791  0.46862361  0.19847122  1
  Bi2+  Bi109  1  0.39181218  0.52606910  0.71142560  1
  Bi2+  Bi110  1  0.33306702  0.70225027  0.21620545  1
  Bi2+  Bi111  1  0.35434133  0.81274642  0.68030441  1
  Bi2+  Bi112  1  0.60881974  -0.01358644  0.21861105  1
  Bi2+  Bi113  1  0.62008506  -0.09814492  0.68410658  1
  Bi2+  Bi114  1  0.61791828  0.29050802  0.21567177  1
  Bi2+  Bi115  1  0.66714861  0.25596247  0.71607295  1
  Bi2+  Bi116  1  0.56249108  0.47220177  0.18096356  1
  Bi2+  Bi117  1  0.60243354  0.50829263  0.68939215  1
  Bi2+  Bi118  1  0.65161956  0.72390880  0.21090259  1
  Bi2+  Bi119  1  0.58112479  0.68544911  0.73460070  1
  Bi2+  Bi120  1  0.82837892  -0.07201789  0.21743923  1
  Bi2+  Bi121  1  0.84107065  0.04840907  0.70772505  1
  Bi2+  Bi122  1  0.85774448  0.19581323  0.21195925  1
  Bi2+  Bi123  1  0.93931077  0.31238596  0.74912633  1
  Bi2+  Bi124  1  0.85098826  0.48202522  0.20818967  1
  Bi2+  Bi125  1  0.84387707  0.48772021  0.70224847  1
  Bi2+  Bi126  1  0.90660654  0.67530884  0.19679234  1
  Bi2+  Bi127  1  0.85686368  0.77921894  0.69514951  1
  S2-  S128  1  0.11226441  0.13666176  0.14832692  1
  S2-  S129  1  -0.06069808  0.15647215  0.64954146  1
  S2-  S130  1  -0.02526569  0.28342210  0.17023162  1
  S2-  S131  1  -0.00500090  0.46765977  0.64551610  1
  S2-  S132  1  -0.01463730  0.54660929  0.14425072  1
  S2-  S133  1  -0.00217644  0.77171042  0.64858467  1
  S2-  S134  1  -0.11641385  0.83725897  0.14369986  1
  S2-  S135  1  -0.13118913  0.93214288  0.64246439  1
  S2-  S136  1  0.28817829  0.25570761  0.14735887  1
  S2-  S137  1  0.34072888  0.14357414  0.64971375  1
  S2-  S138  1  0.14909554  0.40361547  0.15143673  1
  S2-  S139  1  0.34650457  0.39130708  0.64888624  1
  S2-  S140  1  0.22862560  0.62573001  0.15024868  1
  S2-  S141  1  0.14783723  0.62715257  0.64800261  1
  S2-  S142  1  0.25921117  0.99613237  0.14838775  1
  S2-  S143  1  0.15177226  0.90491563  0.64004141  1
  S2-  S144  1  0.50599894  0.03846347  0.14862719  1
  S2-  S145  1  0.50786197  -0.00082799  0.64684836  1
  S2-  S146  1  0.51694569  0.26179372  0.13299539  1
  S2-  S147  1  0.52048305  0.26890839  0.65839137  1
  S2-  S148  1  0.52349594  0.64915147  0.16438614  1
  S2-  S149  1  0.36414413  0.64876268  0.64156742  1
  S2-  S150  1  0.38299876  0.83667226  0.15023409  1
  S2-  S151  1  0.51573417  0.77829294  0.63876857  1
  S2-  S152  1  0.74262937  0.07081473  0.17090281  1
  S2-  S153  1  0.69796657  0.12250657  0.66409768  1
  S2-  S154  1  0.75167259  0.28100435  0.14483232  1
  S2-  S155  1  0.77402894  0.33348344  0.66034969  1
  S2-  S156  1  0.75505342  0.61995386  0.15064689  1
  S2-  S157  1  0.84975067  0.62848624  0.64424929  1
  S2-  S158  1  0.64070361  0.86271704  0.14971657  1
  S2-  S159  1  0.72483891  0.78285983  0.63374555  1
  S2-  S160  1  0.14200723  -0.06959495  0.34192400  1
  S2-  S161  1  0.16042624  -0.00286174  0.85096947  1
  S2-  S162  1  0.13005367  0.15629069  0.34969865  1
  S2-  S163  1  0.21803204  0.23923113  0.85894250  1
  S2-  S164  1  0.12468967  0.40328608  0.35378147  1
  S2-  S165  1  0.14728727  0.57074473  0.84258277  1
  S2-  S166  1  0.01292912  0.76858973  0.35061372  1
  S2-  S167  1  0.04709312  0.78103197  0.85324818  1
  S2-  S168  1  0.36857723  -0.02290501  0.34002128  1
  S2-  S169  1  0.40641679  -0.00797506  0.83910151  1
  S2-  S170  1  0.38183419  0.17827160  0.36023838  1
  S2-  S171  1  0.41601587  0.20333932  0.81660849  1
  S2-  S172  1  0.37586561  0.40201872  0.36705140  1
  S2-  S173  1  0.36220702  0.41517664  0.85506171  1
  S2-  S174  1  0.47997658  0.78007942  0.35234420  1
  S2-  S175  1  0.49802713  0.77407072  0.86360573  1
  S2-  S176  1  0.61981390  -0.03984934  0.32803949  1
  S2-  S177  1  0.64267517  -0.00441487  0.84458559  1
  S2-  S178  1  0.62599239  0.16437947  0.35686508  1
  S2-  S179  1  0.61805223  0.19806667  0.81634978  1
  S2-  S180  1  0.61647662  0.39979584  0.36106516  1
  S2-  S181  1  0.63511985  0.40680140  0.85218329  1
  S2-  S182  1  0.62404203  0.63011324  0.35484669  1
  S2-  S183  1  0.71470652  0.75269106  0.85018849  1
  S2-  S184  1  0.86808389  -0.06190131  0.34347041  1
  S2-  S185  1  0.91823703  0.03639324  0.84522239  1
  S2-  S186  1  0.87091302  0.16209530  0.35059635  1
  S2-  S187  1  0.80140112  0.24594260  0.85949309  1
  S2-  S188  1  0.87848014  0.39816668  0.35400804  1
  S2-  S189  1  0.88247824  0.60272786  0.84482484  1
  S2-  S190  1  0.85089511  0.64223208  0.34844578  1
  S2-  S191  1  0.88048110  0.83869510  0.79560566  1
  S2-  S192  1  -0.00154604  0.15445987  0.45286953  1
  S2-  S193  1  0.00906239  0.13670573  0.95892933  1
  S2-  S194  1  -0.00019512  0.39692441  0.45392638  1
  S2-  S195  1  0.00938819  0.38774990  0.96480940  1
  S2-  S196  1  0.00451384  0.64210244  0.45187467  1
  S2-  S197  1  0.00608134  0.63493123  0.95196289  1
  S2-  S198  1  0.00084338  0.90332894  0.45423126  1
  S2-  S199  1  0.00379615  0.88338267  0.95898127  1
  S2-  S200  1  0.24867657  0.15154064  0.45961898  1
  S2-  S201  1  0.25287866  0.13370120  0.96178943  1
  S2-  S202  1  0.24762233  0.39840010  0.46251502  1
  S2-  S203  1  0.25145521  0.38738686  0.96027651  1
  S2-  S204  1  0.24864698  0.64503939  0.45407263  1
  S2-  S205  1  0.26037295  0.63725444  0.94716043  1
  S2-  S206  1  0.25151309  0.90080430  0.45049242  1
  S2-  S207  1  0.25700422  0.88087085  0.95798423  1
  S2-  S208  1  0.49905938  0.14926550  0.46558322  1
  S2-  S209  1  0.50782184  0.13833287  0.94620576  1
  S2-  S210  1  0.49632122  0.40063684  0.47168510  1
  S2-  S211  1  0.50553851  0.38276018  0.95059601  1
  S2-  S212  1  0.48949295  0.64595874  0.45691035  1
  S2-  S213  1  0.50746554  0.63103661  0.95824303  1
  S2-  S214  1  0.49715156  0.90499887  0.45125012  1
  S2-  S215  1  0.50885677  0.88906291  0.96374323  1
  S2-  S216  1  0.74933437  0.15278204  0.45970111  1
  S2-  S217  1  0.75816160  0.13428708  0.96106702  1
  S2-  S218  1  0.74829892  0.40043146  0.45903084  1
  S2-  S219  1  0.76277951  0.38850801  0.95638352  1
  S2-  S220  1  0.74644305  0.65218149  0.45501715  1
  S2-  S221  1  0.75562431  0.63358869  0.94788320  1
  S2-  S222  1  0.74507633  0.89729714  0.44553347  1
  S2-  S223  1  0.75644203  0.88246812  0.95404051  1
  S2-  S224  1  0.12687566  0.00328549  0.04979957  1
  S2-  S225  1  0.12336716  0.02797429  0.54129999  1
  S2-  S226  1  0.12801161  0.26390178  0.04778476  1
  S2-  S227  1  0.12705439  0.27291710  0.55170932  1
  S2-  S228  1  0.13271379  0.51332538  0.04263992  1
  S2-  S229  1  0.12782454  0.51740323  0.54058836  1
  S2-  S230  1  0.13121274  0.75729662  0.04872642  1
  S2-  S231  1  0.12448037  0.76957638  0.53880405  1
  S2-  S232  1  0.38248299  0.00980503  0.04597642  1
  S2-  S233  1  0.37003110  0.01961026  0.54396642  1
  S2-  S234  1  0.38079695  0.25894928  0.03424102  1
  S2-  S235  1  0.37161245  0.27138097  0.54854298  1
  S2-  S236  1  0.38428098  0.50667346  0.04860304  1
  S2-  S237  1  0.37205107  0.52044161  0.54679989  1
  S2-  S238  1  0.38508780  0.75444370  0.04403729  1
  S2-  S239  1  0.37021911  0.77612335  0.53652280  1
  S2-  S240  1  0.63843760  0.01041987  0.04936327  1
  S2-  S241  1  0.63054804  0.02518158  0.54221691  1
  S2-  S242  1  0.63686401  0.26177344  0.03278865  1
  S2-  S243  1  0.62391504  0.27048561  0.55131729  1
  S2-  S244  1  0.63294593  0.50711206  0.04293479  1
  S2-  S245  1  0.62100554  0.52899005  0.55261364  1
  S2-  S246  1  0.63165834  0.75323489  0.04381660  1
  S2-  S247  1  0.62007920  0.77365248  0.52894456  1
  S2-  S248  1  0.88142823  0.00966751  0.05403955  1
  S2-  S249  1  0.87518793  0.02874302  0.53825481  1
  S2-  S250  1  0.88674472  0.26275993  0.04970298  1
  S2-  S251  1  0.87377906  0.27497830  0.54267723  1
  S2-  S252  1  0.88020599  0.50898247  0.04160755  1
  S2-  S253  1  0.87343689  0.52070842  0.53955276  1
  S2-  S254  1  0.88062243  0.75082198  0.04063183  1
  S2-  S255  1  0.87937858  0.77214237  0.53501091  1
