# generated using pymatgen
data_La9Ce10Pr6Nd4Sm3(BiS2)32
_symmetry_space_group_name_H-M   'P 1'
_cell_length_a   16.12687015
_cell_length_b   16.14775394
_cell_length_c   27.15969546
_cell_angle_alpha   89.89799929
_cell_angle_beta   89.59693507
_cell_angle_gamma   89.89420834
_symmetry_Int_Tables_number   1
_chemical_formula_structural   La9Ce10Pr6Nd4Sm3(BiS2)32
_chemical_formula_sum   'La18 Ce20 Pr12 Nd8 Sm6 Bi64 S128'
_cell_volume   7072.53235943
_cell_formula_units_Z   2
loop_
 _symmetry_equiv_pos_site_id
 _symmetry_equiv_pos_as_xyz
  1  'x, y, z'
loop_
 _atom_type_symbol
 _atom_type_oxidation_number
  La3+  3.0
  Ce3+  3.0
  Pr3+  3.0
  Nd3+  3.0
  Sm3+  3.0
  Bi2+  2.0
  S2-  -2.0
loop_
 _atom_site_type_symbol
 _atom_site_label
 _atom_site_symmetry_multiplicity
 _atom_site_fract_x
 _atom_site_fract_y
 _atom_site_fract_z
 _atom_site_occupancy
  La3+  La0  1  0.50000986  0.38276787  0.07473363  1
  La3+  La1  1  0.62717936  0.50479918  0.93974675  1
  La3+  La2  1  0.74511185  0.63248990  0.06887019  1
  La3+  La3  1  0.88537184  0.74849655  0.42637627  1
  La3+  La4  1  0.63513169  0.01200017  0.91530977  1
  La3+  La5  1  0.75002635  0.38119400  0.08309699  1
  La3+  La6  1  0.36957912  0.00833787  0.91713537  1
  La3+  La7  1  0.12711829  0.26153507  0.91330757  1
  La3+  La8  1  0.41368520  0.75549682  0.37570563  1
  La3+  La9  1  0.49948904  0.12628886  0.06098229  1
  La3+  La10  1  0.25068957  0.87950293  0.57233742  1
  La3+  La11  1  0.74159299  0.38290554  0.57154955  1
  La3+  La12  1  0.63339604  0.25518479  0.42237051  1
  La3+  La13  1  0.74991636  0.12071467  0.10243463  1
  La3+  La14  1  0.13243989  0.50824601  0.92671079  1
  La3+  La15  1  0.63745975  0.75324128  0.43161940  1
  La3+  La16  1  0.49046768  0.64420250  0.07804564  1
  La3+  La17  1  0.00560136  0.38697717  0.07778465  1
  Ce3+  Ce18  1  -0.00432983  0.88315024  0.05529314  1
  Ce3+  Ce19  1  0.00007309  0.62837573  0.55802105  1
  Ce3+  Ce20  1  0.74328329  0.88061886  0.05624895  1
  Ce3+  Ce21  1  0.87423709  0.25817353  0.94808973  1
  Ce3+  Ce22  1  -0.00053070  0.63134184  0.05664667  1
  Ce3+  Ce23  1  0.50610155  0.38045371  0.54703418  1
  Ce3+  Ce24  1  0.25115069  0.12792570  0.05738862  1
  Ce3+  Ce25  1  0.87959327  0.24777981  0.43240440  1
  Ce3+  Ce26  1  0.62895568  0.25641728  0.94076276  1
  Ce3+  Ce27  1  -0.00985706  0.37110052  0.58249690  1
  Ce3+  Ce28  1  0.13530570  0.00279290  0.45193504  1
  Ce3+  Ce29  1  0.37700711  0.25613070  0.94364749  1
  Ce3+  Ce30  1  0.50121714  0.88216165  0.04380084  1
  Ce3+  Ce31  1  0.12530860  0.00662959  0.93285286  1
  Ce3+  Ce32  1  0.24984636  0.62291644  0.57562240  1
  Ce3+  Ce33  1  0.37502644  0.24879517  0.44480512  1
  Ce3+  Ce34  1  0.74593097  0.12870988  0.55975872  1
  Ce3+  Ce35  1  0.12238454  0.75439158  0.92908886  1
  Ce3+  Ce36  1  -0.00001903  0.12883474  0.56572030  1
  Ce3+  Ce37  1  0.49774810  0.63060527  0.55243703  1
  Pr3+  Pr38  1  0.87770185  0.49972626  0.94105113  1
  Pr3+  Pr39  1  -0.00239104  0.13140155  0.05699869  1
  Pr3+  Pr40  1  0.36914215  0.00604411  0.43114438  1
  Pr3+  Pr41  1  0.62296320  -0.00001606  0.43380785  1
  Pr3+  Pr42  1  0.37805015  0.75447539  0.92789820  1
  Pr3+  Pr43  1  0.37816560  0.50541748  0.94358978  1
  Pr3+  Pr44  1  0.12569453  0.25344836  0.44687623  1
  Pr3+  Pr45  1  0.62847438  0.50889321  0.42963869  1
  Pr3+  Pr46  1  0.26153693  0.13743849  0.58527330  1
  Pr3+  Pr47  1  0.36340819  0.50733908  0.43354031  1
  Pr3+  Pr48  1  0.13895409  0.75182126  0.43995668  1
  Pr3+  Pr49  1  0.24623215  0.63389204  0.06097911  1
  Nd3+  Nd50  1  0.25184752  0.38148612  0.06799359  1
  Nd3+  Nd51  1  0.50704808  0.12625765  0.56360382  1
  Nd3+  Nd52  1  0.88114547  0.00315607  0.44404295  1
  Nd3+  Nd53  1  0.24771147  0.88100851  0.05055732  1
  Nd3+  Nd54  1  0.75161217  0.63444917  0.56541148  1
  Nd3+  Nd55  1  0.00024647  0.87673590  0.56379673  1
  Nd3+  Nd56  1  0.63462536  0.75354966  0.92184982  1
  Nd3+  Nd57  1  0.87585634  0.75604209  0.93930297  1
  Sm3+  Sm58  1  0.75054686  0.87390410  0.56095900  1
  Sm3+  Sm59  1  0.87506501  0.01017443  0.93877430  1
  Sm3+  Sm60  1  0.25158272  0.38142546  0.57393558  1
  Sm3+  Sm61  1  0.49855200  0.87586092  0.55414856  1
  Sm3+  Sm62  1  0.87918150  0.49812717  0.44413448  1
  Sm3+  Sm63  1  0.12720654  0.49731496  0.45655199  1
  Bi2+  Bi64  1  0.01610764  0.11966769  0.30303712  1
  Bi2+  Bi65  1  -0.04432743  0.01117892  0.81295855  1
  Bi2+  Bi66  1  0.02809489  0.38240309  0.28859859  1
  Bi2+  Bi67  1  -0.01065214  0.41181696  0.78031732  1
  Bi2+  Bi68  1  0.02001005  0.73150508  0.31796667  1
  Bi2+  Bi69  1  -0.01271558  0.67226226  0.74668553  1
  Bi2+  Bi70  1  -0.03947196  0.91447328  0.32912396  1
  Bi2+  Bi71  1  -0.00746726  0.81707802  0.82263951  1
  Bi2+  Bi72  1  0.20524451  0.15928144  0.32716520  1
  Bi2+  Bi73  1  0.28250025  0.13611617  0.79534944  1
  Bi2+  Bi74  1  0.23140987  0.35176789  0.31220353  1
  Bi2+  Bi75  1  0.25830311  0.39430238  0.78931510  1
  Bi2+  Bi76  1  0.24826017  0.61219748  0.29362296  1
  Bi2+  Bi77  1  0.24994254  0.65203832  0.79967627  1
  Bi2+  Bi78  1  0.15602591  0.87976210  0.29623369  1
  Bi2+  Bi79  1  0.17814903  0.84727934  0.79972371  1
  Bi2+  Bi80  1  0.49397104  0.08525179  0.30390533  1
  Bi2+  Bi81  1  0.54031152  0.23426297  0.77043426  1
  Bi2+  Bi82  1  0.39785363  0.39475340  0.25781798  1
  Bi2+  Bi83  1  0.50295800  0.42666308  0.79682101  1
  Bi2+  Bi84  1  0.49266023  0.61433930  0.25700548  1
  Bi2+  Bi85  1  0.50316116  0.66210551  0.78742040  1
  Bi2+  Bi86  1  0.55634412  0.88085165  0.28224633  1
  Bi2+  Bi87  1  0.54504601  0.92545926  0.76657239  1
  Bi2+  Bi88  1  0.75412744  0.13851193  0.29352931  1
  Bi2+  Bi89  1  0.72630348  0.11799254  0.77747648  1
  Bi2+  Bi90  1  0.83053095  0.42200941  0.30721024  1
  Bi2+  Bi91  1  0.77368278  0.37637418  0.80379579  1
  Bi2+  Bi92  1  0.72724518  0.63512164  0.30429174  1
  Bi2+  Bi93  1  0.75239224  0.62252596  0.78907209  1
  Bi2+  Bi94  1  0.78789557  0.87161193  0.26644375  1
  Bi2+  Bi95  1  0.74511001  0.84491961  0.77189734  1
  Bi2+  Bi96  1  0.13858943  0.04014640  0.21412900  1
  Bi2+  Bi97  1  0.10069010  -0.00869627  0.73747391  1
  Bi2+  Bi98  1  0.14714841  0.24011363  0.20816507  1
  Bi2+  Bi99  1  0.12709993  0.23720299  0.71134306  1
  Bi2+  Bi100  1  0.07732015  0.56432693  0.24489138  1
  Bi2+  Bi101  1  0.13509087  0.54963770  0.71044818  1
  Bi2+  Bi102  1  0.09712745  0.75673607  0.21014474  1
  Bi2+  Bi103  1  0.17087952  0.74033475  0.69238092  1
  Bi2+  Bi104  1  0.33519386  0.02272937  0.21905224  1
  Bi2+  Bi105  1  0.40478103  0.00434048  0.71125209  1
  Bi2+  Bi106  1  0.34777614  0.21822997  0.22078866  1
  Bi2+  Bi107  1  0.39422745  0.32686659  0.71764841  1
  Bi2+  Bi108  1  0.26013571  0.48513773  0.19723108  1
  Bi2+  Bi109  1  0.40859209  0.54128828  0.71006390  1
  Bi2+  Bi110  1  0.33531181  0.79557729  0.18670441  1
  Bi2+  Bi111  1  0.36425729  0.74699477  0.71706525  1
  Bi2+  Bi112  1  0.56885017  -0.05995229  0.17860205  1
  Bi2+  Bi113  1  0.67731023  -0.02279461  0.68198371  1
  Bi2+  Bi114  1  0.59115226  0.22882428  0.22185671  1
  Bi2+  Bi115  1  0.69193962  0.26567243  0.69722739  1
  Bi2+  Bi116  1  0.63742360  0.47283856  0.22259447  1
  Bi2+  Bi117  1  0.63698462  0.46271474  0.71613923  1
  Bi2+  Bi118  1  0.71168061  0.77766375  0.17730106  1
  Bi2+  Bi119  1  0.64092643  0.71560742  0.70957224  1
  Bi2+  Bi120  1  0.93389794  -0.00830508  0.22091085  1
  Bi2+  Bi121  1  0.86628120  0.03908888  0.69284295  1
  Bi2+  Bi122  1  0.94746528  0.24359511  0.21627191  1
  Bi2+  Bi123  1  0.90826129  0.19504123  0.75924683  1
  Bi2+  Bi124  1  0.88442609  0.50945305  0.21055063  1
  Bi2+  Bi125  1  0.87486768  0.47843688  0.70035873  1
  Bi2+  Bi126  1  0.89471258  0.73659124  0.20826916  1
  Bi2+  Bi127  1  0.89823176  0.83953821  0.69509505  1
  S2-  S128  1  -0.08097492  0.10972002  0.14751315  1
  S2-  S129  1  -0.01135375  0.17220841  0.66106689  1
  S2-  S130  1  -0.11222240  0.36254433  0.15420780  1
  S2-  S131  1  0.05904898  0.39225807  0.67912141  1
  S2-  S132  1  0.01183766  0.55625455  0.14348108  1
  S2-  S133  1  -0.04307000  0.61898065  0.65307460  1
  S2-  S134  1  -0.00891180  0.86333601  0.15337510  1
  S2-  S135  1  0.05820543  0.87837994  0.65893249  1
  S2-  S136  1  0.36232811  0.11901181  0.13527968  1
  S2-  S137  1  0.19029311  0.08491164  0.68038039  1
  S2-  S138  1  0.14319408  0.38188555  0.14786976  1
  S2-  S139  1  0.25789244  0.27798199  0.65369047  1
  S2-  S140  1  0.32905394  0.64600834  0.14980731  1
  S2-  S141  1  0.26632247  0.50393780  0.64854153  1
  S2-  S142  1  0.23877278  0.92855678  0.14802387  1
  S2-  S143  1  0.30139201  0.88555975  0.67023527  1
  S2-  S144  1  0.58411473  0.10971075  0.15061445  1
  S2-  S145  1  0.40762097  0.11997838  0.64707153  1
  S2-  S146  1  0.37362000  0.38023137  0.14997096  1
  S2-  S147  1  0.58540031  0.36900020  0.63424014  1
  S2-  S148  1  0.52854624  0.56414729  0.16788968  1
  S2-  S149  1  0.52730478  0.62249012  0.64976125  1
  S2-  S150  1  0.48540759  0.80461797  0.13435721  1
  S2-  S151  1  0.53141172  0.89832722  0.65222895  1
  S2-  S152  1  0.75025059  0.19576926  0.20194847  1
  S2-  S153  1  0.63455114  0.13391890  0.63702696  1
  S2-  S154  1  0.61375849  0.35464200  0.15305452  1
  S2-  S155  1  0.85249911  0.34281364  0.64807612  1
  S2-  S156  1  0.74749123  0.52756567  0.15209538  1
  S2-  S157  1  0.74216188  0.52490908  0.64416353  1
  S2-  S158  1  0.73766953  0.95716748  0.14483840  1
  S2-  S159  1  0.76338565  0.76333627  0.63748300  1
  S2-  S160  1  0.22072335  -0.00458435  0.36567967  1
  S2-  S161  1  0.22410491  0.00002145  0.85040748  1
  S2-  S162  1  0.01347824  0.27756796  0.36752644  1
  S2-  S163  1  0.13616480  0.19150603  0.81617736  1
  S2-  S164  1  0.20600552  0.49827246  0.36810077  1
  S2-  S165  1  0.11097786  0.39911827  0.84650868  1
  S2-  S166  1  0.24014522  0.74931847  0.35553538  1
  S2-  S167  1  0.11355426  0.63788757  0.85434761  1
  S2-  S168  1  0.43196146  -0.07057658  0.34423490  1
  S2-  S169  1  0.42652938  0.03048424  0.81886067  1
  S2-  S170  1  0.37189728  0.15360914  0.36219439  1
  S2-  S171  1  0.33319888  0.26572588  0.84883607  1
  S2-  S172  1  0.39580556  0.58374887  0.34273673  1
  S2-  S173  1  0.29986480  0.50887605  0.85280677  1
  S2-  S174  1  0.41783407  0.76833354  0.26730700  1
  S2-  S175  1  0.38747064  0.77746108  0.82639284  1
  S2-  S176  1  0.65436266  0.00772640  0.33306494  1
  S2-  S177  1  0.61855511  -0.12421345  0.84675965  1
  S2-  S178  1  0.56646059  0.22640355  0.32755027  1
  S2-  S179  1  0.61670949  0.16036127  0.85314568  1
  S2-  S180  1  0.65147291  0.47749715  0.32976349  1
  S2-  S181  1  0.64456993  0.38083721  0.86314262  1
  S2-  S182  1  0.57814587  0.70115611  0.33796085  1
  S2-  S183  1  0.62416807  0.61424505  0.85614683  1
  S2-  S184  1  0.87222463  0.10357180  0.36114120  1
  S2-  S185  1  0.79133283  0.01098701  0.85169636  1
  S2-  S186  1  0.77073938  0.27756296  0.35216764  1
  S2-  S187  1  0.90494044  0.28121271  0.84995771  1
  S2-  S188  1  0.86927613  0.57082115  0.35228920  1
  S2-  S189  1  0.87342636  0.51451711  0.83854541  1
  S2-  S190  1  0.76477629  0.77204197  0.35356557  1
  S2-  S191  1  0.78548263  0.74426590  0.85352326  1
  S2-  S192  1  0.00713695  0.12379629  0.46097889  1
  S2-  S193  1  0.00265641  0.13342152  0.94784219  1
  S2-  S194  1  0.00048422  0.38062072  0.46861397  1
  S2-  S195  1  0.00445044  0.37847238  0.95995823  1
  S2-  S196  1  0.00902756  0.62279075  0.45182367  1
  S2-  S197  1  -0.00330505  0.63007597  0.95242601  1
  S2-  S198  1  0.00877150  0.87721456  0.45661258  1
  S2-  S199  1  -0.00085575  0.88378411  0.94957843  1
  S2-  S200  1  0.25114814  0.13217018  0.47195699  1
  S2-  S201  1  0.24572731  0.13542980  0.95086456  1
  S2-  S202  1  0.25230404  0.37416164  0.46783670  1
  S2-  S203  1  0.25075174  0.37861955  0.95806560  1
  S2-  S204  1  0.24548194  0.62231479  0.47002015  1
  S2-  S205  1  0.25283684  0.63585473  0.95456910  1
  S2-  S206  1  0.25623673  0.87615432  0.46461534  1
  S2-  S207  1  0.24753488  0.87526640  0.94536322  1
  S2-  S208  1  0.50411350  0.12638182  0.45558298  1
  S2-  S209  1  0.49689447  0.12850916  0.95078775  1
  S2-  S210  1  0.49798941  0.38256469  0.43855225  1
  S2-  S211  1  0.49864783  0.37932168  0.96089709  1
  S2-  S212  1  0.49763284  0.63204356  0.44703726  1
  S2-  S213  1  0.49823616  0.63344875  0.95487281  1
  S2-  S214  1  0.50149517  0.86957337  0.44924530  1
  S2-  S215  1  0.49683878  0.88416310  0.94056951  1
  S2-  S216  1  0.74760360  0.12260450  0.45561167  1
  S2-  S217  1  0.75541436  0.13437117  0.95211271  1
  S2-  S218  1  0.75202719  0.38542948  0.45677758  1
  S2-  S219  1  0.75340065  0.38114896  0.96784907  1
  S2-  S220  1  0.75701606  0.62563650  0.45751042  1
  S2-  S221  1  0.75591576  0.62836724  0.95956070  1
  S2-  S222  1  0.75705024  0.88194404  0.45605900  1
  S2-  S223  1  0.75503804  0.88212044  0.95223929  1
  S2-  S224  1  0.12267558  0.00580599  0.04162160  1
  S2-  S225  1  0.12480796  0.00600277  0.55778811  1
  S2-  S226  1  0.12620272  0.25163272  0.04884353  1
  S2-  S227  1  0.12386067  0.25634550  0.55484688  1
  S2-  S228  1  0.12815994  0.50966147  0.03930660  1
  S2-  S229  1  0.11837519  0.49790141  0.55900071  1
  S2-  S230  1  0.12135182  0.75835995  0.04226264  1
  S2-  S231  1  0.12561262  0.75109742  0.55005870  1
  S2-  S232  1  0.37155881  0.00093521  0.03131541  1
  S2-  S233  1  0.38030030  0.00045112  0.54546531  1
  S2-  S234  1  0.37327396  0.25702438  0.04658836  1
  S2-  S235  1  0.38364682  0.25975773  0.54889402  1
  S2-  S236  1  0.37346441  0.51054530  0.04848795  1
  S2-  S237  1  0.37862153  0.50146095  0.54339900  1
  S2-  S238  1  0.37021097  0.75906505  0.03493018  1
  S2-  S239  1  0.37541663  0.75140145  0.56405740  1
  S2-  S240  1  0.62522154  0.00348464  0.03420339  1
  S2-  S241  1  0.62785597  -0.00616970  0.54036137  1
  S2-  S242  1  0.62902386  0.24817512  0.04792103  1
  S2-  S243  1  0.62703745  0.25359537  0.53179329  1
  S2-  S244  1  0.61755644  0.51181320  0.04858226  1
  S2-  S245  1  0.62365872  0.51027603  0.53638837  1
  S2-  S246  1  0.62358447  0.75560463  0.03628438  1
  S2-  S247  1  0.62447531  0.75511629  0.54054366  1
  S2-  S248  1  0.87030365  0.00575352  0.04243711  1
  S2-  S249  1  0.87383213  -0.00020769  0.55132195  1
  S2-  S250  1  0.87005865  0.25124890  0.05257449  1
  S2-  S251  1  0.87319235  0.24600278  0.54219644  1
  S2-  S252  1  0.87580829  0.50724458  0.04747358  1
  S2-  S253  1  0.87708848  0.50426735  0.54722210  1
  S2-  S254  1  0.87352107  0.75637134  0.04691403  1
  S2-  S255  1  0.88067974  0.75434922  0.53687894  1
