# generated using pymatgen
data_La9Ce10Pr6Nd4Sm3(BiS2)32
_symmetry_space_group_name_H-M   'P 1'
_cell_length_a   16.16176110
_cell_length_b   16.20043833
_cell_length_c   27.13478158
_cell_angle_alpha   89.69379251
_cell_angle_beta   90.09890507
_cell_angle_gamma   89.94506215
_symmetry_Int_Tables_number   1
_chemical_formula_structural   La9Ce10Pr6Nd4Sm3(BiS2)32
_chemical_formula_sum   'La18 Ce20 Pr12 Nd8 Sm6 Bi64 S128'
_cell_volume   7104.51974150
_cell_formula_units_Z   2
loop_
 _symmetry_equiv_pos_site_id
 _symmetry_equiv_pos_as_xyz
  1  'x, y, z'
loop_
 _atom_type_symbol
 _atom_type_oxidation_number
  La3+  3.0
  Ce3+  3.0
  Pr3+  3.0
  Nd3+  3.0
  Sm3+  3.0
  Bi2+  2.0
  S2-  -2.0
loop_
 _atom_site_type_symbol
 _atom_site_label
 _atom_site_symmetry_multiplicity
 _atom_site_fract_x
 _atom_site_fract_y
 _atom_site_fract_z
 _atom_site_occupancy
  La3+  La0  1  0.25726943  0.88706594  0.06665753  1
  La3+  La1  1  0.13959131  0.76781230  0.91917938  1
  La3+  La2  1  0.76870855  0.13004562  0.06753294  1
  La3+  La3  1  0.36577910  0.51664477  0.43059568  1
  La3+  La4  1  0.25704160  0.14028095  0.58582062  1
  La3+  La5  1  0.87133832  0.76672790  0.43115921  1
  La3+  La6  1  0.87570830  0.51203988  0.42047960  1
  La3+  La7  1  0.01325303  0.87971816  0.06353963  1
  La3+  La8  1  -0.00702893  0.38103854  0.57276101  1
  La3+  La9  1  0.51216544  0.13854464  0.07483674  1
  La3+  La10  1  0.50449609  0.88801604  0.08347876  1
  La3+  La11  1  0.87339317  0.25869231  0.42617766  1
  La3+  La12  1  0.36373824  0.01298710  0.42938328  1
  La3+  La13  1  0.01567335  0.13907815  0.06196788  1
  La3+  La14  1  0.26640926  0.62640594  0.08114886  1
  La3+  La15  1  0.13604148  0.51460207  0.94177700  1
  La3+  La16  1  0.36170123  0.25890468  0.42758148  1
  La3+  La17  1  -0.00289723  0.87465153  0.60090317  1
  Ce3+  Ce18  1  0.36950384  0.77245039  0.42893472  1
  Ce3+  Ce19  1  0.88456403  0.76319276  0.92482843  1
  Ce3+  Ce20  1  0.88445688  0.26067509  0.93505538  1
  Ce3+  Ce21  1  0.00877739  0.64189971  0.05381033  1
  Ce3+  Ce22  1  0.63132478  0.76326970  0.94303241  1
  Ce3+  Ce23  1  0.63477521  0.51125619  0.94801275  1
  Ce3+  Ce24  1  0.76498432  0.38613050  0.06132166  1
  Ce3+  Ce25  1  0.50988808  0.38232149  0.06726285  1
  Ce3+  Ce26  1  0.74836958  0.13567675  0.55345035  1
  Ce3+  Ce27  1  0.49170527  0.88854388  0.56638994  1
  Ce3+  Ce28  1  0.62828329  0.01247443  0.94525541  1
  Ce3+  Ce29  1  0.26031275  0.38368862  0.05925158  1
  Ce3+  Ce30  1  0.61964585  0.01159066  0.44156546  1
  Ce3+  Ce31  1  0.12488871  0.01196514  0.45452111  1
  Ce3+  Ce32  1  0.76160081  0.63562895  0.05071903  1
  Ce3+  Ce33  1  0.87366459  0.01018307  0.43516802  1
  Ce3+  Ce34  1  0.61973509  0.76562648  0.44568522  1
  Ce3+  Ce35  1  0.61890091  0.26319491  0.44565324  1
  Ce3+  Ce36  1  0.51049091  0.63594019  0.06360976  1
  Ce3+  Ce37  1  0.75014963  0.38744088  0.55800161  1
  Pr3+  Pr38  1  0.14343737  0.01644076  0.92354051  1
  Pr3+  Pr39  1  0.75010983  0.63789515  0.56329007  1
  Pr3+  Pr40  1  0.14093163  0.26108529  0.92146847  1
  Pr3+  Pr41  1  0.24110405  0.39190753  0.56881611  1
  Pr3+  Pr42  1  0.61973683  0.51477798  0.43953790  1
  Pr3+  Pr43  1  0.24727851  0.64021848  0.56094923  1
  Pr3+  Pr44  1  0.39101826  0.01296628  0.93840773  1
  Pr3+  Pr45  1  0.39077978  0.27085183  0.92353393  1
  Pr3+  Pr46  1  0.74717963  0.88857404  0.56828006  1
  Pr3+  Pr47  1  -0.00998654  0.12913203  0.57190986  1
  Pr3+  Pr48  1  0.24899958  0.88658952  0.57196313  1
  Pr3+  Pr49  1  0.38458695  0.76326874  0.93995626  1
  Nd3+  Nd50  1  0.38647248  0.51406044  0.94146308  1
  Nd3+  Nd51  1  0.88855078  0.01275585  0.93304884  1
  Nd3+  Nd52  1  0.12169221  0.51332983  0.43462900  1
  Nd3+  Nd53  1  0.49465007  0.38825042  0.55406933  1
  Nd3+  Nd54  1  0.76066496  0.88336612  0.04991692  1
  Nd3+  Nd55  1  0.00764454  0.38228135  0.06282263  1
  Nd3+  Nd56  1  0.26126678  0.13938378  0.05538790  1
  Nd3+  Nd57  1  0.88440916  0.51050513  0.93166174  1
  Sm3+  Sm58  1  0.49526712  0.63816145  0.55092881  1
  Sm3+  Sm59  1  -0.00534488  0.63799589  0.55915584  1
  Sm3+  Sm60  1  0.12052603  0.76603932  0.44594448  1
  Sm3+  Sm61  1  0.49476137  0.13861810  0.55904645  1
  Sm3+  Sm62  1  0.63371135  0.26156038  0.94353607  1
  Sm3+  Sm63  1  0.12286207  0.26111179  0.44946568  1
  Bi2+  Bi64  1  0.01705258  0.11307225  0.28807568  1
  Bi2+  Bi65  1  -0.03211686  0.12631613  0.79078002  1
  Bi2+  Bi66  1  -0.02136410  0.30692271  0.28799673  1
  Bi2+  Bi67  1  0.01635203  0.36800655  0.77587252  1
  Bi2+  Bi68  1  -0.00326955  0.65086144  0.29645740  1
  Bi2+  Bi69  1  -0.00547638  0.56093533  0.80389691  1
  Bi2+  Bi70  1  0.01610301  0.91226577  0.29342390  1
  Bi2+  Bi71  1  -0.01675637  0.85144536  0.79917522  1
  Bi2+  Bi72  1  0.25023367  0.13542076  0.29740428  1
  Bi2+  Bi73  1  0.25157092  0.13496256  0.78918843  1
  Bi2+  Bi74  1  0.23194629  0.39089964  0.28767397  1
  Bi2+  Bi75  1  0.28964977  0.36587616  0.74037007  1
  Bi2+  Bi76  1  0.23892270  0.60352955  0.26879107  1
  Bi2+  Bi77  1  0.28432254  0.57256287  0.81400470  1
  Bi2+  Bi78  1  0.24995667  0.86436663  0.31248264  1
  Bi2+  Bi79  1  0.30601859  0.87285704  0.79037371  1
  Bi2+  Bi80  1  0.52897334  0.14505611  0.29140757  1
  Bi2+  Bi81  1  0.49910090  0.12633644  0.79086624  1
  Bi2+  Bi82  1  0.42540654  0.34874692  0.28193138  1
  Bi2+  Bi83  1  0.51430910  0.38954805  0.79689155  1
  Bi2+  Bi84  1  0.49427755  0.61585704  0.28569457  1
  Bi2+  Bi85  1  0.46427896  0.63641665  0.79840385  1
  Bi2+  Bi86  1  0.53882948  0.80849035  0.27356795  1
  Bi2+  Bi87  1  0.49091931  0.84362689  0.82415296  1
  Bi2+  Bi88  1  0.75909392  0.05561421  0.28573675  1
  Bi2+  Bi89  1  0.68618356  0.06984657  0.76909594  1
  Bi2+  Bi90  1  0.76356910  0.27280747  0.29000899  1
  Bi2+  Bi91  1  0.75158022  0.34419075  0.78949201  1
  Bi2+  Bi92  1  0.73057540  0.56061625  0.29709060  1
  Bi2+  Bi93  1  0.65493821  0.60123664  0.77170497  1
  Bi2+  Bi94  1  0.76853515  0.83576463  0.28265296  1
  Bi2+  Bi95  1  0.67576293  0.87212679  0.78086812  1
  Bi2+  Bi96  1  0.15419735  0.04258037  0.21383701  1
  Bi2+  Bi97  1  0.10842428  -0.01395258  0.73065439  1
  Bi2+  Bi98  1  0.13361908  0.25572803  0.21697776  1
  Bi2+  Bi99  1  0.12727782  0.25618479  0.71154670  1
  Bi2+  Bi100  1  0.04814122  0.48118424  0.24767234  1
  Bi2+  Bi101  1  0.15252800  0.51331343  0.72053259  1
  Bi2+  Bi102  1  0.09958717  0.80045584  0.21200291  1
  Bi2+  Bi103  1  0.12824935  0.73467575  0.72139180  1
  Bi2+  Bi104  1  0.38552437  -0.00682474  0.21314400  1
  Bi2+  Bi105  1  0.43263806  -0.01386707  0.72071630  1
  Bi2+  Bi106  1  0.32613809  0.31768143  0.18394402  1
  Bi2+  Bi107  1  0.44287650  0.25206486  0.70332348  1
  Bi2+  Bi108  1  0.44752974  0.48257866  0.19946797  1
  Bi2+  Bi109  1  0.39558764  0.52318016  0.70995078  1
  Bi2+  Bi110  1  0.35284658  0.73136988  0.22013379  1
  Bi2+  Bi111  1  0.39370278  0.75369214  0.71312634  1
  Bi2+  Bi112  1  0.65002087  -0.05542095  0.21185354  1
  Bi2+  Bi113  1  0.61048567  -0.05836811  0.67889133  1
  Bi2+  Bi114  1  0.60610518  0.27136537  0.21618840  1
  Bi2+  Bi115  1  0.64407749  0.23652173  0.71094623  1
  Bi2+  Bi116  1  0.66314285  0.45816085  0.19987206  1
  Bi2+  Bi117  1  0.64504261  0.43783881  0.70718338  1
  Bi2+  Bi118  1  0.63153354  0.65733388  0.20494837  1
  Bi2+  Bi119  1  0.60490473  0.74586009  0.69820973  1
  Bi2+  Bi120  1  0.89347865  -0.02217468  0.21206015  1
  Bi2+  Bi121  1  0.84911292  0.00344686  0.71309594  1
  Bi2+  Bi122  1  0.84715015  0.23842027  0.19093394  1
  Bi2+  Bi123  1  0.86447577  0.25631967  0.70845329  1
  Bi2+  Bi124  1  0.85488858  0.50167626  0.21439110  1
  Bi2+  Bi125  1  0.88521911  0.48749735  0.72039819  1
  Bi2+  Bi126  1  0.88340975  0.72611210  0.21540777  1
  Bi2+  Bi127  1  0.86556112  0.72710307  0.71815472  1
  S2-  S128  1  -0.09504630  0.10632228  0.14089042  1
  S2-  S129  1  0.00171269  0.24585958  0.64768507  1
  S2-  S130  1  0.05651892  0.26400791  0.13367030  1
  S2-  S131  1  0.11493656  0.42904923  0.64250319  1
  S2-  S132  1  -0.00358923  0.74237506  0.13512050  1
  S2-  S133  1  -0.00298648  0.70969635  0.65364214  1
  S2-  S134  1  0.13026222  0.91316426  0.14102440  1
  S2-  S135  1  -0.00856641  1.02102175  0.65895751  1
  S2-  S136  1  0.28590037  0.10147514  0.15500175  1
  S2-  S137  1  0.20400288  0.09149942  0.68622783  1
  S2-  S138  1  0.26688217  0.46571037  0.14547761  1
  S2-  S139  1  0.27408173  0.28779162  0.64919029  1
  S2-  S140  1  0.20364072  0.68200545  0.17212886  1
  S2-  S141  1  0.22273159  0.64991036  0.66238928  1
  S2-  S142  1  0.35896129  0.87185510  0.15276647  1
  S2-  S143  1  0.14904272  0.86929480  0.66038068  1
  S2-  S144  1  0.51175018  0.02546391  0.15610320  1
  S2-  S145  1  0.41405103  0.11913446  0.64543175  1
  S2-  S146  1  0.48471598  0.26752921  0.14165203  1
  S2-  S147  1  0.49128440  0.40666597  0.65358702  1
  S2-  S148  1  0.41681435  0.62978674  0.14662016  1
  S2-  S149  1  0.48728690  0.63953716  0.64941623  1
  S2-  S150  1  0.57340481  0.80488445  0.16703597  1
  S2-  S151  1  0.37845558  0.88035910  0.64302346  1
  S2-  S152  1  0.70049042  0.16477384  0.15955799  1
  S2-  S153  1  0.80605511  0.12857411  0.64494903  1
  S2-  S154  1  0.87995866  0.38927233  0.13699456  1
  S2-  S155  1  0.84906978  0.39248667  0.63968464  1
  S2-  S156  1  0.79277109  0.63683350  0.14750242  1
  S2-  S157  1  0.79377677  0.61889906  0.66249151  1
  S2-  S158  1  0.78259536  0.89939568  0.14902332  1
  S2-  S159  1  0.84049667  0.86402165  0.65507490  1
  S2-  S160  1  0.20310772  0.00767102  0.36512931  1
  S2-  S161  1  0.11525876  -0.09521625  0.84535438  1
  S2-  S162  1  0.21544414  0.26240072  0.36349090  1
  S2-  S163  1  0.10384250  0.13729640  0.84660664  1
  S2-  S164  1  0.01777545  0.51368978  0.35302848  1
  S2-  S165  1  0.14918480  0.48165416  0.84263380  1
  S2-  S166  1  0.10067302  0.77700219  0.34587079  1
  S2-  S167  1  0.07793500  0.70944614  0.82413598  1
  S2-  S168  1  0.39334944  -0.10458631  0.35319570  1
  S2-  S169  1  0.29196772  0.01700424  0.85177485  1
  S2-  S170  1  0.39237741  0.13569537  0.35321069  1
  S2-  S171  1  0.26807235  0.26103101  0.84691207  1
  S2-  S172  1  0.24250133  0.51448819  0.35806481  1
  S2-  S173  1  0.39047991  0.42762556  0.85494358  1
  S2-  S174  1  0.31337713  0.71172100  0.33754168  1
  S2-  S175  1  0.28343395  0.74100829  0.85584747  1
  S2-  S176  1  0.61486195  0.02202221  0.34175722  1
  S2-  S177  1  0.52315759  0.00479139  0.86700546  1
  S2-  S178  1  0.61398809  0.26129660  0.34780305  1
  S2-  S179  1  0.53506496  0.25453682  0.86071053  1
  S2-  S180  1  0.58493892  0.50346479  0.33997930  1
  S2-  S181  1  0.61572558  0.49590735  0.85105456  1
  S2-  S182  1  0.64863112  0.77288264  0.34877693  1
  S2-  S183  1  0.63631536  0.73884026  0.84578005  1
  S2-  S184  1  0.87395409  -0.10699909  0.35751658  1
  S2-  S185  1  0.88910084  -0.00685578  0.83267811  1
  S2-  S186  1  0.87594427  0.12045600  0.35598465  1
  S2-  S187  1  0.84987079  0.22845013  0.84030192  1
  S2-  S188  1  0.85230071  0.37764212  0.35012728  1
  S2-  S189  1  0.84737787  0.49164315  0.83375091  1
  S2-  S190  1  0.85366762  0.64897918  0.35437400  1
  S2-  S191  1  0.86048882  0.74066771  0.82650945  1
  S2-  S192  1  0.00187267  0.13672059  0.45919692  1
  S2-  S193  1  0.00730611  0.13783456  0.95194340  1
  S2-  S194  1  0.00029609  0.38233785  0.45709380  1
  S2-  S195  1  0.00882362  0.38506773  0.94741200  1
  S2-  S196  1  -0.00152326  0.64336428  0.45601982  1
  S2-  S197  1  0.00720353  0.63809101  0.94605383  1
  S2-  S198  1  0.00198989  0.88925964  0.45685070  1
  S2-  S199  1  0.00777340  0.88544382  0.95090875  1
  S2-  S200  1  0.24600805  0.13787608  0.46799935  1
  S2-  S201  1  0.26723360  0.14131362  0.95129005  1
  S2-  S202  1  0.24445456  0.38958150  0.46162131  1
  S2-  S203  1  0.26062533  0.39002999  0.95400253  1
  S2-  S204  1  0.24387622  0.64390300  0.45528529  1
  S2-  S205  1  0.26235361  0.63319753  0.96167150  1
  S2-  S206  1  0.24548312  0.88254668  0.46377283  1
  S2-  S207  1  0.26304159  0.88854325  0.95631020  1
  S2-  S208  1  0.49815324  0.13813848  0.45608838  1
  S2-  S209  1  0.51325356  0.14056406  0.96532092  1
  S2-  S210  1  0.49026255  0.38817351  0.44677996  1
  S2-  S211  1  0.51462205  0.38769168  0.96152643  1
  S2-  S212  1  0.49279748  0.64096258  0.44534033  1
  S2-  S213  1  0.51036862  0.63670400  0.95512705  1
  S2-  S214  1  0.49869808  0.88872960  0.45934314  1
  S2-  S215  1  0.51095953  0.88283556  0.96813014  1
  S2-  S216  1  0.74149687  0.13702996  0.44952368  1
  S2-  S217  1  0.75664305  0.13502532  0.95164235  1
  S2-  S218  1  0.74119648  0.38871200  0.45312201  1
  S2-  S219  1  0.75913904  0.38545652  0.95175282  1
  S2-  S220  1  0.74111519  0.63849323  0.45634875  1
  S2-  S221  1  0.75994689  0.63585822  0.94401989  1
  S2-  S222  1  0.74244951  0.88884870  0.45971728  1
  S2-  S223  1  0.75760365  0.88968037  0.94212148  1
  S2-  S224  1  0.13679348  0.01660112  0.03602241  1
  S2-  S225  1  0.12516825  0.01258764  0.55869318  1
  S2-  S226  1  0.14001190  0.26483808  0.03022831  1
  S2-  S227  1  0.12561746  0.25755570  0.55090776  1
  S2-  S228  1  0.12736137  0.50989013  0.05036324  1
  S2-  S229  1  0.11924488  0.52250798  0.54065371  1
  S2-  S230  1  0.13979908  0.75502292  0.03930765  1
  S2-  S231  1  0.11947508  0.76210109  0.55003160  1
  S2-  S232  1  0.38435792  0.01460150  0.04619968  1
  S2-  S233  1  0.37362511  0.01320615  0.54235251  1
  S2-  S234  1  0.38236259  0.26388414  0.03794260  1
  S2-  S235  1  0.37620345  0.26494102  0.54029467  1
  S2-  S236  1  0.39021649  0.50539817  0.04530741  1
  S2-  S237  1  0.37186615  0.51467331  0.54324035  1
  S2-  S238  1  0.38520848  0.75744273  0.04715055  1
  S2-  S239  1  0.37428553  0.75928970  0.54002007  1
  S2-  S240  1  0.63858360  0.00926341  0.05069395  1
  S2-  S241  1  0.61896233  0.01459122  0.54956372  1
  S2-  S242  1  0.64172953  0.26352507  0.04740821  1
  S2-  S243  1  0.62054674  0.26258878  0.55361157  1
  S2-  S244  1  0.63618692  0.50974480  0.05494726  1
  S2-  S245  1  0.62100717  0.51438343  0.54824711  1
  S2-  S246  1  0.63680499  0.75863438  0.04891901  1
  S2-  S247  1  0.62031099  0.76103136  0.55239228  1
  S2-  S248  1  0.88925574  0.00293024  0.03837830  1
  S2-  S249  1  0.86957722  0.00789486  0.54343931  1
  S2-  S250  1  0.88379378  0.25950207  0.03870497  1
  S2-  S251  1  0.86783077  0.25963524  0.53702901  1
  S2-  S252  1  0.88748742  0.51406255  0.03792301  1
  S2-  S253  1  0.87356113  0.51651444  0.53862944  1
  S2-  S254  1  0.88148648  0.76045327  0.03267895  1
  S2-  S255  1  0.87245230  0.76252097  0.54414206  1
