# generated using pymatgen
data_La9Ce10Pr6Nd4Sm3(BiS2)32
_symmetry_space_group_name_H-M   'P 1'
_cell_length_a   16.08666985
_cell_length_b   16.11466999
_cell_length_c   27.07852838
_cell_angle_alpha   89.90378915
_cell_angle_beta   90.17359819
_cell_angle_gamma   90.03088539
_symmetry_Int_Tables_number   1
_chemical_formula_structural   La9Ce10Pr6Nd4Sm3(BiS2)32
_chemical_formula_sum   'La18 Ce20 Pr12 Nd8 Sm6 Bi64 S128'
_cell_volume   7019.56104859
_cell_formula_units_Z   2
loop_
 _symmetry_equiv_pos_site_id
 _symmetry_equiv_pos_as_xyz
  1  'x, y, z'
loop_
 _atom_type_symbol
 _atom_type_oxidation_number
  La3+  3.0
  Ce3+  3.0
  Pr3+  3.0
  Nd3+  3.0
  Sm3+  3.0
  Bi2+  2.0
  S2-  -2.0
loop_
 _atom_site_type_symbol
 _atom_site_label
 _atom_site_symmetry_multiplicity
 _atom_site_fract_x
 _atom_site_fract_y
 _atom_site_fract_z
 _atom_site_occupancy
  La3+  La0  1  0.64747990  0.49568000  0.42527466  1
  La3+  La1  1  0.77415902  0.62951719  0.55667365  1
  La3+  La2  1  0.35108528  0.00632919  0.89972788  1
  La3+  La3  1  0.61011241  0.50282141  0.93049511  1
  La3+  La4  1  0.52169517  0.87324416  0.61046125  1
  La3+  La5  1  0.74340291  0.13154349  0.07280072  1
  La3+  La6  1  0.15002970  0.75012640  0.43088364  1
  La3+  La7  1  0.87086066  0.00218328  0.95557960  1
  La3+  La8  1  0.14983478  0.00583747  0.42076834  1
  La3+  La9  1  0.49295070  0.37287128  0.07314065  1
  La3+  La10  1  0.73659944  0.87890292  0.07806713  1
  La3+  La11  1  0.87635462  0.23894823  0.92770620  1
  La3+  La12  1  0.61674628  0.00581897  0.91696822  1
  La3+  La13  1  0.52936342  0.62015118  0.58031341  1
  La3+  La14  1  0.01558875  0.12527536  0.56745519  1
  La3+  La15  1  0.89212605  0.75629898  0.41505038  1
  La3+  La16  1  0.50248250  0.63784043  0.08320977  1
  La3+  La17  1  0.15240965  0.25329744  0.43503045  1
  Ce3+  Ce18  1  0.12180537  0.75551454  0.94697000  1
  Ce3+  Ce19  1  -0.01046016  0.62699767  0.06110106  1
  Ce3+  Ce20  1  0.74199163  0.62507808  0.05076238  1
  Ce3+  Ce21  1  0.01744053  0.88169123  0.54922007  1
  Ce3+  Ce22  1  0.24530275  0.38105111  0.07356820  1
  Ce3+  Ce23  1  0.49229426  0.12353374  0.04885659  1
  Ce3+  Ce24  1  0.24480441  0.62903615  0.06046375  1
  Ce3+  Ce25  1  0.36639309  0.25430281  0.93784099  1
  Ce3+  Ce26  1  0.49197789  0.87896838  0.04876859  1
  Ce3+  Ce27  1  0.26934059  0.12323901  0.56774630  1
  Ce3+  Ce28  1  0.27287538  0.38273489  0.56959867  1
  Ce3+  Ce29  1  0.89940459  0.24785348  0.43138092  1
  Ce3+  Ce30  1  0.12207845  0.25900000  0.93882072  1
  Ce3+  Ce31  1  0.39492989  -0.00078202  0.44725265  1
  Ce3+  Ce32  1  -0.00691491  0.87127836  0.08103842  1
  Ce3+  Ce33  1  0.26825002  0.63454086  0.56913270  1
  Ce3+  Ce34  1  0.53084679  0.38120620  0.56985312  1
  Ce3+  Ce35  1  0.37317652  0.50499136  0.95136310  1
  Ce3+  Ce36  1  0.64309096  -0.00023006  0.43860571  1
  Ce3+  Ce37  1  0.39759540  0.50455265  0.44350816  1
  Pr3+  Pr38  1  0.02616256  0.37601292  0.59871187  1
  Pr3+  Pr39  1  0.39666866  0.74973021  0.45155735  1
  Pr3+  Pr40  1  0.26652282  0.87847517  0.57050921  1
  Pr3+  Pr41  1  0.01809584  0.62816591  0.55968587  1
  Pr3+  Pr42  1  0.76867163  0.87730256  0.55963638  1
  Pr3+  Pr43  1  0.24210962  0.12635357  0.06775909  1
  Pr3+  Pr44  1  0.61558800  0.75826388  0.93020250  1
  Pr3+  Pr45  1  -0.00019888  0.14284000  0.08358011  1
  Pr3+  Pr46  1  0.52377612  0.12723936  0.56772471  1
  Pr3+  Pr47  1  0.37134989  0.75466862  0.92917767  1
  Pr3+  Pr48  1  0.24892952  0.86726688  0.07752126  1
  Pr3+  Pr49  1  0.86949320  0.75421018  0.94023647  1
  Nd3+  Nd50  1  0.86000220  0.49201633  0.92090889  1
  Nd3+  Nd51  1  0.61774017  0.25078454  0.93332791  1
  Nd3+  Nd52  1  0.63877728  0.74511026  0.43489722  1
  Nd3+  Nd53  1  0.77116586  0.12794687  0.55240989  1
  Nd3+  Nd54  1  0.39630774  0.25551357  0.44828645  1
  Nd3+  Nd55  1  0.64151762  0.25343373  0.43015619  1
  Nd3+  Nd56  1  0.89073856  0.00607683  0.42309411  1
  Nd3+  Nd57  1  0.11886581  0.50348066  0.93765299  1
  Sm3+  Sm58  1  -0.01166078  0.38287231  0.05623528  1
  Sm3+  Sm59  1  0.77613746  0.37447303  0.56004013  1
  Sm3+  Sm60  1  0.89538022  0.49752301  0.43587513  1
  Sm3+  Sm61  1  0.73787722  0.37787181  0.06373902  1
  Sm3+  Sm62  1  0.12181141  0.00127052  0.95510314  1
  Sm3+  Sm63  1  0.14399036  0.50168997  0.44704978  1
  Bi2+  Bi64  1  0.00602836  0.17179194  0.28228487  1
  Bi2+  Bi65  1  -0.00683414  0.11356741  0.78922829  1
  Bi2+  Bi66  1  -0.03781889  0.35691124  0.31252893  1
  Bi2+  Bi67  1  -0.02701402  0.40469775  0.80030150  1
  Bi2+  Bi68  1  -0.03582283  0.52494328  0.24963553  1
  Bi2+  Bi69  1  0.09410886  0.63895395  0.79691068  1
  Bi2+  Bi70  1  -0.01231136  0.82348301  0.28056061  1
  Bi2+  Bi71  1  0.01376858  0.92128665  0.76235513  1
  Bi2+  Bi72  1  0.27452608  0.13056337  0.29711579  1
  Bi2+  Bi73  1  0.22219358  0.18093989  0.78046641  1
  Bi2+  Bi74  1  0.16593877  0.36460448  0.30174019  1
  Bi2+  Bi75  1  0.27519313  0.40704734  0.80798786  1
  Bi2+  Bi76  1  0.22617828  0.63219792  0.29329897  1
  Bi2+  Bi77  1  0.28832482  0.60567651  0.80151215  1
  Bi2+  Bi78  1  0.24094610  0.85917174  0.30449071  1
  Bi2+  Bi79  1  0.20788617  0.89611500  0.78756435  1
  Bi2+  Bi80  1  0.49527408  0.13399081  0.30711381  1
  Bi2+  Bi81  1  0.51858302  0.15786586  0.78917618  1
  Bi2+  Bi82  1  0.44223703  0.33387922  0.30759120  1
  Bi2+  Bi83  1  0.48767628  0.33345873  0.82740166  1
  Bi2+  Bi84  1  0.44532856  0.61575241  0.28778030  1
  Bi2+  Bi85  1  0.54146960  0.58495610  0.79058301  1
  Bi2+  Bi86  1  0.47404563  0.93239269  0.28135920  1
  Bi2+  Bi87  1  0.49653074  0.85239293  0.79269977  1
  Bi2+  Bi88  1  0.69383334  0.15052924  0.28792399  1
  Bi2+  Bi89  1  0.77831580  0.09804113  0.77916148  1
  Bi2+  Bi90  1  0.74741230  0.34806750  0.29746383  1
  Bi2+  Bi91  1  0.68225125  0.35337609  0.79424498  1
  Bi2+  Bi92  1  0.71977674  0.62518456  0.30308772  1
  Bi2+  Bi93  1  0.84923658  0.69824998  0.76822450  1
  Bi2+  Bi94  1  0.74175669  0.88345190  0.27538509  1
  Bi2+  Bi95  1  0.77315706  0.89739966  0.78254323  1
  Bi2+  Bi96  1  0.10554592  0.01341662  0.22412065  1
  Bi2+  Bi97  1  0.12109636  0.07830792  0.69749903  1
  Bi2+  Bi98  1  0.15893211  0.28498353  0.19894235  1
  Bi2+  Bi99  1  0.09192738  0.30970963  0.73434217  1
  Bi2+  Bi100  1  0.09330162  0.49315566  0.16308390  1
  Bi2+  Bi101  1  0.16240334  0.51978292  0.71423655  1
  Bi2+  Bi102  1  0.12289316  0.67571612  0.20325871  1
  Bi2+  Bi103  1  0.08917548  0.76279529  0.70626296  1
  Bi2+  Bi104  1  0.35175464  0.02254708  0.20560013  1
  Bi2+  Bi105  1  0.38509868  0.03255072  0.71228662  1
  Bi2+  Bi106  1  0.39072869  0.22324373  0.21583615  1
  Bi2+  Bi107  1  0.33599667  0.21566887  0.68842257  1
  Bi2+  Bi108  1  0.26469496  0.45589524  0.21480264  1
  Bi2+  Bi109  1  0.40973089  0.39192027  0.72421217  1
  Bi2+  Bi110  1  0.35472272  0.82341166  0.21246498  1
  Bi2+  Bi111  1  0.35422929  0.69056480  0.70792611  1
  Bi2+  Bi112  1  0.57843976  0.02488077  0.20481293  1
  Bi2+  Bi113  1  0.68648890  0.12724662  0.67837667  1
  Bi2+  Bi114  1  0.61703886  0.27211770  0.20714594  1
  Bi2+  Bi115  1  0.53562034  0.25070353  0.68333193  1
  Bi2+  Bi116  1  0.70326179  0.50399176  0.21339313  1
  Bi2+  Bi117  1  0.64502727  0.48134426  0.71175705  1
  Bi2+  Bi118  1  0.58678506  0.72468558  0.20840867  1
  Bi2+  Bi119  1  0.67456105  0.73561804  0.71222881  1
  Bi2+  Bi120  1  0.84709735  0.01311009  0.22493061  1
  Bi2+  Bi121  1  0.87090274  -0.07694599  0.68114305  1
  Bi2+  Bi122  1  0.87337752  0.29726182  0.20847847  1
  Bi2+  Bi123  1  0.82024806  0.25942558  0.71683741  1
  Bi2+  Bi124  1  0.86597696  0.50874282  0.14606886  1
  Bi2+  Bi125  1  0.89756044  0.51489775  0.71707684  1
  Bi2+  Bi126  1  0.85682396  0.69011025  0.20926527  1
  Bi2+  Bi127  1  0.90813170  0.73600868  0.65640144  1
  S2-  S128  1  -0.09466813  0.13431729  0.17368660  1
  S2-  S129  1  0.04155332  0.22147371  0.65277924  1
  S2-  S130  1  0.00880275  0.30472506  0.14478903  1
  S2-  S131  1  -0.12855520  0.38324049  0.65004184  1
  S2-  S132  1  -0.00769862  0.72848367  0.14437681  1
  S2-  S133  1  0.01966466  0.53689897  0.64997923  1
  S2-  S134  1  -0.02164718  0.92936443  0.18053168  1
  S2-  S135  1  0.01924025  0.97780021  0.63254535  1
  S2-  S136  1  0.14075550  0.13069421  0.15158394  1
  S2-  S137  1  0.25224001  0.00532944  0.64446936  1
  S2-  S138  1  0.36656387  0.36572402  0.14969538  1
  S2-  S139  1  0.18063377  0.37739046  0.65415611  1
  S2-  S140  1  0.26632471  0.71478256  0.14588574  1
  S2-  S141  1  0.29755919  0.55451500  0.65471871  1
  S2-  S142  1  0.20512505  0.91434823  0.17579387  1
  S2-  S143  1  0.23516410  0.75454178  0.64575071  1
  S2-  S144  1  0.52802046  0.16053812  0.14329951  1
  S2-  S145  1  0.52931007  0.03234872  0.65593744  1
  S2-  S146  1  0.61091757  0.40787815  0.14749451  1
  S2-  S147  1  0.50572929  0.48688751  0.65124503  1
  S2-  S148  1  0.46704132  0.60529935  0.18994204  1
  S2-  S149  1  0.52004246  0.71659616  0.66690370  1
  S2-  S150  1  0.51594729  0.81235882  0.13941740  1
  S2-  S151  1  0.40932546  0.87271944  0.69883060  1
  S2-  S152  1  0.71790992  0.01334449  0.15124181  1
  S2-  S153  1  0.85076485  0.13143885  0.64298308  1
  S2-  S154  1  0.74748066  0.26266664  0.14191151  1
  S2-  S155  1  0.66231532  0.35908623  0.63772773  1
  S2-  S156  1  0.65863797  0.62984397  0.13911107  1
  S2-  S157  1  0.70117281  0.60605670  0.64802239  1
  S2-  S158  1  0.76030176  0.80991903  0.17685639  1
  S2-  S159  1  0.68575264  0.87296265  0.65207097  1
  S2-  S160  1  0.09873862  -0.06085001  0.32302862  1
  S2-  S161  1  0.17879596  0.00448010  0.85931765  1
  S2-  S162  1  0.12998999  0.14554565  0.35278274  1
  S2-  S163  1  0.02373482  0.21827944  0.86141156  1
  S2-  S164  1  0.14279925  0.51657830  0.34715006  1
  S2-  S165  1  0.13257146  0.39677465  0.85903649  1
  S2-  S166  1  0.09624857  0.73122144  0.33464616  1
  S2-  S167  1  0.12219317  0.78036680  0.84998842  1
  S2-  S168  1  0.30404299  -0.00776208  0.36132941  1
  S2-  S169  1  0.49358698  0.00412763  0.83507769  1
  S2-  S170  1  0.30226194  0.26903210  0.36174536  1
  S2-  S171  1  0.34219661  0.16888008  0.85079073  1
  S2-  S172  1  0.38401374  0.48428327  0.34312025  1
  S2-  S173  1  0.46351760  0.50306312  0.86520668  1
  S2-  S174  1  0.34334921  0.73119989  0.35316313  1
  S2-  S175  1  0.34336532  0.85446804  0.84250682  1
  S2-  S176  1  0.69356083  0.00853210  0.34358120  1
  S2-  S177  1  0.64578073  -0.12986078  0.84773455  1
  S2-  S178  1  0.60041833  0.36253421  0.35352021  1
  S2-  S179  1  0.65355793  0.14620307  0.85268715  1
  S2-  S180  1  0.57430038  0.60363020  0.35430586  1
  S2-  S181  1  0.68102969  0.51483765  0.83524189  1
  S2-  S182  1  0.66786703  0.78309856  0.33594746  1
  S2-  S183  1  0.50106795  0.71836011  0.85143172  1
  S2-  S184  1  0.88407284  -0.10546082  0.34308556  1
  S2-  S185  1  0.87471956  0.07864449  0.86424491  1
  S2-  S186  1  0.89851325  0.13684612  0.35155010  1
  S2-  S187  1  0.83546233  0.35041352  0.85097120  1
  S2-  S188  1  0.78936184  0.49130891  0.35512248  1
  S2-  S189  1  0.91404610  0.55773141  0.83145089  1
  S2-  S190  1  0.88802976  0.68880601  0.31781544  1
  S2-  S191  1  0.88222249  0.81439882  0.84424958  1
  S2-  S192  1  0.02035429  0.12686975  0.45641301  1
  S2-  S193  1  0.00426773  0.12510603  0.97283547  1
  S2-  S194  1  0.02217027  0.37787370  0.44317165  1
  S2-  S195  1  -0.00935554  0.38084364  0.95284221  1
  S2-  S196  1  0.01644812  0.62418891  0.44766242  1
  S2-  S197  1  -0.00564639  0.62707330  0.95091308  1
  S2-  S198  1  0.02103156  0.87947279  0.44347545  1
  S2-  S199  1  -0.00241839  0.87758407  0.96412522  1
  S2-  S200  1  0.27674798  0.12763861  0.46247196  1
  S2-  S201  1  0.24247823  0.12670098  0.96149229  1
  S2-  S202  1  0.27121943  0.38401310  0.46231056  1
  S2-  S203  1  0.24886160  0.38274488  0.96447145  1
  S2-  S204  1  0.26886987  0.62386561  0.46019520  1
  S2-  S205  1  0.24519170  0.62691215  0.95131951  1
  S2-  S206  1  0.27014065  0.87348674  0.46148156  1
  S2-  S207  1  0.24746555  0.87925370  0.96325875  1
  S2-  S208  1  0.51931945  0.12869250  0.45432194  1
  S2-  S209  1  0.48689276  0.12724634  0.94608675  1
  S2-  S210  1  0.51811630  0.37837623  0.46200158  1
  S2-  S211  1  0.49093846  0.37201740  0.96266741  1
  S2-  S212  1  0.51947731  0.62521751  0.46741211  1
  S2-  S213  1  0.49316921  0.63223083  0.96460382  1
  S2-  S214  1  0.51849181  0.87498016  0.43813712  1
  S2-  S215  1  0.48613678  0.88764628  0.94579157  1
  S2-  S216  1  0.76452716  0.12971528  0.44725554  1
  S2-  S217  1  0.74320961  0.12765342  0.96336644  1
  S2-  S218  1  0.77391963  0.36858492  0.45354682  1
  S2-  S219  1  0.73597946  0.37535518  0.95546611  1
  S2-  S220  1  0.77320335  0.62865112  0.44801516  1
  S2-  S221  1  0.74428534  0.62950185  0.94149841  1
  S2-  S222  1  0.76493221  0.87546731  0.45088297  1
  S2-  S223  1  0.74512318  0.87947032  0.95949077  1
  S2-  S224  1  0.11955741  -0.00663591  0.05852045  1
  S2-  S225  1  0.14626663  0.00319873  0.53499206  1
  S2-  S226  1  0.12368811  0.26276374  0.04595192  1
  S2-  S227  1  0.15126067  0.25403601  0.54586802  1
  S2-  S228  1  0.11858289  0.50448239  0.04349357  1
  S2-  S229  1  0.14386299  0.50371215  0.54982568  1
  S2-  S230  1  0.11882134  0.75070502  0.04995019  1
  S2-  S231  1  0.13757072  0.75431976  0.53947141  1
  S2-  S232  1  0.36732860  0.00064935  0.06307016  1
  S2-  S233  1  0.40332271  -0.00492103  0.55192555  1
  S2-  S234  1  0.36533534  0.24830199  0.04620987  1
  S2-  S235  1  0.39818796  0.25421820  0.55400524  1
  S2-  S236  1  0.37339222  0.51067284  0.05718158  1
  S2-  S237  1  0.39494603  0.50414884  0.54834214  1
  S2-  S238  1  0.37133777  0.75130722  0.04142335  1
  S2-  S239  1  0.40180683  0.75768397  0.55750526  1
  S2-  S240  1  0.61651067  0.00130831  0.03942484  1
  S2-  S241  1  0.64458412  0.00229842  0.54426476  1
  S2-  S242  1  0.61609100  0.25194279  0.03953837  1
  S2-  S243  1  0.64650554  0.24931200  0.53680309  1
  S2-  S244  1  0.61763935  0.50295735  0.03970571  1
  S2-  S245  1  0.65551586  0.49954564  0.53771886  1
  S2-  S246  1  0.62168732  0.75619762  0.03732528  1
  S2-  S247  1  0.64154978  0.75393698  0.54385463  1
  S2-  S248  1  0.87364896  0.00080539  0.06195691  1
  S2-  S249  1  0.88932002  0.00096162  0.53130499  1
  S2-  S250  1  0.87122238  0.25718829  0.04234245  1
  S2-  S251  1  0.90041527  0.25682651  0.53951960  1
  S2-  S252  1  0.86404763  0.50175620  0.03071396  1
  S2-  S253  1  0.89787369  0.49965432  0.53987352  1
  S2-  S254  1  0.86253370  0.75355022  0.04758257  1
  S2-  S255  1  0.89581779  0.75574590  0.53111517  1
