# generated using pymatgen
data_La9Ce10Pr6Nd4Sm3(BiS2)32
_symmetry_space_group_name_H-M   'P 1'
_cell_length_a   16.08836154
_cell_length_b   16.17970738
_cell_length_c   27.15345232
_cell_angle_alpha   89.87376197
_cell_angle_beta   90.04850952
_cell_angle_gamma   89.86700874
_symmetry_Int_Tables_number   1
_chemical_formula_structural   La9Ce10Pr6Nd4Sm3(BiS2)32
_chemical_formula_sum   'La18 Ce20 Pr12 Nd8 Sm6 Bi64 S128'
_cell_volume   7068.14015822
_cell_formula_units_Z   2
loop_
 _symmetry_equiv_pos_site_id
 _symmetry_equiv_pos_as_xyz
  1  'x, y, z'
loop_
 _atom_type_symbol
 _atom_type_oxidation_number
  La3+  3.0
  Ce3+  3.0
  Pr3+  3.0
  Nd3+  3.0
  Sm3+  3.0
  Bi2+  2.0
  S2-  -2.0
loop_
 _atom_site_type_symbol
 _atom_site_label
 _atom_site_symmetry_multiplicity
 _atom_site_fract_x
 _atom_site_fract_y
 _atom_site_fract_z
 _atom_site_occupancy
  La3+  La0  1  0.50479406  0.37445101  0.07905643  1
  La3+  La1  1  0.23536717  0.87025333  0.07226469  1
  La3+  La2  1  0.23559345  0.61935415  0.07540989  1
  La3+  La3  1  0.61213451  0.49086249  0.92954712  1
  La3+  La4  1  0.50623889  0.11012676  0.08601847  1
  La3+  La5  1  -0.00631975  0.36136008  0.06348827  1
  La3+  La6  1  0.13951015  0.00090714  0.42500042  1
  La3+  La7  1  0.01423905  0.12373139  0.58166094  1
  La3+  La8  1  0.39595467  0.50175741  0.43141441  1
  La3+  La9  1  0.65156132  0.24186240  0.41122897  1
  La3+  La10  1  0.01783909  0.87538412  0.56256608  1
  La3+  La11  1  0.51984928  0.12685584  0.56734805  1
  La3+  La12  1  0.90660201  0.50850329  0.42030453  1
  La3+  La13  1  0.26814282  0.12056319  0.59675092  1
  La3+  La14  1  0.23485757  0.12494601  0.07426850  1
  La3+  La15  1  0.87152317  0.24849738  0.91847552  1
  La3+  La16  1  0.60323626  0.00287999  0.91182361  1
  La3+  La17  1  0.14038569  0.25414298  0.45230394  1
  Ce3+  Ce18  1  -0.01007926  0.87314322  0.05654056  1
  Ce3+  Ce19  1  0.51644162  0.37557848  0.55598197  1
  Ce3+  Ce20  1  0.74312307  0.87251248  0.04097636  1
  Ce3+  Ce21  1  0.36649557  -0.00356143  0.95098135  1
  Ce3+  Ce22  1  0.14347859  0.50448217  0.45790956  1
  Ce3+  Ce23  1  0.64228325  0.49974543  0.43621945  1
  Ce3+  Ce24  1  0.61209513  0.24119092  0.94050784  1
  Ce3+  Ce25  1  0.89972660  0.25281767  0.43770973  1
  Ce3+  Ce26  1  -0.00894612  0.11894989  0.04612665  1
  Ce3+  Ce27  1  0.38871319  0.01765597  0.42243953  1
  Ce3+  Ce28  1  0.26980810  0.88288811  0.55184259  1
  Ce3+  Ce29  1  0.12085739  0.74157776  0.94159526  1
  Ce3+  Ce30  1  0.49642628  0.87090157  0.05873724  1
  Ce3+  Ce31  1  0.87081675  0.49401707  0.93648990  1
  Ce3+  Ce32  1  0.36377577  0.74398815  0.94785756  1
  Ce3+  Ce33  1  0.38870474  0.25534792  0.44404461  1
  Ce3+  Ce34  1  0.11806420  -0.00558009  0.93731864  1
  Ce3+  Ce35  1  0.13147476  0.24488930  0.92486761  1
  Ce3+  Ce36  1  0.74090066  0.36563476  0.05181952  1
  Ce3+  Ce37  1  0.01340920  0.63201086  0.56744442  1
  Pr3+  Pr38  1  0.87389831  -0.01303899  0.91009118  1
  Pr3+  Pr39  1  0.87294131  0.74143101  0.92918397  1
  Pr3+  Pr40  1  0.39560317  0.74860270  0.42806844  1
  Pr3+  Pr41  1  0.61426744  0.74049671  0.93266401  1
  Pr3+  Pr42  1  0.77134234  0.37831567  0.55074904  1
  Pr3+  Pr43  1  0.88976414  0.75464538  0.43046400  1
  Pr3+  Pr44  1  0.27583953  0.37756961  0.58278385  1
  Pr3+  Pr45  1  0.76470871  0.62950747  0.55937543  1
  Pr3+  Pr46  1  0.14633193  0.75232032  0.44170275  1
  Pr3+  Pr47  1  0.00874282  0.38033529  0.57811375  1
  Pr3+  Pr48  1  0.52251221  0.63010714  0.56569128  1
  Pr3+  Pr49  1  0.74459955  0.62052984  0.05974397  1
  Nd3+  Nd50  1  0.11836426  0.49274024  0.94392249  1
  Nd3+  Nd51  1  0.89310920  0.00717150  0.43524699  1
  Nd3+  Nd52  1  0.51374672  0.87974789  0.55328188  1
  Nd3+  Nd53  1  0.63582699  0.00406839  0.43282074  1
  Nd3+  Nd54  1  -0.01240283  0.61705567  0.06933638  1
  Nd3+  Nd55  1  0.64045102  0.75306111  0.43102695  1
  Nd3+  Nd56  1  0.74653869  0.10689171  0.05351505  1
  Nd3+  Nd57  1  0.76688156  0.12605544  0.56709611  1
  Sm3+  Sm58  1  0.76495310  0.87853646  0.55389735  1
  Sm3+  Sm59  1  0.24615031  0.36793224  0.06123518  1
  Sm3+  Sm60  1  0.36704110  0.49391026  0.94900173  1
  Sm3+  Sm61  1  0.49368017  0.62189099  0.06130825  1
  Sm3+  Sm62  1  0.36831506  0.24339281  0.95354153  1
  Sm3+  Sm63  1  0.27621393  0.62415612  0.57528337  1
  Bi2+  Bi64  1  0.06557180  0.15113390  0.28895628  1
  Bi2+  Bi65  1  -0.02179582  0.12064105  0.79535636  1
  Bi2+  Bi66  1  0.02572693  0.39635687  0.30012658  1
  Bi2+  Bi67  1  0.01412084  0.45051349  0.78160387  1
  Bi2+  Bi68  1  0.01031521  0.67836765  0.27627870  1
  Bi2+  Bi69  1  -0.06872587  0.61173347  0.82380033  1
  Bi2+  Bi70  1  0.00545070  0.89202403  0.29331998  1
  Bi2+  Bi71  1  -0.04356216  0.78740351  0.77133990  1
  Bi2+  Bi72  1  0.24804363  0.19287763  0.31605536  1
  Bi2+  Bi73  1  0.19706224  0.01318451  0.81613727  1
  Bi2+  Bi74  1  0.24899234  0.40388848  0.28589443  1
  Bi2+  Bi75  1  0.27801511  0.37589275  0.79995740  1
  Bi2+  Bi76  1  0.20437600  0.69098882  0.31167731  1
  Bi2+  Bi77  1  0.25002717  0.62481560  0.77856566  1
  Bi2+  Bi78  1  0.35767594  0.80600772  0.25737968  1
  Bi2+  Bi79  1  0.23952550  0.82140697  0.80641038  1
  Bi2+  Bi80  1  0.51286911  0.11417342  0.28984115  1
  Bi2+  Bi81  1  0.42512196  0.15616357  0.81694289  1
  Bi2+  Bi82  1  0.46840907  0.39212982  0.28832472  1
  Bi2+  Bi83  1  0.54428298  0.36710164  0.82318607  1
  Bi2+  Bi84  1  0.48581027  0.63229799  0.29291745  1
  Bi2+  Bi85  1  0.49969205  0.70185160  0.80037412  1
  Bi2+  Bi86  1  0.55309007  0.86648773  0.26958611  1
  Bi2+  Bi87  1  0.41848495  0.86979717  0.76271095  1
  Bi2+  Bi88  1  0.78753221  0.09118216  0.27845454  1
  Bi2+  Bi89  1  0.70870109  0.12549176  0.77931638  1
  Bi2+  Bi90  1  0.75887538  0.33998249  0.28307370  1
  Bi2+  Bi91  1  0.74170801  0.40280156  0.79794740  1
  Bi2+  Bi92  1  0.74510742  0.71140236  0.30785570  1
  Bi2+  Bi93  1  0.75780439  0.59532303  0.77571420  1
  Bi2+  Bi94  1  0.80444711  0.90010098  0.30622501  1
  Bi2+  Bi95  1  0.72535539  0.85622858  0.77099208  1
  Bi2+  Bi96  1  0.07698883  0.00875658  0.20705613  1
  Bi2+  Bi97  1  0.12190135  -0.02565734  0.71211449  1
  Bi2+  Bi98  1  0.06802016  0.28229634  0.19817187  1
  Bi2+  Bi99  1  0.15684756  0.23821152  0.73281812  1
  Bi2+  Bi100  1  0.13745381  0.54295299  0.23805873  1
  Bi2+  Bi101  1  0.11122764  0.56228671  0.70470369  1
  Bi2+  Bi102  1  0.18078460  0.75776777  0.19862336  1
  Bi2+  Bi103  1  0.12172162  0.76218333  0.70863205  1
  Bi2+  Bi104  1  0.27998492  -0.01515590  0.24765622  1
  Bi2+  Bi105  1  0.32549883  0.03860127  0.73036045  1
  Bi2+  Bi106  1  0.32710893  0.24047286  0.21458806  1
  Bi2+  Bi107  1  0.42595067  0.28459118  0.72926474  1
  Bi2+  Bi108  1  0.38133241  0.51894728  0.21177640  1
  Bi2+  Bi109  1  0.38930005  0.50902081  0.71581543  1
  Bi2+  Bi110  1  0.52330272  0.73617646  0.18434551  1
  Bi2+  Bi111  1  0.31444548  0.75729752  0.69042307  1
  Bi2+  Bi112  1  0.65960994  -0.01129716  0.20028384  1
  Bi2+  Bi113  1  0.54988411  0.03559106  0.70948569  1
  Bi2+  Bi114  1  0.60088392  0.26478773  0.19757469  1
  Bi2+  Bi115  1  0.62510299  0.29140030  0.72534695  1
  Bi2+  Bi116  1  0.68338636  0.55539244  0.25240173  1
  Bi2+  Bi117  1  0.59995955  0.49253942  0.73611339  1
  Bi2+  Bi118  1  0.71656118  0.71532689  0.18501862  1
  Bi2+  Bi119  1  0.56903800  0.74001396  0.69732192  1
  Bi2+  Bi120  1  0.89864280  0.05553941  0.17093533  1
  Bi2+  Bi121  1  0.85170270  -0.00782120  0.70200225  1
  Bi2+  Bi122  1  0.87329437  0.23153581  0.21270551  1
  Bi2+  Bi123  1  0.88960519  0.27372351  0.71221126  1
  Bi2+  Bi124  1  0.85323973  0.49939958  0.21377726  1
  Bi2+  Bi125  1  0.92491251  0.52173374  0.67892535  1
  Bi2+  Bi126  1  0.88856899  0.79786292  0.21699234  1
  Bi2+  Bi127  1  0.84505179  0.69478141  0.68850579  1
  S2-  S128  1  0.07494658  0.14197425  0.13201239  1
  S2-  S129  1  -0.12811776  0.14659727  0.65095582  1
  S2-  S130  1  -0.03262430  0.41719472  0.15891553  1
  S2-  S131  1  0.03298418  0.31312773  0.67329429  1
  S2-  S132  1  0.09936215  0.62303223  0.14751400  1
  S2-  S133  1  -0.00980869  0.75135583  0.63745606  1
  S2-  S134  1  0.08701460  0.87271207  0.14094528  1
  S2-  S135  1  -0.00810475  0.97245542  0.64722534  1
  S2-  S136  1  0.27278664  0.09784029  0.17379841  1
  S2-  S137  1  0.12936554  0.12486639  0.66382243  1
  S2-  S138  1  0.21369256  0.33907184  0.15639835  1
  S2-  S139  1  0.27194486  0.26789350  0.66707588  1
  S2-  S140  1  0.31237539  0.64346112  0.16636117  1
  S2-  S141  1  0.25940148  0.50574372  0.65372652  1
  S2-  S142  1  0.30954951  0.87435945  0.16670424  1
  S2-  S143  1  0.25960518  0.94864856  0.64394964  1
  S2-  S144  1  0.46865570  0.15198075  0.18735400  1
  S2-  S145  1  0.42013997  0.10359584  0.65254898  1
  S2-  S146  1  0.45331125  0.36122730  0.17706122  1
  S2-  S147  1  0.45289487  0.39250186  0.64725298  1
  S2-  S148  1  0.52168045  0.56914925  0.15373627  1
  S2-  S149  1  0.41585257  0.64158030  0.64700121  1
  S2-  S150  1  0.52985808  0.95397002  0.14134413  1
  S2-  S151  1  0.53304884  0.88703475  0.65357497  1
  S2-  S152  1  0.66380896  0.13764411  0.14239930  1
  S2-  S153  1  0.64409450  0.10940237  0.64607528  1
  S2-  S154  1  0.66459973  0.37798067  0.14006474  1
  S2-  S155  1  0.82147926  0.38722930  0.64887063  1
  S2-  S156  1  0.85784574  0.61671095  0.13982366  1
  S2-  S157  1  0.65630375  0.63657494  0.64010735  1
  S2-  S158  1  0.77704178  0.95532364  0.12476984  1
  S2-  S159  1  0.77081542  0.87675286  0.65505306  1
  S2-  S160  1  0.25486599  0.02440168  0.34717375  1
  S2-  S161  1  0.03103250  -0.01564648  0.85091307  1
  S2-  S162  1  0.03427678  0.26593853  0.36725520  1
  S2-  S163  1  0.06829063  0.24007375  0.83088198  1
  S2-  S164  1  0.07363514  0.50106581  0.36823306  1
  S2-  S165  1  0.14774848  0.46953559  0.84561410  1
  S2-  S166  1  0.13575053  0.84023236  0.35288214  1
  S2-  S167  1  0.06145112  0.72207597  0.85063317  1
  S2-  S168  1  0.48216768  -0.02377602  0.33822866  1
  S2-  S169  1  0.43389300  0.00653245  0.86105265  1
  S2-  S170  1  0.40686770  0.16715913  0.35690458  1
  S2-  S171  1  0.28479817  0.23849967  0.86374914  1
  S2-  S172  1  0.35135770  0.37212336  0.36625732  1
  S2-  S173  1  0.39119732  0.44789997  0.85395957  1
  S2-  S174  1  0.34924720  0.62304937  0.35730085  1
  S2-  S175  1  0.34243596  0.68562819  0.85556202  1
  S2-  S176  1  0.65126274  0.09361206  0.34730927  1
  S2-  S177  1  0.62822063  -0.03101087  0.80705834  1
  S2-  S178  1  0.58988815  0.29379573  0.31690156  1
  S2-  S179  1  0.59147402  0.16105855  0.85455268  1
  S2-  S180  1  0.54019761  0.50281585  0.35658310  1
  S2-  S181  1  0.57677761  0.56954170  0.84147962  1
  S2-  S182  1  0.52675641  0.75860278  0.35367121  1
  S2-  S183  1  0.65491364  0.75980770  0.83419791  1
  S2-  S184  1  1.00142364  0.03271525  0.35641204  1
  S2-  S185  1  0.83179976  0.02468867  0.80889398  1
  S2-  S186  1  0.81168641  0.22486236  0.35311397  1
  S2-  S187  1  0.83680140  0.21684244  0.81832818  1
  S2-  S188  1  0.86096206  0.44472272  0.32597061  1
  S2-  S189  1  0.89214046  0.40233188  0.85364966  1
  S2-  S190  1  0.90015530  0.64899138  0.35071719  1
  S2-  S191  1  0.85685299  0.83825195  0.84486095  1
  S2-  S192  1  0.01542269  0.12573327  0.46617716  1
  S2-  S193  1  -0.00315313  0.12490789  0.94209205  1
  S2-  S194  1  0.01435702  0.38395480  0.46957928  1
  S2-  S195  1  -0.00112759  0.36572747  0.95418952  1
  S2-  S196  1  0.01928515  0.63534788  0.46125932  1
  S2-  S197  1  -0.00558002  0.61567570  0.96113987  1
  S2-  S198  1  0.01266187  0.87558295  0.45408215  1
  S2-  S199  1  -0.00314724  0.86476124  0.95096723  1
  S2-  S200  1  0.26360811  0.13206570  0.45687390  1
  S2-  S201  1  0.24372057  0.11771817  0.96240703  1
  S2-  S202  1  0.26324310  0.38078877  0.47278592  1
  S2-  S203  1  0.24686979  0.37274033  0.95847798  1
  S2-  S204  1  0.26703415  0.62693557  0.46698460  1
  S2-  S205  1  0.24187384  0.61500858  0.96345392  1
  S2-  S206  1  0.27569656  0.87710812  0.44707251  1
  S2-  S207  1  0.24179414  0.86906170  0.95831208  1
  S2-  S208  1  0.52310691  0.13153895  0.45673887  1
  S2-  S209  1  0.48731086  0.12212114  0.96580237  1
  S2-  S210  1  0.52717779  0.36811308  0.45229395  1
  S2-  S211  1  0.48906274  0.36796246  0.96486336  1
  S2-  S212  1  0.52237180  0.62814147  0.45795678  1
  S2-  S213  1  0.48816348  0.61804655  0.95658733  1
  S2-  S214  1  0.51525853  0.88078284  0.44983842  1
  S2-  S215  1  0.49023658  0.86542857  0.95080027  1
  S2-  S216  1  0.76745783  0.12440501  0.45926825  1
  S2-  S217  1  0.74583633  0.11838309  0.94142360  1
  S2-  S218  1  0.76958508  0.37906307  0.44488790  1
  S2-  S219  1  0.73937483  0.36601676  0.94598498  1
  S2-  S220  1  0.76311892  0.62689770  0.45042864  1
  S2-  S221  1  0.74357989  0.61794338  0.94765417  1
  S2-  S222  1  0.76484862  0.87996211  0.44608337  1
  S2-  S223  1  0.73501897  0.87234514  0.93885129  1
  S2-  S224  1  0.11510277  -0.00436876  0.04136694  1
  S2-  S225  1  0.14213145  0.00218442  0.54174224  1
  S2-  S226  1  0.12287324  0.24912581  0.03428582  1
  S2-  S227  1  0.13976020  0.25559494  0.55892364  1
  S2-  S228  1  0.11765704  0.48780988  0.05124521  1
  S2-  S229  1  0.13695843  0.50611968  0.56046053  1
  S2-  S230  1  0.11157205  0.74358813  0.04484818  1
  S2-  S231  1  0.15182783  0.74993549  0.55011689  1
  S2-  S232  1  0.36517130  -0.00340496  0.05613156  1
  S2-  S233  1  0.39272948  0.00492288  0.53946986  1
  S2-  S234  1  0.37220965  0.24454566  0.05919783  1
  S2-  S235  1  0.39184349  0.25013272  0.55090201  1
  S2-  S236  1  0.36862975  0.49488059  0.05477301  1
  S2-  S237  1  0.39651454  0.50587730  0.54355639  1
  S2-  S238  1  0.36881252  0.74579072  0.05294700  1
  S2-  S239  1  0.39265274  0.75397712  0.54098963  1
  S2-  S240  1  0.61856570  -0.00689840  0.02858165  1
  S2-  S241  1  0.64394492  -0.00271515  0.54011873  1
  S2-  S242  1  0.61940847  0.24013478  0.04301018  1
  S2-  S243  1  0.64646139  0.25711116  0.55014759  1
  S2-  S244  1  0.61927532  0.50037077  0.03896057  1
  S2-  S245  1  0.64168370  0.49916514  0.54338759  1
  S2-  S246  1  0.61878437  0.74377163  0.04177245  1
  S2-  S247  1  0.64195041  0.75897699  0.53708064  1
  S2-  S248  1  0.87363896  -0.00587717  0.02098131  1
  S2-  S249  1  0.88532019  -0.00143297  0.54140928  1
  S2-  S250  1  0.86392748  0.24026371  0.04064825  1
  S2-  S251  1  0.89363216  0.25217278  0.54594397  1
  S2-  S252  1  0.86614962  0.48829803  0.04160688  1
  S2-  S253  1  0.89183016  0.51075153  0.54165856  1
  S2-  S254  1  0.86799952  0.74810933  0.03843112  1
  S2-  S255  1  0.88285578  0.75432649  0.53667281  1
