# generated using pymatgen
data_La9Ce10Pr6Nd4Sm3(BiS2)32
_symmetry_space_group_name_H-M   'P 1'
_cell_length_a   16.22272951
_cell_length_b   16.23052361
_cell_length_c   27.17670504
_cell_angle_alpha   89.86991970
_cell_angle_beta   89.81463562
_cell_angle_gamma   89.95951880
_symmetry_Int_Tables_number   1
_chemical_formula_structural   La9Ce10Pr6Nd4Sm3(BiS2)32
_chemical_formula_sum   'La18 Ce20 Pr12 Nd8 Sm6 Bi64 S128'
_cell_volume   7155.66104604
_cell_formula_units_Z   2
loop_
 _symmetry_equiv_pos_site_id
 _symmetry_equiv_pos_as_xyz
  1  'x, y, z'
loop_
 _atom_type_symbol
 _atom_type_oxidation_number
  La3+  3.0
  Ce3+  3.0
  Pr3+  3.0
  Nd3+  3.0
  Sm3+  3.0
  Bi2+  2.0
  S2-  -2.0
loop_
 _atom_site_type_symbol
 _atom_site_label
 _atom_site_symmetry_multiplicity
 _atom_site_fract_x
 _atom_site_fract_y
 _atom_site_fract_z
 _atom_site_occupancy
  La3+  La0  1  0.62808127  0.25961031  0.94113865  1
  La3+  La1  1  0.49448345  0.39145490  0.07783303  1
  La3+  La2  1  0.37777459  0.01019126  0.89792225  1
  La3+  La3  1  0.50624765  0.88276435  0.59940228  1
  La3+  La4  1  0.25349801  0.63313289  0.06999955  1
  La3+  La5  1  0.25601651  0.61576953  0.57508379  1
  La3+  La6  1  0.62778339  0.51226474  0.93972336  1
  La3+  La7  1  0.76241523  0.63481676  0.07322714  1
  La3+  La8  1  0.13383425  0.51127534  0.93711074  1
  La3+  La9  1  0.75136757  0.62163603  0.55673147  1
  La3+  La10  1  0.50176367  0.88394773  0.06020017  1
  La3+  La11  1  0.25338195  0.11756014  0.56528385  1
  La3+  La12  1  0.75234713  0.13682101  0.06420488  1
  La3+  La13  1  0.88480320  -0.00833730  0.42034585  1
  La3+  La14  1  -0.00593437  0.89365075  0.08614439  1
  La3+  La15  1  0.63180538  0.00879334  0.92945888  1
  La3+  La16  1  0.62761286  0.74920809  0.43643886  1
  La3+  La17  1  0.37350380  0.24371074  0.38679835  1
  Ce3+  Ce18  1  0.87471851  0.24489988  0.42345296  1
  Ce3+  Ce19  1  0.74987036  0.87505926  0.55531116  1
  Ce3+  Ce20  1  0.13141545  0.24910007  0.44416376  1
  Ce3+  Ce21  1  0.12732372  0.49574271  0.44355015  1
  Ce3+  Ce22  1  0.37719180  0.74688667  0.44789149  1
  Ce3+  Ce23  1  0.50219144  0.36744628  0.55442835  1
  Ce3+  Ce24  1  -0.00532564  0.36910672  0.55604948  1
  Ce3+  Ce25  1  0.00267129  0.12998349  0.05036566  1
  Ce3+  Ce26  1  0.13182911  0.25188180  0.93967739  1
  Ce3+  Ce27  1  0.88312612  0.75788255  0.94533507  1
  Ce3+  Ce28  1  0.62648155  0.49448049  0.43646030  1
  Ce3+  Ce29  1  0.50303488  0.63369661  0.06135103  1
  Ce3+  Ce30  1  -0.00217133  0.12095514  0.55287943  1
  Ce3+  Ce31  1  0.38177223  0.25550751  0.93853323  1
  Ce3+  Ce32  1  0.62803754  0.75947782  0.94497894  1
  Ce3+  Ce33  1  0.13292496  0.00594449  0.93793692  1
  Ce3+  Ce34  1  0.75188025  0.88764895  0.05794918  1
  Ce3+  Ce35  1  0.50252642  0.12051373  0.55456912  1
  Ce3+  Ce36  1  0.12935086  0.76266306  0.94628163  1
  Ce3+  Ce37  1  0.37559910  0.51407117  0.92696807  1
  Pr3+  Pr38  1  0.12997090  -0.00299624  0.43891459  1
  Pr3+  Pr39  1  0.88056624  0.26776809  0.92949082  1
  Pr3+  Pr40  1  0.74377088  0.36716913  0.56652442  1
  Pr3+  Pr41  1  -0.00133147  0.61868345  0.56328491  1
  Pr3+  Pr42  1  0.87723341  0.49660250  0.42821723  1
  Pr3+  Pr43  1  0.88835075  0.51888263  0.92776347  1
  Pr3+  Pr44  1  0.37285208  0.75641222  0.91809159  1
  Pr3+  Pr45  1  0.37669287  -0.00287530  0.43817601  1
  Pr3+  Pr46  1  0.00793270  0.62668826  0.07480891  1
  Pr3+  Pr47  1  0.49998828  0.62151943  0.55708681  1
  Pr3+  Pr48  1  0.88001951  0.00591165  0.92827744  1
  Pr3+  Pr49  1  0.62907211  0.24673438  0.42898101  1
  Nd3+  Nd50  1  0.37365762  0.49316815  0.43590957  1
  Nd3+  Nd51  1  0.25489781  0.88479370  0.05666227  1
  Nd3+  Nd52  1  0.25059847  0.86849719  0.56288745  1
  Nd3+  Nd53  1  0.00491902  0.38129233  0.05878819  1
  Nd3+  Nd54  1  0.62575143  -0.00116991  0.43229657  1
  Nd3+  Nd55  1  0.25550909  0.13158567  0.05912056  1
  Nd3+  Nd56  1  0.89161542  0.74336473  0.41744604  1
  Nd3+  Nd57  1  0.25031722  0.37127497  0.56518924  1
  Sm3+  Sm58  1  0.50443022  0.13198917  0.05953997  1
  Sm3+  Sm59  1  0.12838064  0.74282331  0.44746246  1
  Sm3+  Sm60  1  -0.00007411  0.87078322  0.55930984  1
  Sm3+  Sm61  1  0.75190465  0.11778290  0.55039810  1
  Sm3+  Sm62  1  0.25628109  0.38025823  0.05059768  1
  Sm3+  Sm63  1  0.75446040  0.38470176  0.05603686  1
  Bi2+  Bi64  1  0.02029858  0.18435185  0.29548572  1
  Bi2+  Bi65  1  -0.00538331  0.03436600  0.80161707  1
  Bi2+  Bi66  1  -0.00152196  0.37866448  0.32613588  1
  Bi2+  Bi67  1  0.01894542  0.40810043  0.79223604  1
  Bi2+  Bi68  1  0.02892365  0.58146958  0.30818891  1
  Bi2+  Bi69  1  -0.01961371  0.66347378  0.79350833  1
  Bi2+  Bi70  1  0.00543205  0.84452495  0.28468539  1
  Bi2+  Bi71  1  -0.02008982  0.85454685  0.84258858  1
  Bi2+  Bi72  1  0.21459345  0.03736474  0.30915717  1
  Bi2+  Bi73  1  0.22222685  0.16930505  0.79417861  1
  Bi2+  Bi74  1  0.20886903  0.37917420  0.29261915  1
  Bi2+  Bi75  1  0.26021367  0.38173176  0.78259684  1
  Bi2+  Bi76  1  0.33901868  0.60792748  0.30583493  1
  Bi2+  Bi77  1  0.26805998  0.63584474  0.79166407  1
  Bi2+  Bi78  1  0.25929460  0.85796324  0.28900708  1
  Bi2+  Bi79  1  0.15936536  0.88638316  0.79297256  1
  Bi2+  Bi80  1  0.50919779  0.11948646  0.28381807  1
  Bi2+  Bi81  1  0.46159864  0.12057548  0.76964426  1
  Bi2+  Bi82  1  0.48871783  0.38075802  0.28005763  1
  Bi2+  Bi83  1  0.45565617  0.38738385  0.80426910  1
  Bi2+  Bi84  1  0.49232854  0.60782405  0.23633517  1
  Bi2+  Bi85  1  0.52811460  0.56472864  0.78010161  1
  Bi2+  Bi86  1  0.45397129  0.88543423  0.28500635  1
  Bi2+  Bi87  1  0.52992341  0.87027616  0.79658513  1
  Bi2+  Bi88  1  0.76177326  0.14929251  0.28305856  1
  Bi2+  Bi89  1  0.72944879  0.12245854  0.78160439  1
  Bi2+  Bi90  1  0.81257613  0.40791109  0.29930001  1
  Bi2+  Bi91  1  0.74757125  0.33957345  0.80510214  1
  Bi2+  Bi92  1  0.71413590  0.58780525  0.30613149  1
  Bi2+  Bi93  1  0.78350665  0.58094397  0.78582038  1
  Bi2+  Bi94  1  0.70756167  0.84925639  0.29527352  1
  Bi2+  Bi95  1  0.79251518  0.87554818  0.79030709  1
  Bi2+  Bi96  1  0.11152452  0.07276715  0.21233357  1
  Bi2+  Bi97  1  0.10353400  0.02031702  0.70657545  1
  Bi2+  Bi98  1  0.10440506  0.27207702  0.19955490  1
  Bi2+  Bi99  1  0.11617420  0.28493476  0.72015323  1
  Bi2+  Bi100  1  0.09687946  0.46798663  0.21818191  1
  Bi2+  Bi101  1  0.12980281  0.50019638  0.70953320  1
  Bi2+  Bi102  1  0.20648760  0.69052934  0.23454538  1
  Bi2+  Bi103  1  0.09040548  0.76137993  0.71431731  1
  Bi2+  Bi104  1  0.35184192  -0.01233599  0.21384337  1
  Bi2+  Bi105  1  0.36092956  0.00047657  0.71132213  1
  Bi2+  Bi106  1  0.38275957  0.24258251  0.17775939  1
  Bi2+  Bi107  1  0.37636619  0.27842146  0.70928943  1
  Bi2+  Bi108  1  0.31594582  0.53182445  0.19674206  1
  Bi2+  Bi109  1  0.40927773  0.48250575  0.70278006  1
  Bi2+  Bi110  1  0.37426613  0.72963379  0.17044014  1
  Bi2+  Bi111  1  0.36097915  0.74070456  0.71239835  1
  Bi2+  Bi112  1  0.69383039  -0.02770117  0.21039897  1
  Bi2+  Bi113  1  0.64334791  0.01421944  0.70116995  1
  Bi2+  Bi114  1  0.64609974  0.23818885  0.20066165  1
  Bi2+  Bi115  1  0.56960700  0.27433887  0.73225073  1
  Bi2+  Bi116  1  0.69739684  0.48863644  0.20681660  1
  Bi2+  Bi117  1  0.67658938  0.45059153  0.70398494  1
  Bi2+  Bi118  1  0.55223493  0.79121309  0.20230531  1
  Bi2+  Bi119  1  0.68365368  0.73126704  0.74730294  1
  Bi2+  Bi120  1  0.92003660  -0.03313776  0.21907046  1
  Bi2+  Bi121  1  0.85613840  0.03536125  0.70484372  1
  Bi2+  Bi122  1  0.91225878  0.28496847  0.22259046  1
  Bi2+  Bi123  1  0.94332660  0.20165871  0.74423543  1
  Bi2+  Bi124  1  0.88340975  0.53711873  0.21526919  1
  Bi2+  Bi125  1  0.88713660  0.49297080  0.68550587  1
  Bi2+  Bi126  1  0.78676191  0.73977862  0.21653534  1
  Bi2+  Bi127  1  0.87006663  0.75720051  0.71536601  1
  S2-  S128  1  -0.01567133  0.06013296  0.13902989  1
  S2-  S129  1  -0.01357494  0.12514442  0.65055242  1
  S2-  S130  1  -0.01413503  0.47581123  0.14049343  1
  S2-  S131  1  0.02346065  0.39114433  0.65241628  1
  S2-  S132  1  -0.10757519  0.66534643  0.14971179  1
  S2-  S133  1  0.01163203  0.61504916  0.66375339  1
  S2-  S134  1  0.03910462  0.86084120  0.18430053  1
  S2-  S135  1  0.02633969  0.88533295  0.65708703  1
  S2-  S136  1  0.26134192  0.12035459  0.15950983  1
  S2-  S137  1  0.23972115  0.09518459  0.66568527  1
  S2-  S138  1  0.31217094  0.38893833  0.14315812  1
  S2-  S139  1  0.25286797  0.47898481  0.64542257  1
  S2-  S140  1  0.13934424  0.64084433  0.14819553  1
  S2-  S141  1  0.22138353  0.69259874  0.66343481  1
  S2-  S142  1  0.27679190  0.87405301  0.15638786  1
  S2-  S143  1  0.30006419  0.88256487  0.65795983  1
  S2-  S144  1  0.51950785  0.14460837  0.15892445  1
  S2-  S145  1  0.49547630  0.04727238  0.64414177  1
  S2-  S146  1  0.52408674  0.34668531  0.17678065  1
  S2-  S147  1  0.59863056  0.35391069  0.63545479  1
  S2-  S148  1  0.47756332  0.53994634  0.14078550  1
  S2-  S149  1  0.45388824  0.62460540  0.65483917  1
  S2-  S150  1  0.56349637  0.93595652  0.15031611  1
  S2-  S151  1  0.49051299  0.83360039  0.69761517  1
  S2-  S152  1  0.75537315  0.11296153  0.16495928  1
  S2-  S153  1  0.73742371  0.12733906  0.64973107  1
  S2-  S154  1  0.75436112  0.35299378  0.15321300  1
  S2-  S155  1  0.81097698  0.35827970  0.66189487  1
  S2-  S156  1  0.67557268  0.65014034  0.16212988  1
  S2-  S157  1  0.74394783  0.58475005  0.65478026  1
  S2-  S158  1  0.82379117  0.88665136  0.14732331  1
  S2-  S159  1  0.67413539  0.88374963  0.64276934  1
  S2-  S160  1  0.06438577  -0.02849513  0.34696457  1
  S2-  S161  1  0.21586138  0.01834352  0.84939483  1
  S2-  S162  1  0.20590431  0.25077371  0.35479419  1
  S2-  S163  1  0.10121846  0.26637626  0.84386540  1
  S2-  S164  1  0.18126229  0.52432012  0.35164946  1
  S2-  S165  1  0.02707639  0.53530117  0.85734724  1
  S2-  S166  1  0.05706388  0.73387380  0.35801769  1
  S2-  S167  1  0.20183797  0.74116274  0.85560770  1
  S2-  S168  1  0.38142735  0.07691984  0.34810455  1
  S2-  S169  1  0.38611870  -0.13423002  0.83783496  1
  S2-  S170  1  0.37894240  0.24233301  0.27280491  1
  S2-  S171  1  0.36958048  0.17572722  0.85124737  1
  S2-  S172  1  0.37502547  0.41094086  0.34685368  1
  S2-  S173  1  0.24459408  0.50572956  0.85658451  1
  S2-  S174  1  0.37774337  0.76015988  0.34946402  1
  S2-  S175  1  0.41144337  0.62687293  0.84883150  1
  S2-  S176  1  0.63734667  0.05536640  0.33609357  1
  S2-  S177  1  0.53215782  0.01776747  0.84545847  1
  S2-  S178  1  0.53480696  0.25179353  0.34274047  1
  S2-  S179  1  0.62753207  0.23229405  0.84173599  1
  S2-  S180  1  0.59289449  0.47969214  0.34037058  1
  S2-  S181  1  0.65216898  0.49494588  0.83963141  1
  S2-  S182  1  0.61956371  0.71969205  0.33664122  1
  S2-  S183  1  0.61993625  0.75232279  0.84687647  1
  S2-  S184  1  0.88194798  0.11086466  0.34541894  1
  S2-  S185  1  0.75592502  0.00612966  0.85426621  1
  S2-  S186  1  0.74985664  0.26913410  0.35311726  1
  S2-  S187  1  0.85186988  0.20660996  0.83521378  1
  S2-  S188  1  0.87702016  0.61618644  0.34968402  1
  S2-  S189  1  0.87441695  0.39966023  0.85144121  1
  S2-  S190  1  0.86565708  0.86555828  0.34801163  1
  S2-  S191  1  0.85059646  0.65764289  0.86521921  1
  S2-  S192  1  0.00659939  0.12473520  0.44864230  1
  S2-  S193  1  0.00303758  0.13150754  0.94503255  1
  S2-  S194  1  0.00148117  0.37037754  0.45061160  1
  S2-  S195  1  0.01057137  0.37999220  0.95408825  1
  S2-  S196  1  0.00285998  0.61874627  0.45775754  1
  S2-  S197  1  0.00872073  0.64008534  0.96583085  1
  S2-  S198  1  0.00479849  0.86672253  0.45616275  1
  S2-  S199  1  0.00599690  0.88752100  0.95931125  1
  S2-  S200  1  0.25392686  0.12268756  0.45729205  1
  S2-  S201  1  0.25680248  0.13022983  0.95472384  1
  S2-  S202  1  0.25253176  0.37257835  0.45970894  1
  S2-  S203  1  0.25675432  0.37446947  0.94811663  1
  S2-  S204  1  0.25297243  0.62303941  0.46242264  1
  S2-  S205  1  0.25589881  0.63912102  0.96078690  1
  S2-  S206  1  0.25008591  0.86896542  0.45361319  1
  S2-  S207  1  0.25857968  0.88526146  0.95187951  1
  S2-  S208  1  0.50102670  0.12242827  0.45041376  1
  S2-  S209  1  0.50392161  0.13131148  0.95454458  1
  S2-  S210  1  0.49961934  0.37089775  0.45122192  1
  S2-  S211  1  0.50041241  0.38586531  0.95089038  1
  S2-  S212  1  0.49989719  0.61987947  0.44891607  1
  S2-  S213  1  0.50406817  0.63618843  0.95567331  1
  S2-  S214  1  0.50222621  0.87386691  0.44173268  1
  S2-  S215  1  0.50151096  0.88196696  0.95179205  1
  S2-  S216  1  0.75400296  0.11704339  0.44799957  1
  S2-  S217  1  0.75853369  0.13952411  0.95489500  1
  S2-  S218  1  0.75323797  0.37759401  0.45617981  1
  S2-  S219  1  0.75243615  0.38630517  0.95221722  1
  S2-  S220  1  0.75347465  0.62471336  0.45005013  1
  S2-  S221  1  0.74981956  0.63523514  0.96417012  1
  S2-  S222  1  0.75255997  0.87320772  0.45012377  1
  S2-  S223  1  0.75640726  0.87869987  0.95244349  1
  S2-  S224  1  0.13090551  0.00794018  0.04734000  1
  S2-  S225  1  0.12462513  -0.00650568  0.54734474  1
  S2-  S226  1  0.13017779  0.25623546  0.04800203  1
  S2-  S227  1  0.12708961  0.24618299  0.55280258  1
  S2-  S228  1  0.13497955  0.50019704  0.04573411  1
  S2-  S229  1  0.12255828  0.49445081  0.54807132  1
  S2-  S230  1  0.12580808  0.76789741  0.05203943  1
  S2-  S231  1  0.12335817  0.74601873  0.55126705  1
  S2-  S232  1  0.38118515  0.01135854  0.05476822  1
  S2-  S233  1  0.37772710  -0.00985633  0.54541607  1
  S2-  S234  1  0.38219870  0.25621992  0.04551883  1
  S2-  S235  1  0.37617259  0.24593392  0.56227485  1
  S2-  S236  1  0.37361299  0.50781470  0.03596222  1
  S2-  S237  1  0.37985786  0.49206636  0.54356863  1
  S2-  S238  1  0.37865644  0.75757602  0.04553017  1
  S2-  S239  1  0.38081088  0.75308488  0.55363100  1
  S2-  S240  1  0.62966888  0.01369098  0.04049510  1
  S2-  S241  1  0.62506534  -0.00306307  0.53886892  1
  S2-  S242  1  0.62476029  0.26336119  0.04931521  1
  S2-  S243  1  0.62846889  0.23839166  0.53698783  1
  S2-  S244  1  0.63046797  0.50510417  0.04879692  1
  S2-  S245  1  0.62423832  0.49844352  0.54304564  1
  S2-  S246  1  0.63022331  0.75985387  0.05112945  1
  S2-  S247  1  0.62166772  0.74886894  0.54661011  1
  S2-  S248  1  0.87467453  0.01124078  0.03681399  1
  S2-  S249  1  0.87728619  -0.00572910  0.54155140  1
  S2-  S250  1  0.87954542  0.26009326  0.04488575  1
  S2-  S251  1  0.87212098  0.24329607  0.53962860  1
  S2-  S252  1  0.87672085  0.50423669  0.03915518  1
  S2-  S253  1  0.87416537  0.49390260  0.54180676  1
  S2-  S254  1  0.88103884  0.76644595  0.04791285  1
  S2-  S255  1  0.87649165  0.74894540  0.55102468  1
