# generated using pymatgen
data_La9Ce10Pr6Nd4Sm3(BiS2)32
_symmetry_space_group_name_H-M   'P 1'
_cell_length_a   16.14628435
_cell_length_b   16.06515047
_cell_length_c   27.27078621
_cell_angle_alpha   90.34594554
_cell_angle_beta   90.08231692
_cell_angle_gamma   90.11234162
_symmetry_Int_Tables_number   1
_chemical_formula_structural   La9Ce10Pr6Nd4Sm3(BiS2)32
_chemical_formula_sum   'La18 Ce20 Pr12 Nd8 Sm6 Bi64 S128'
_cell_volume   7073.68711121
_cell_formula_units_Z   2
loop_
 _symmetry_equiv_pos_site_id
 _symmetry_equiv_pos_as_xyz
  1  'x, y, z'
loop_
 _atom_type_symbol
 _atom_type_oxidation_number
  La3+  3.0
  Ce3+  3.0
  Pr3+  3.0
  Nd3+  3.0
  Sm3+  3.0
  Bi2+  2.0
  S2-  -2.0
loop_
 _atom_site_type_symbol
 _atom_site_label
 _atom_site_symmetry_multiplicity
 _atom_site_fract_x
 _atom_site_fract_y
 _atom_site_fract_z
 _atom_site_occupancy
  La3+  La0  1  0.24339220  0.89901013  0.06988518  1
  La3+  La1  1  0.49311307  0.40190560  0.06880777  1
  La3+  La2  1  0.24248239  0.62650439  0.56312034  1
  La3+  La3  1  0.23668659  0.40327666  0.06869838  1
  La3+  La4  1  0.75401840  0.64832086  0.08251004  1
  La3+  La5  1  0.86038234  0.76752095  0.92483812  1
  La3+  La6  1  0.11525815  0.73941993  0.40213183  1
  La3+  La7  1  0.48722538  0.86275696  0.57602249  1
  La3+  La8  1  -0.01026424  0.36919586  0.56592868  1
  La3+  La9  1  0.36139168  0.26792311  0.92730689  1
  La3+  La10  1  0.74539775  0.14704130  0.06736030  1
  La3+  La11  1  0.24009691  0.15832380  0.07895089  1
  La3+  La12  1  -0.01619194  0.12052988  0.56292636  1
  La3+  La13  1  0.74999470  0.62380630  0.57251346  1
  La3+  La14  1  0.86753364  0.02062234  0.92770955  1
  La3+  La15  1  0.85993026  0.74414169  0.40531774  1
  La3+  La16  1  0.49925354  0.90488226  0.06924662  1
  La3+  La17  1  0.23211381  0.12664712  0.58364386  1
  Ce3+  Ce18  1  0.86719258  -0.00248502  0.42565295  1
  Ce3+  Ce19  1  -0.00895491  0.62510760  0.55136897  1
  Ce3+  Ce20  1  0.86802444  0.49503750  0.43489464  1
  Ce3+  Ce21  1  -0.00826775  0.89698861  0.05517921  1
  Ce3+  Ce22  1  0.74341208  0.12232969  0.55236106  1
  Ce3+  Ce23  1  0.62283225  0.52506614  0.94548116  1
  Ce3+  Ce24  1  0.49411382  0.62141580  0.55437527  1
  Ce3+  Ce25  1  0.11485717  0.26259596  0.92629163  1
  Ce3+  Ce26  1  0.12286413  0.77219627  0.94582552  1
  Ce3+  Ce27  1  0.12431065  0.24003392  0.43045620  1
  Ce3+  Ce28  1  0.49099032  0.36386349  0.56684869  1
  Ce3+  Ce29  1  0.11981001  0.02198806  0.94216484  1
  Ce3+  Ce30  1  -0.01126376  0.86878259  0.54563138  1
  Ce3+  Ce31  1  0.61888412  0.77998107  0.93874668  1
  Ce3+  Ce32  1  0.61431727  0.02817429  0.93797962  1
  Ce3+  Ce33  1  0.24428338  0.64536698  0.06733986  1
  Ce3+  Ce34  1  0.12391715  0.52217195  0.93488792  1
  Ce3+  Ce35  1  0.24151257  0.36960809  0.56001352  1
  Ce3+  Ce36  1  0.36905800  0.77329565  0.94777020  1
  Ce3+  Ce37  1  0.86934661  0.24197985  0.42802145  1
  Pr3+  Pr38  1  0.61772562  0.49313838  0.43997838  1
  Pr3+  Pr39  1  -0.00658922  0.39908182  0.05309300  1
  Pr3+  Pr40  1  0.49663856  0.64775871  0.06727192  1
  Pr3+  Pr41  1  0.86620686  0.52551924  0.93512869  1
  Pr3+  Pr42  1  0.61423367  -0.00592800  0.44283072  1
  Pr3+  Pr43  1  0.60858305  0.24518120  0.43215829  1
  Pr3+  Pr44  1  0.75173145  0.86867833  0.56640929  1
  Pr3+  Pr45  1  0.48730570  0.15792672  0.07680086  1
  Pr3+  Pr46  1  0.74824040  0.89814291  0.06606159  1
  Pr3+  Pr47  1  0.11818010  -0.00590928  0.43237449  1
  Pr3+  Pr48  1  0.74636621  0.39543565  0.06915686  1
  Pr3+  Pr49  1  0.36465895  0.49570796  0.44130447  1
  Nd3+  Nd50  1  0.36595642  -0.01050396  0.43801772  1
  Nd3+  Nd51  1  0.86660980  0.27976471  0.92532730  1
  Nd3+  Nd52  1  0.36574284  0.74651394  0.43031351  1
  Nd3+  Nd53  1  0.48836414  0.11770022  0.57589917  1
  Nd3+  Nd54  1  -0.00425508  0.14951046  0.06200107  1
  Nd3+  Nd55  1  0.74386227  0.37547490  0.56318332  1
  Nd3+  Nd56  1  0.37335355  0.51986987  0.93746684  1
  Nd3+  Nd57  1  0.61964657  0.74602490  0.43900108  1
  Sm3+  Sm58  1  0.61435736  0.26989519  0.94224608  1
  Sm3+  Sm59  1  -0.00786989  0.64947214  0.05606888  1
  Sm3+  Sm60  1  0.24052170  0.87832443  0.56101442  1
  Sm3+  Sm61  1  0.11526487  0.49338538  0.43842147  1
  Sm3+  Sm62  1  0.36359622  0.23925920  0.43670958  1
  Sm3+  Sm63  1  0.36727390  0.02791922  0.94973069  1
  Bi2+  Bi64  1  0.00179012  0.19388451  0.29128288  1
  Bi2+  Bi65  1  -0.00370955  0.04679820  0.80873077  1
  Bi2+  Bi66  1  -0.07937657  0.37391427  0.32403230  1
  Bi2+  Bi67  1  0.00148802  0.35987995  0.77216581  1
  Bi2+  Bi68  1  -0.00691313  0.59053460  0.28425785  1
  Bi2+  Bi69  1  -0.00381084  0.64653244  0.77583398  1
  Bi2+  Bi70  1  0.01442449  0.90305711  0.28481244  1
  Bi2+  Bi71  1  -0.00054172  0.88916132  0.72718928  1
  Bi2+  Bi72  1  0.24217770  0.14139836  0.28956687  1
  Bi2+  Bi73  1  0.26509168  0.16775630  0.79572503  1
  Bi2+  Bi74  1  0.11639169  0.37739627  0.31966400  1
  Bi2+  Bi75  1  0.31367413  0.41537350  0.78757982  1
  Bi2+  Bi76  1  0.25855209  0.68574245  0.30253741  1
  Bi2+  Bi77  1  0.23394498  0.68795540  0.82313177  1
  Bi2+  Bi78  1  0.28781227  0.94446752  0.29387599  1
  Bi2+  Bi79  1  0.24815417  0.88698381  0.79529418  1
  Bi2+  Bi80  1  0.53021989  0.12145945  0.30588055  1
  Bi2+  Bi81  1  0.51024081  0.06258579  0.79806199  1
  Bi2+  Bi82  1  0.46848615  0.38454165  0.28773683  1
  Bi2+  Bi83  1  0.58444275  0.31861531  0.80058365  1
  Bi2+  Bi84  1  0.45187047  0.63917174  0.30056129  1
  Bi2+  Bi85  1  0.49602953  0.58205679  0.76732461  1
  Bi2+  Bi86  1  0.50411693  0.82216504  0.27716898  1
  Bi2+  Bi87  1  0.51978522  0.86900287  0.77333639  1
  Bi2+  Bi88  1  0.77240703  0.13604687  0.26901022  1
  Bi2+  Bi89  1  0.82445360  0.14044447  0.81807959  1
  Bi2+  Bi90  1  0.72768738  0.37423459  0.28665528  1
  Bi2+  Bi91  1  0.77593421  0.31893269  0.77580564  1
  Bi2+  Bi92  1  0.72802312  0.60495617  0.28187194  1
  Bi2+  Bi93  1  0.74600857  0.56750426  0.80940398  1
  Bi2+  Bi94  1  0.71802784  0.87136558  0.28799384  1
  Bi2+  Bi95  1  0.73773022  0.85381452  0.79796022  1
  Bi2+  Bi96  1  0.10512657  0.01721120  0.20865249  1
  Bi2+  Bi97  1  0.14890873  0.02681631  0.73618109  1
  Bi2+  Bi98  1  0.13200730  0.30864851  0.21811714  1
  Bi2+  Bi99  1  0.14414721  0.25698458  0.72259218  1
  Bi2+  Bi100  1  0.08304962  0.56754641  0.18658910  1
  Bi2+  Bi101  1  0.13061351  0.52416720  0.73032084  1
  Bi2+  Bi102  1  0.14497571  0.74264553  0.21503024  1
  Bi2+  Bi103  1  0.14191626  0.74751608  0.72418314  1
  Bi2+  Bi104  1  0.39845733  -0.00872903  0.20737648  1
  Bi2+  Bi105  1  0.35939752  -0.02627117  0.69618735  1
  Bi2+  Bi106  1  0.37672263  0.25603303  0.22164930  1
  Bi2+  Bi107  1  0.40325362  0.25721809  0.70774187  1
  Bi2+  Bi108  1  0.32141122  0.51195288  0.24398676  1
  Bi2+  Bi109  1  0.42692613  0.45032364  0.68869537  1
  Bi2+  Bi110  1  0.32625753  0.68957215  0.19243795  1
  Bi2+  Bi111  1  0.35966840  0.69529808  0.70102221  1
  Bi2+  Bi112  1  0.64449193  -0.04432037  0.20003632  1
  Bi2+  Bi113  1  0.65537715  -0.03526269  0.70910865  1
  Bi2+  Bi114  1  0.61977494  0.22610560  0.21061708  1
  Bi2+  Bi115  1  0.65677126  0.15763487  0.74383725  1
  Bi2+  Bi116  1  0.60714704  0.47375679  0.20719534  1
  Bi2+  Bi117  1  0.61614627  0.44244049  0.71361581  1
  Bi2+  Bi118  1  0.58158608  0.66989291  0.21363901  1
  Bi2+  Bi119  1  0.61207742  0.71842156  0.72295291  1
  Bi2+  Bi120  1  0.90023201  0.01211441  0.21401950  1
  Bi2+  Bi121  1  0.84684217  0.02586760  0.72312651  1
  Bi2+  Bi122  1  0.89757090  0.22271005  0.19148166  1
  Bi2+  Bi123  1  0.93504419  0.21807548  0.69988230  1
  Bi2+  Bi124  1  0.87337731  0.41487088  0.21486110  1
  Bi2+  Bi125  1  0.88368300  0.48094176  0.69151800  1
  Bi2+  Bi126  1  0.87692002  0.76753982  0.20645460  1
  Bi2+  Bi127  1  0.86301571  0.74999755  0.70678603  1
  S2-  S128  1  0.09934899  0.14143389  0.14619357  1
  S2-  S129  1  0.07619336  0.15405669  0.64796691  1
  S2-  S130  1  0.06114973  0.40531615  0.14683308  1
  S2-  S131  1  0.04503500  0.44258584  0.65940213  1
  S2-  S132  1  -0.08298612  0.64808689  0.14594783  1
  S2-  S133  1  -0.08971430  0.62622889  0.63892388  1
  S2-  S134  1  -0.02333137  0.88528664  0.15301250  1
  S2-  S135  1  -0.09113702  0.87511093  0.63362139  1
  S2-  S136  1  0.35513443  0.12414804  0.15621750  1
  S2-  S137  1  0.21025866  -0.01895686  0.64398144  1
  S2-  S138  1  0.25792078  0.30247598  0.15180466  1
  S2-  S139  1  0.24787289  0.29895957  0.64865769  1
  S2-  S140  1  0.24445007  0.53621783  0.14456253  1
  S2-  S141  1  0.24980121  0.57916582  0.66105460  1
  S2-  S142  1  0.24662781  0.92841880  0.16980151  1
  S2-  S143  1  0.33803773  0.82618114  0.64198882  1
  S2-  S144  1  0.56384137  0.08070861  0.16044562  1
  S2-  S145  1  0.36388345  0.12262547  0.65313555  1
  S2-  S146  1  0.49617251  0.29396493  0.15059655  1
  S2-  S147  1  0.52654674  0.25298064  0.64126710  1
  S2-  S148  1  0.48912444  0.53142957  0.14532922  1
  S2-  S149  1  0.50190678  0.70352922  0.64159147  1
  S2-  S150  1  0.49512147  0.86193436  0.16738691  1
  S2-  S151  1  0.51130258  0.98549428  0.64878264  1
  S2-  S152  1  0.76764773  0.01910750  0.14271865  1
  S2-  S153  1  0.84392634  0.11491914  0.63319061  1
  S2-  S154  1  0.74208315  0.26715932  0.14426761  1
  S2-  S155  1  0.85920937  0.33897069  0.63882247  1
  S2-  S156  1  0.74735277  0.50774329  0.15010656  1
  S2-  S157  1  0.72986806  0.49726978  0.64501290  1
  S2-  S158  1  0.74936195  0.78840044  0.14990108  1
  S2-  S159  1  0.72642820  0.75370867  0.64619225  1
  S2-  S160  1  0.11155184  0.11513903  0.35569185  1
  S2-  S161  1  0.13450721  0.11222653  0.85975395  1
  S2-  S162  1  0.25046164  0.26724868  0.35734593  1
  S2-  S163  1  0.22751114  0.30809509  0.85428312  1
  S2-  S164  1  0.12468184  0.57491214  0.34983679  1
  S2-  S165  1  0.11077197  0.54969086  0.83771255  1
  S2-  S166  1  0.14770526  0.89097605  0.34750300  1
  S2-  S167  1  0.12043787  0.82086509  0.85161413  1
  S2-  S168  1  0.37372364  0.07689272  0.34856758  1
  S2-  S169  1  0.37685727  0.11162943  0.86213821  1
  S2-  S170  1  0.47675523  0.26252192  0.35990854  1
  S2-  S171  1  0.43280258  0.33879764  0.84096177  1
  S2-  S172  1  0.35091764  0.46543363  0.34152882  1
  S2-  S173  1  0.35023322  0.55435493  0.83968624  1
  S2-  S174  1  0.39603413  0.86440669  0.35703079  1
  S2-  S175  1  0.36803490  0.79152280  0.84988022  1
  S2-  S176  1  0.61148974  -0.00651777  0.33996326  1
  S2-  S177  1  0.60712205  -0.09202779  0.86349716  1
  S2-  S178  1  0.67430929  0.22447499  0.33635510  1
  S2-  S179  1  0.60422424  0.15195640  0.86558905  1
  S2-  S180  1  0.62799081  0.49090811  0.33856342  1
  S2-  S181  1  0.60463833  0.51454613  0.84670838  1
  S2-  S182  1  0.70201554  0.73601976  0.34960415  1
  S2-  S183  1  0.70003486  0.71645557  0.85786153  1
  S2-  S184  1  0.85564720  -0.10122767  0.34386784  1
  S2-  S185  1  0.86811154  -0.10749837  0.85184453  1
  S2-  S186  1  0.87261204  0.12414639  0.35294508  1
  S2-  S187  1  0.99066256  0.27095730  0.85322215  1
  S2-  S188  1  0.85384923  0.58257473  0.34946698  1
  S2-  S189  1  0.82261290  0.42363726  0.85182230  1
  S2-  S190  1  0.98715936  0.74048256  0.32920262  1
  S2-  S191  1  0.88747266  0.63690987  0.85262682  1
  S2-  S192  1  -0.00869082  0.12097873  0.45506144  1
  S2-  S193  1  -0.01070880  0.14444481  0.95606412  1
  S2-  S194  1  -0.00470997  0.36831788  0.45272799  1
  S2-  S195  1  -0.00455432  0.40262782  0.94785679  1
  S2-  S196  1  -0.00533876  0.62060884  0.44812722  1
  S2-  S197  1  -0.00069820  0.64847983  0.95279840  1
  S2-  S198  1  -0.00627212  0.86402925  0.44274366  1
  S2-  S199  1  -0.00357038  0.89541568  0.95174948  1
  S2-  S200  1  0.24537032  0.11591653  0.45943082  1
  S2-  S201  1  0.24113347  0.14512018  0.96563042  1
  S2-  S202  1  0.24099353  0.37373983  0.45699044  1
  S2-  S203  1  0.24581571  0.40340323  0.95771303  1
  S2-  S204  1  0.24040200  0.62354778  0.45294016  1
  S2-  S205  1  0.24747456  0.64721769  0.95869883  1
  S2-  S206  1  0.23917601  0.86217395  0.45624652  1
  S2-  S207  1  0.24682687  0.90008518  0.96021824  1
  S2-  S208  1  0.48916996  0.11787772  0.46180855  1
  S2-  S209  1  0.48980697  0.15082369  0.96768407  1
  S2-  S210  1  0.48785015  0.37292912  0.45966584  1
  S2-  S211  1  0.49685085  0.39814889  0.95724092  1
  S2-  S212  1  0.49230611  0.62124130  0.44651403  1
  S2-  S213  1  0.49554091  0.64996579  0.95592893  1
  S2-  S214  1  0.49454452  0.86637353  0.46161528  1
  S2-  S215  1  0.48696032  0.90237429  0.96157250  1
  S2-  S216  1  0.73774217  0.12084437  0.44884635  1
  S2-  S217  1  0.74779634  0.15257997  0.95622167  1
  S2-  S218  1  0.74231134  0.36930241  0.44945703  1
  S2-  S219  1  0.73866654  0.39317438  0.96045361  1
  S2-  S220  1  0.74025480  0.61759648  0.45732491  1
  S2-  S221  1  0.74275671  0.64682459  0.96688311  1
  S2-  S222  1  0.74124906  0.87099183  0.45347227  1
  S2-  S223  1  0.74238267  0.90175704  0.95934902  1
  S2-  S224  1  0.11802718  0.01982651  0.04725540  1
  S2-  S225  1  0.11073031  -0.00451091  0.54004255  1
  S2-  S226  1  0.11553473  0.27435519  0.03822809  1
  S2-  S227  1  0.11585215  0.24860046  0.53979042  1
  S2-  S228  1  0.11515080  0.52965595  0.04047454  1
  S2-  S229  1  0.11757492  0.49872779  0.54290560  1
  S2-  S230  1  0.11856781  0.77055729  0.05412840  1
  S2-  S231  1  0.11672499  0.75051720  0.56028982  1
  S2-  S232  1  0.36777596  0.02379598  0.05239336  1
  S2-  S233  1  0.36655573  -0.00570406  0.54481242  1
  S2-  S234  1  0.36554975  0.27955961  0.04360619  1
  S2-  S235  1  0.36539429  0.24602435  0.54333515  1
  S2-  S236  1  0.36849039  0.52706326  0.04298796  1
  S2-  S237  1  0.36793380  0.49629943  0.54823954  1
  S2-  S238  1  0.37074271  0.77320211  0.05537020  1
  S2-  S239  1  0.36759972  0.74188176  0.53498250  1
  S2-  S240  1  0.61971522  0.02614619  0.04465019  1
  S2-  S241  1  0.62362179  -0.00593332  0.54900909  1
  S2-  S242  1  0.61865255  0.27407550  0.04487717  1
  S2-  S243  1  0.62421081  0.24840113  0.53942947  1
  S2-  S244  1  0.62320834  0.52541770  0.04891346  1
  S2-  S245  1  0.61225075  0.49434368  0.54621310  1
  S2-  S246  1  0.61794270  0.77295321  0.04893091  1
  S2-  S247  1  0.62005209  0.74603525  0.54195507  1
  S2-  S248  1  0.87528104  0.02442910  0.03911068  1
  S2-  S249  1  0.86383748  -0.00583700  0.53136591  1
  S2-  S250  1  0.87280251  0.27268991  0.03978792  1
  S2-  S251  1  0.86302994  0.24821307  0.53221707  1
  S2-  S252  1  0.87151776  0.52303045  0.04231371  1
  S2-  S253  1  0.86999865  0.49566059  0.53863662  1
  S2-  S254  1  0.87185297  0.77327407  0.03827322  1
  S2-  S255  1  0.86733241  0.74503732  0.53194763  1
