# generated using pymatgen
data_La9Ce10Pr6Nd4Sm3(BiS2)32
_symmetry_space_group_name_H-M   'P 1'
_cell_length_a   16.20985070
_cell_length_b   16.16376847
_cell_length_c   27.08511255
_cell_angle_alpha   90.27898728
_cell_angle_beta   90.11805646
_cell_angle_gamma   89.94182111
_symmetry_Int_Tables_number   1
_chemical_formula_structural   La9Ce10Pr6Nd4Sm3(BiS2)32
_chemical_formula_sum   'La18 Ce20 Pr12 Nd8 Sm6 Bi64 S128'
_cell_volume   7096.52914176
_cell_formula_units_Z   2
loop_
 _symmetry_equiv_pos_site_id
 _symmetry_equiv_pos_as_xyz
  1  'x, y, z'
loop_
 _atom_type_symbol
 _atom_type_oxidation_number
  La3+  3.0
  Ce3+  3.0
  Pr3+  3.0
  Nd3+  3.0
  Sm3+  3.0
  Bi2+  2.0
  S2-  -2.0
loop_
 _atom_site_type_symbol
 _atom_site_label
 _atom_site_symmetry_multiplicity
 _atom_site_fract_x
 _atom_site_fract_y
 _atom_site_fract_z
 _atom_site_occupancy
  La3+  La0  1  0.49755655  0.12412867  0.06919070  1
  La3+  La1  1  0.88457236  0.23045631  0.44287440  1
  La3+  La2  1  0.13763875  0.73446993  0.43717340  1
  La3+  La3  1  0.12772475  0.22570202  0.41388483  1
  La3+  La4  1  0.74614919  0.63027924  0.07324612  1
  La3+  La5  1  0.50890201  0.85855296  0.55821336  1
  La3+  La6  1  0.64307424  0.47822847  0.40906508  1
  La3+  La7  1  0.01746243  0.61357018  0.57679335  1
  La3+  La8  1  -0.00171122  0.11781825  0.06662728  1
  La3+  La9  1  0.49539090  0.61353659  0.07337035  1
  La3+  La10  1  0.13359382  0.73825952  0.91692691  1
  La3+  La11  1  0.89044397  0.48811237  0.43526129  1
  La3+  La12  1  0.24438307  0.37057056  0.11030464  1
  La3+  La13  1  0.26495745  0.86596714  0.57352427  1
  La3+  La14  1  0.61497867  0.24346949  0.92482418  1
  La3+  La15  1  0.61939637  0.48960639  0.93845056  1
  La3+  La16  1  0.86489054  0.73845074  0.91904789  1
  La3+  La17  1  0.64416244  0.74670710  0.40225534  1
  Ce3+  Ce18  1  0.51075979  0.11498163  0.55934913  1
  Ce3+  Ce19  1  0.24752552  0.86755628  0.06650185  1
  Ce3+  Ce20  1  0.51368690  0.60911136  0.53339374  1
  Ce3+  Ce21  1  -0.00051124  0.37228721  0.06340569  1
  Ce3+  Ce22  1  0.37224439  0.74198203  0.94695179  1
  Ce3+  Ce23  1  0.38030340  0.73460323  0.43234136  1
  Ce3+  Ce24  1  0.75644748  0.11268215  0.56971639  1
  Ce3+  Ce25  1  0.74672645  0.11950430  0.05760509  1
  Ce3+  Ce26  1  0.01091549  0.36530133  0.56725295  1
  Ce3+  Ce27  1  0.76117975  0.85681006  0.56533567  1
  Ce3+  Ce28  1  0.74770296  0.37762273  0.07107498  1
  Ce3+  Ce29  1  0.37003792  0.24615807  0.94642412  1
  Ce3+  Ce30  1  0.62303487  0.73769645  0.93355784  1
  Ce3+  Ce31  1  0.25957080  0.11796180  0.56402860  1
  Ce3+  Ce32  1  0.13759133  0.48236545  0.44405061  1
  Ce3+  Ce33  1  0.87258452  0.24431664  0.94815027  1
  Ce3+  Ce34  1  0.38258615  -0.01038949  0.43607982  1
  Ce3+  Ce35  1  0.24647676  0.12239259  0.06242212  1
  Ce3+  Ce36  1  0.13240170  -0.01457533  0.45139941  1
  Ce3+  Ce37  1  0.62198944  -0.00531343  0.93215325  1
  Pr3+  Pr38  1  0.01514657  0.85822414  0.58711428  1
  Pr3+  Pr39  1  0.36822194  0.48929265  0.94908614  1
  Pr3+  Pr40  1  0.50133479  0.36469392  0.07934126  1
  Pr3+  Pr41  1  0.38497280  0.47620532  0.41944831  1
  Pr3+  Pr42  1  -0.00196009  0.62573374  0.05488797  1
  Pr3+  Pr43  1  0.38343058  0.23131352  0.43615747  1
  Pr3+  Pr44  1  0.63657328  -0.01624097  0.44265232  1
  Pr3+  Pr45  1  0.00975166  0.11426769  0.57671864  1
  Pr3+  Pr46  1  0.88750941  -0.01634109  0.45646482  1
  Pr3+  Pr47  1  0.75870557  0.36758025  0.55999647  1
  Pr3+  Pr48  1  0.74203418  0.87694985  0.06777815  1
  Pr3+  Pr49  1  0.51187627  0.37249596  0.56045182  1
  Nd3+  Nd50  1  0.87139630  0.49334308  0.94037486  1
  Nd3+  Nd51  1  0.26709360  0.60417003  0.56442220  1
  Nd3+  Nd52  1  0.89152324  0.73879350  0.43599558  1
  Nd3+  Nd53  1  0.12298721  -0.00703787  0.93933219  1
  Nd3+  Nd54  1  0.63646779  0.23465723  0.43755396  1
  Nd3+  Nd55  1  0.87122149  -0.00773745  0.93349208  1
  Nd3+  Nd56  1  0.37080897  -0.00678055  0.94443276  1
  Nd3+  Nd57  1  0.24343528  0.62280282  0.06856677  1
  Sm3+  Sm58  1  -0.00324218  0.86750817  0.04559342  1
  Sm3+  Sm59  1  0.12157016  0.49410738  0.94084032  1
  Sm3+  Sm60  1  0.75811426  0.61353365  0.54986459  1
  Sm3+  Sm61  1  0.26142673  0.36221382  0.55760613  1
  Sm3+  Sm62  1  0.50073890  0.87104847  0.05266346  1
  Sm3+  Sm63  1  0.11985786  0.24345460  0.94159783  1
  Bi2+  Bi64  1  -0.03490875  0.09358155  0.31030505  1
  Bi2+  Bi65  1  -0.04696810  0.16196870  0.78402884  1
  Bi2+  Bi66  1  -0.01105188  0.35662268  0.27677900  1
  Bi2+  Bi67  1  0.03889447  0.38853248  0.80906483  1
  Bi2+  Bi68  1  -0.05680482  0.62955099  0.30269145  1
  Bi2+  Bi69  1  -0.00284276  0.57257269  0.78700630  1
  Bi2+  Bi70  1  0.00341780  0.88473615  0.28903838  1
  Bi2+  Bi71  1  0.00253306  0.91890271  0.78971564  1
  Bi2+  Bi72  1  0.25090868  0.09202016  0.29608035  1
  Bi2+  Bi73  1  0.21867293  0.19691563  0.77817459  1
  Bi2+  Bi74  1  0.25272127  0.41003685  0.29783255  1
  Bi2+  Bi75  1  0.24133527  0.39215175  0.78842878  1
  Bi2+  Bi76  1  0.16451886  0.64839288  0.28729166  1
  Bi2+  Bi77  1  0.27580066  0.59218059  0.79984031  1
  Bi2+  Bi78  1  0.26031150  0.87831416  0.28926583  1
  Bi2+  Bi79  1  0.24910695  0.89265322  0.81091212  1
  Bi2+  Bi80  1  0.59140867  0.07341976  0.31269496  1
  Bi2+  Bi81  1  0.47467348  0.18683712  0.76705275  1
  Bi2+  Bi82  1  0.50020039  0.38830493  0.29155946  1
  Bi2+  Bi83  1  0.50515493  0.38957942  0.80096751  1
  Bi2+  Bi84  1  0.42681638  0.73504030  0.30067876  1
  Bi2+  Bi85  1  0.52795032  0.69658740  0.78381905  1
  Bi2+  Bi86  1  0.44987528  0.92630545  0.27808088  1
  Bi2+  Bi87  1  0.50247880  0.90267782  0.79483470  1
  Bi2+  Bi88  1  0.77205301  0.15407281  0.32818067  1
  Bi2+  Bi89  1  0.71584425  0.11465260  0.77270681  1
  Bi2+  Bi90  1  0.76583215  0.34423133  0.28487825  1
  Bi2+  Bi91  1  0.84633936  0.37120705  0.78040937  1
  Bi2+  Bi92  1  0.74934084  0.61347817  0.28901125  1
  Bi2+  Bi93  1  0.73252531  0.63092736  0.79090679  1
  Bi2+  Bi94  1  0.74135471  0.96688908  0.27195602  1
  Bi2+  Bi95  1  0.69600794  0.92386055  0.80629810  1
  Bi2+  Bi96  1  0.15282182  -0.01121453  0.21218905  1
  Bi2+  Bi97  1  0.11217403  0.01152317  0.69864583  1
  Bi2+  Bi98  1  0.11425042  0.23614479  0.21889599  1
  Bi2+  Bi99  1  0.17416338  0.26817140  0.67103115  1
  Bi2+  Bi100  1  0.05478022  0.52254501  0.22824706  1
  Bi2+  Bi101  1  0.16490316  0.48199577  0.69540034  1
  Bi2+  Bi102  1  0.10840169  0.78546177  0.20988415  1
  Bi2+  Bi103  1  0.11749025  0.73720957  0.71638493  1
  Bi2+  Bi104  1  0.33942507  -0.02495042  0.17412383  1
  Bi2+  Bi105  1  0.33828168  0.05449450  0.74410874  1
  Bi2+  Bi106  1  0.37964771  0.15200073  0.21384464  1
  Bi2+  Bi107  1  0.35695480  0.30396550  0.70566403  1
  Bi2+  Bi108  1  0.35375914  0.54564041  0.21411437  1
  Bi2+  Bi109  1  0.41309466  0.58024906  0.71869248  1
  Bi2+  Bi110  1  0.37865570  0.78451297  0.19705938  1
  Bi2+  Bi111  1  0.36710723  0.77126615  0.72396033  1
  Bi2+  Bi112  1  0.61028008  0.04148757  0.19348987  1
  Bi2+  Bi113  1  0.58731629  -0.01831708  0.70072508  1
  Bi2+  Bi114  1  0.64928310  0.22423266  0.22012649  1
  Bi2+  Bi115  1  0.62800652  0.24339258  0.69610952  1
  Bi2+  Bi116  1  0.62759426  0.49980453  0.20087838  1
  Bi2+  Bi117  1  0.61935300  0.49145826  0.68868467  1
  Bi2+  Bi118  1  0.64050081  0.78063370  0.20739509  1
  Bi2+  Bi119  1  0.56040971  0.79286732  0.68522655  1
  Bi2+  Bi120  1  0.89909041  -0.00156157  0.20209389  1
  Bi2+  Bi121  1  0.78896301  -0.03522279  0.70442685  1
  Bi2+  Bi122  1  0.84739384  0.20064591  0.21375767  1
  Bi2+  Bi123  1  0.98403443  0.31591349  0.70178969  1
  Bi2+  Bi124  1  0.87497314  0.39340784  0.18869602  1
  Bi2+  Bi125  1  0.86345897  0.52411864  0.70958941  1
  Bi2+  Bi126  1  0.90584758  0.74517914  0.21030641  1
  Bi2+  Bi127  1  0.86476862  0.73242834  0.73166012  1
  S2-  S128  1  0.03792967  0.10748461  0.16566343  1
  S2-  S129  1  -0.00058770  0.13791273  0.67901667  1
  S2-  S130  1  0.08117113  0.35509836  0.15063603  1
  S2-  S131  1  -0.00017329  0.47602572  0.64502095  1
  S2-  S132  1  -0.01604906  0.61595157  0.15705013  1
  S2-  S133  1  -0.02339117  0.72491178  0.65537334  1
  S2-  S134  1  -0.02090684  0.87189291  0.14467348  1
  S2-  S135  1  -0.02813295  0.93628658  0.68147144  1
  S2-  S136  1  0.24241420  0.20096662  0.15216489  1
  S2-  S137  1  0.26979704  0.04514253  0.65234346  1
  S2-  S138  1  0.31635603  0.38170434  0.21013620  1
  S2-  S139  1  0.29185769  0.46959482  0.63422539  1
  S2-  S140  1  0.22676218  0.53460277  0.15520964  1
  S2-  S141  1  0.16375105  0.63269636  0.64711520  1
  S2-  S142  1  0.23089808  0.75270840  0.14023721  1
  S2-  S143  1  0.15814645  0.85677244  0.65608887  1
  S2-  S144  1  0.47623385  0.22867861  0.15149584  1
  S2-  S145  1  0.51127430  0.12030452  0.65718332  1
  S2-  S146  1  0.47845737  0.49298659  0.15276119  1
  S2-  S147  1  0.50752915  0.35787160  0.66206970  1
  S2-  S148  1  0.60625270  0.65179673  0.15170700  1
  S2-  S149  1  0.50296851  0.56706271  0.62913478  1
  S2-  S150  1  0.58342530  0.88359235  0.14021106  1
  S2-  S151  1  0.40351333  0.85668586  0.64034490  1
  S2-  S152  1  0.76097927  0.01679695  0.13731186  1
  S2-  S153  1  0.76386655  0.13682799  0.66778353  1
  S2-  S154  1  0.64177887  0.35231686  0.14905377  1
  S2-  S155  1  0.72580950  0.36256370  0.65987768  1
  S2-  S156  1  0.77218799  0.51040328  0.14800676  1
  S2-  S157  1  0.73325603  0.58300274  0.64806474  1
  S2-  S158  1  0.77592085  0.76412227  0.14489866  1
  S2-  S159  1  0.75628239  0.81274795  0.66156874  1
  S2-  S160  1  0.11407086  0.06234307  0.36333533  1
  S2-  S161  1  0.13786664  0.00161661  0.83862810  1
  S2-  S162  1  0.18886938  0.25909371  0.31802355  1
  S2-  S163  1  0.08240251  0.22030258  0.84508036  1
  S2-  S164  1  0.12814749  0.51000318  0.34715869  1
  S2-  S165  1  0.13287464  0.58643739  0.85583501  1
  S2-  S166  1  0.01707335  0.75341036  0.36243109  1
  S2-  S167  1  0.11687251  0.79454079  0.81802055  1
  S2-  S168  1  0.37730466  0.10253045  0.36084191  1
  S2-  S169  1  0.38389493  0.00275185  0.84486782  1
  S2-  S170  1  0.38431662  0.33306048  0.35223944  1
  S2-  S171  1  0.45051443  0.25449786  0.85970138  1
  S2-  S172  1  0.37691085  0.53283876  0.32062170  1
  S2-  S173  1  0.40592648  0.49775967  0.84908703  1
  S2-  S174  1  0.25842705  0.73552891  0.35787831  1
  S2-  S175  1  0.30538787  0.74140292  0.85708706  1
  S2-  S176  1  0.64816394  -0.08998824  0.35097910  1
  S2-  S177  1  0.62124316  0.10494817  0.85537366  1
  S2-  S178  1  0.61301103  0.32437143  0.35161657  1
  S2-  S179  1  0.63346114  0.37612471  0.85708907  1
  S2-  S180  1  0.60001385  0.51479915  0.30797555  1
  S2-  S181  1  0.60962425  0.60816409  0.86238539  1
  S2-  S182  1  0.59189628  0.71821734  0.30339200  1
  S2-  S183  1  0.72477946  0.77481118  0.85308247  1
  S2-  S184  1  0.89568688  -0.04364404  0.35586187  1
  S2-  S185  1  0.89832770  0.02971195  0.83528607  1
  S2-  S186  1  0.97784915  0.25282511  0.35716223  1
  S2-  S187  1  0.84784221  0.24448926  0.84991047  1
  S2-  S188  1  0.80043822  0.47528962  0.34863837  1
  S2-  S189  1  0.86313358  0.58534292  0.85389860  1
  S2-  S190  1  0.79654220  0.73323525  0.34786547  1
  S2-  S191  1  0.91619132  0.79874633  0.82230790  1
  S2-  S192  1  0.00932688  0.11119906  0.46852645  1
  S2-  S193  1  -0.00198925  0.11745192  0.95602599  1
  S2-  S194  1  0.01180865  0.35984843  0.45874835  1
  S2-  S195  1  -0.00102452  0.36995461  0.95423910  1
  S2-  S196  1  0.01362023  0.60824851  0.46053531  1
  S2-  S197  1  -0.00116215  0.61974905  0.94936404  1
  S2-  S198  1  0.01234953  0.86249543  0.47064994  1
  S2-  S199  1  -0.00054632  0.86786478  0.94072753  1
  S2-  S200  1  0.25281706  0.11339945  0.45964295  1
  S2-  S201  1  0.24489240  0.11990950  0.95227971  1
  S2-  S202  1  0.25201217  0.35114926  0.45237655  1
  S2-  S203  1  0.23969687  0.36678286  0.93991504  1
  S2-  S204  1  0.26359467  0.60295705  0.45414197  1
  S2-  S205  1  0.24812068  0.61674133  0.96113047  1
  S2-  S206  1  0.26223231  0.86744826  0.45882166  1
  S2-  S207  1  0.24722325  0.87018313  0.95734702  1
  S2-  S208  1  0.51467431  0.11103598  0.45432528  1
  S2-  S209  1  0.49145926  0.11798340  0.95987287  1
  S2-  S210  1  0.51167067  0.35827129  0.45339873  1
  S2-  S211  1  0.49324858  0.36677881  0.96744934  1
  S2-  S212  1  0.51464383  0.61317511  0.42866643  1
  S2-  S213  1  0.48931023  0.61684612  0.96399523  1
  S2-  S214  1  0.50661760  0.85974398  0.44756974  1
  S2-  S215  1  0.49674452  0.86822943  0.94723965  1
  S2-  S216  1  0.75856544  0.10822923  0.46205775  1
  S2-  S217  1  0.75087398  0.11869822  0.95283457  1
  S2-  S218  1  0.76360640  0.35699524  0.45213723  1
  S2-  S219  1  0.75277915  0.36793447  0.96112265  1
  S2-  S220  1  0.75855535  0.61335434  0.44625111  1
  S2-  S221  1  0.74864235  0.61596202  0.96162125  1
  S2-  S222  1  0.76186698  0.85886044  0.45856584  1
  S2-  S223  1  0.74607278  0.87541031  0.95624376  1
  S2-  S224  1  0.12328285  -0.00774664  0.04795008  1
  S2-  S225  1  0.13340550  -0.00889410  0.55572032  1
  S2-  S226  1  0.12226896  0.24512759  0.04534318  1
  S2-  S227  1  0.13381674  0.24032331  0.55356645  1
  S2-  S228  1  0.12058408  0.49532506  0.04504577  1
  S2-  S229  1  0.13729061  0.48289313  0.54646308  1
  S2-  S230  1  0.12121722  0.74829977  0.03529392  1
  S2-  S231  1  0.14286832  0.73789644  0.54525794  1
  S2-  S232  1  0.37428768  -0.00511497  0.05019967  1
  S2-  S233  1  0.38721859  -0.00617134  0.54204770  1
  S2-  S234  1  0.36313613  0.25016411  0.05015408  1
  S2-  S235  1  0.38657295  0.24123391  0.54857443  1
  S2-  S236  1  0.35923860  0.48791107  0.05459330  1
  S2-  S237  1  0.38707731  0.48368833  0.52767976  1
  S2-  S238  1  0.37823761  0.74786113  0.05134561  1
  S2-  S239  1  0.38502937  0.72936045  0.53932790  1
  S2-  S240  1  0.61829072  0.00019872  0.03752478  1
  S2-  S241  1  0.63544707  -0.01470401  0.55222481  1
  S2-  S242  1  0.62571835  0.24069925  0.04304962  1
  S2-  S243  1  0.63475586  0.24016363  0.54605578  1
  S2-  S244  1  0.62225131  0.49476911  0.04728909  1
  S2-  S245  1  0.63871360  0.48730960  0.52965825  1
  S2-  S246  1  0.61823452  0.74805594  0.03914069  1
  S2-  S247  1  0.63504737  0.73486860  0.54318715  1
  S2-  S248  1  0.87748021  -0.00621233  0.03937912  1
  S2-  S249  1  0.88405242  -0.01283639  0.56300172  1
  S2-  S250  1  0.87323719  0.24511946  0.05634775  1
  S2-  S251  1  0.88331023  0.23841436  0.55483654  1
  S2-  S252  1  0.87888150  0.49679841  0.04504419  1
  S2-  S253  1  0.88184849  0.49054314  0.54350719  1
  S2-  S254  1  0.87509690  0.74936596  0.03447070  1
  S2-  S255  1  0.88265188  0.73344059  0.54497849  1
