# generated using pymatgen
data_La9Ce10Pr6Nd4Sm3(BiS2)32
_symmetry_space_group_name_H-M   'P 1'
_cell_length_a   16.24122132
_cell_length_b   16.24795204
_cell_length_c   27.00368857
_cell_angle_alpha   89.99793784
_cell_angle_beta   90.01985474
_cell_angle_gamma   89.96086681
_symmetry_Int_Tables_number   1
_chemical_formula_structural   La9Ce10Pr6Nd4Sm3(BiS2)32
_chemical_formula_sum   'La18 Ce20 Pr12 Nd8 Sm6 Bi64 S128'
_cell_volume   7125.90906962
_cell_formula_units_Z   2
loop_
 _symmetry_equiv_pos_site_id
 _symmetry_equiv_pos_as_xyz
  1  'x, y, z'
loop_
 _atom_type_symbol
 _atom_type_oxidation_number
  La3+  3.0
  Ce3+  3.0
  Pr3+  3.0
  Nd3+  3.0
  Sm3+  3.0
  Bi2+  2.0
  S2-  -2.0
loop_
 _atom_site_type_symbol
 _atom_site_label
 _atom_site_symmetry_multiplicity
 _atom_site_fract_x
 _atom_site_fract_y
 _atom_site_fract_z
 _atom_site_occupancy
  La3+  La0  1  0.87101225  0.24601721  0.43072324  1
  La3+  La1  1  0.50085369  0.87382923  0.56564717  1
  La3+  La2  1  0.63020145  0.49817902  0.43546469  1
  La3+  La3  1  0.75053709  0.36120025  0.60167806  1
  La3+  La4  1  0.36899032  -0.00787515  0.43250740  1
  La3+  La5  1  0.25703062  0.86795862  0.58947320  1
  La3+  La6  1  0.25443048  0.62522689  0.06445877  1
  La3+  La7  1  -0.00384945  0.62152688  0.56673375  1
  La3+  La8  1  0.62573442  -0.00732870  0.39272241  1
  La3+  La9  1  0.61763946  0.25326630  0.42534484  1
  La3+  La10  1  0.76425362  0.13091611  0.07799283  1
  La3+  La11  1  0.49413025  0.87612384  0.07965155  1
  La3+  La12  1  0.39109868  0.00867140  0.92367250  1
  La3+  La13  1  0.88340778  0.24311912  0.91051988  1
  La3+  La14  1  0.50195371  0.37169896  0.56513041  1
  La3+  La15  1  0.36962624  0.49857551  0.43150890  1
  La3+  La16  1  0.74923824  0.87396924  0.55781456  1
  La3+  La17  1  0.25088161  0.37328630  0.06559537  1
  Ce3+  Ce18  1  0.37405278  0.24362840  0.44300963  1
  Ce3+  Ce19  1  0.25355912  0.12445544  0.05784080  1
  Ce3+  Ce20  1  0.37648183  0.25302569  0.94098924  1
  Ce3+  Ce21  1  0.75285469  0.62642273  0.05127980  1
  Ce3+  Ce22  1  -0.00506482  0.36946244  0.55914442  1
  Ce3+  Ce23  1  0.13137096  0.75361318  0.94234446  1
  Ce3+  Ce24  1  0.62245620  0.75283701  0.43640793  1
  Ce3+  Ce25  1  0.50498061  0.62326908  0.05807107  1
  Ce3+  Ce26  1  0.24927311  0.37011018  0.55544201  1
  Ce3+  Ce27  1  0.37215900  0.74973689  0.44556930  1
  Ce3+  Ce28  1  0.37724730  0.50053035  0.94173829  1
  Ce3+  Ce29  1  0.50662314  0.37488542  0.05348673  1
  Ce3+  Ce30  1  0.12793202  0.50378113  0.94227326  1
  Ce3+  Ce31  1  0.00167727  0.87718388  0.04810949  1
  Ce3+  Ce32  1  0.87368418  0.75303396  0.93160709  1
  Ce3+  Ce33  1  0.62286207  0.75398040  0.94840925  1
  Ce3+  Ce34  1  0.62798832  0.50047243  0.93776356  1
  Ce3+  Ce35  1  0.38108308  0.75365373  0.94049332  1
  Ce3+  Ce36  1  0.25512573  0.87946995  0.05859027  1
  Ce3+  Ce37  1  0.87292289  -0.00344879  0.43755144  1
  Pr3+  Pr38  1  0.12324868  0.49823753  0.44494130  1
  Pr3+  Pr39  1  0.50256846  0.61878021  0.55218000  1
  Pr3+  Pr40  1  0.25319225  0.61449788  0.57048097  1
  Pr3+  Pr41  1  -0.00082572  0.63004655  0.05815106  1
  Pr3+  Pr42  1  0.13013573  0.00048409  0.93775982  1
  Pr3+  Pr43  1  0.88293430  0.51211228  0.91777976  1
  Pr3+  Pr44  1  0.12861992  0.25263939  0.93570025  1
  Pr3+  Pr45  1  0.87336549  0.49823636  0.44533125  1
  Pr3+  Pr46  1  -0.00017454  0.12226273  0.55522751  1
  Pr3+  Pr47  1  -0.00188807  0.37573918  0.05137882  1
  Pr3+  Pr48  1  0.87214814  -0.00218358  0.93551684  1
  Pr3+  Pr49  1  0.50085660  0.12915655  0.07165725  1
  Nd3+  Nd50  1  0.87463669  0.74967252  0.44191686  1
  Nd3+  Nd51  1  0.63082016  0.24910497  0.94021039  1
  Nd3+  Nd52  1  0.00107534  0.87422284  0.56110631  1
  Nd3+  Nd53  1  0.25144574  0.11999332  0.56107941  1
  Nd3+  Nd54  1  0.75719635  0.37437604  0.04686967  1
  Nd3+  Nd55  1  0.74739412  0.12519989  0.55331865  1
  Nd3+  Nd56  1  0.75423640  0.87568847  0.06399796  1
  Nd3+  Nd57  1  0.12644263  -0.00545464  0.44146501  1
  Sm3+  Sm58  1  0.62610153  0.00242862  0.95521677  1
  Sm3+  Sm59  1  0.12709790  0.74843854  0.45099055  1
  Sm3+  Sm60  1  0.50177198  0.12125190  0.55235889  1
  Sm3+  Sm61  1  0.12424426  0.24668285  0.44587776  1
  Sm3+  Sm62  1  0.74895747  0.62147475  0.56130895  1
  Sm3+  Sm63  1  0.00244915  0.12508692  0.05548140  1
  Bi2+  Bi64  1  0.01702364  0.09259216  0.28421007  1
  Bi2+  Bi65  1  0.02267935  0.08881768  0.79068904  1
  Bi2+  Bi66  1  -0.00440152  0.39828458  0.25669672  1
  Bi2+  Bi67  1  0.01060334  0.37948197  0.79329787  1
  Bi2+  Bi68  1  0.00552298  0.62529772  0.26363244  1
  Bi2+  Bi69  1  0.02296242  0.64646919  0.79363506  1
  Bi2+  Bi70  1  0.01406171  0.90291514  0.30412423  1
  Bi2+  Bi71  1  -0.02465626  0.88801132  0.77204273  1
  Bi2+  Bi72  1  0.22578245  0.10453355  0.29658716  1
  Bi2+  Bi73  1  0.25314094  0.16049527  0.80055664  1
  Bi2+  Bi74  1  0.22117989  0.37125638  0.29697974  1
  Bi2+  Bi75  1  0.26322643  0.35339090  0.81366981  1
  Bi2+  Bi76  1  0.25275080  0.61438887  0.30502520  1
  Bi2+  Bi77  1  0.23932695  0.62244014  0.75907051  1
  Bi2+  Bi78  1  0.23775607  0.84159400  0.29463890  1
  Bi2+  Bi79  1  0.23488345  0.86270115  0.79230342  1
  Bi2+  Bi80  1  0.49474087  0.13037581  0.28688224  1
  Bi2+  Bi81  1  0.52362887  0.12519636  0.79208499  1
  Bi2+  Bi82  1  0.51304345  0.38298494  0.25874226  1
  Bi2+  Bi83  1  0.45253180  0.39301111  0.78318620  1
  Bi2+  Bi84  1  0.51251728  0.64315948  0.26128199  1
  Bi2+  Bi85  1  0.51676003  0.60978076  0.79837866  1
  Bi2+  Bi86  1  0.48623759  0.85800234  0.28682174  1
  Bi2+  Bi87  1  0.47915640  0.87398062  0.80844205  1
  Bi2+  Bi88  1  0.76870983  0.12343195  0.28384741  1
  Bi2+  Bi89  1  0.73501521  0.10350711  0.79509469  1
  Bi2+  Bi90  1  0.74021360  0.35974666  0.30687641  1
  Bi2+  Bi91  1  0.71757906  0.37384656  0.79177265  1
  Bi2+  Bi92  1  0.73671582  0.61511817  0.31329537  1
  Bi2+  Bi93  1  0.75852677  0.65162483  0.76854081  1
  Bi2+  Bi94  1  0.82506905  0.84536471  0.28612385  1
  Bi2+  Bi95  1  0.79434457  0.88327506  0.81035605  1
  Bi2+  Bi96  1  0.12018924  -0.01140330  0.20175777  1
  Bi2+  Bi97  1  0.11649018  0.03240381  0.69746182  1
  Bi2+  Bi98  1  0.12064109  0.24017090  0.23518959  1
  Bi2+  Bi99  1  0.13972632  0.27094702  0.72920790  1
  Bi2+  Bi100  1  0.13407197  0.51212861  0.20746317  1
  Bi2+  Bi101  1  0.15482234  0.46294865  0.72039543  1
  Bi2+  Bi102  1  0.09497736  0.79064460  0.22061699  1
  Bi2+  Bi103  1  0.09534269  0.73528204  0.70475792  1
  Bi2+  Bi104  1  0.31018041  0.01108169  0.20623899  1
  Bi2+  Bi105  1  0.37814141  0.01715836  0.70083396  1
  Bi2+  Bi106  1  0.34247436  0.24070827  0.24630925  1
  Bi2+  Bi107  1  0.35639287  0.25975969  0.72345309  1
  Bi2+  Bi108  1  0.38355890  0.48909168  0.20279668  1
  Bi2+  Bi109  1  0.37809268  0.52877679  0.69650092  1
  Bi2+  Bi110  1  0.35423716  0.72850537  0.20979542  1
  Bi2+  Bi111  1  0.39064082  0.72459894  0.71170292  1
  Bi2+  Bi112  1  0.62101332  -0.00702004  0.19017158  1
  Bi2+  Bi113  1  0.64165103  -0.03316833  0.73278267  1
  Bi2+  Bi114  1  0.61732611  0.26216225  0.19072628  1
  Bi2+  Bi115  1  0.61373059  0.20421483  0.70708062  1
  Bi2+  Bi116  1  0.65320030  0.51406868  0.22568026  1
  Bi2+  Bi117  1  0.57100907  0.49736830  0.70657381  1
  Bi2+  Bi118  1  0.67451340  0.73676765  0.22853347  1
  Bi2+  Bi119  1  0.61416421  0.77167708  0.74482521  1
  Bi2+  Bi120  1  0.91290121  -0.01112210  0.20128705  1
  Bi2+  Bi121  1  0.84100747  0.00334814  0.71583535  1
  Bi2+  Bi122  1  0.88554068  0.27746902  0.19801943  1
  Bi2+  Bi123  1  0.89040068  0.23107500  0.70945994  1
  Bi2+  Bi124  1  0.85376265  0.52457668  0.21688664  1
  Bi2+  Bi125  1  0.89142884  0.49843114  0.71647299  1
  Bi2+  Bi126  1  0.88136819  0.73214966  0.19804039  1
  Bi2+  Bi127  1  0.85756205  0.76801598  0.70664091  1
  S2-  S128  1  -0.08567640  0.13798747  0.13934130  1
  S2-  S129  1  -0.00968250  0.14043495  0.65646448  1
  S2-  S130  1  0.01274865  0.35340352  0.15112302  1
  S2-  S131  1  -0.07677607  0.36677799  0.64950985  1
  S2-  S132  1  -0.00276250  0.58789101  0.15598857  1
  S2-  S133  1  0.01187910  0.59938367  0.66689987  1
  S2-  S134  1  -0.02201708  0.85181346  0.14392127  1
  S2-  S135  1  0.02851757  0.88182790  0.65944940  1
  S2-  S136  1  0.28682909  0.15708145  0.15239005  1
  S2-  S137  1  0.25448323  0.12257698  0.66088048  1
  S2-  S138  1  0.25787352  0.41004088  0.16473491  1
  S2-  S139  1  0.27597774  0.42206510  0.64656916  1
  S2-  S140  1  0.23498863  0.64040332  0.16517815  1
  S2-  S141  1  0.25028719  0.71896248  0.65092657  1
  S2-  S142  1  0.34250961  0.87162093  0.14428505  1
  S2-  S143  1  0.23312709  0.92238006  0.69032846  1
  S2-  S144  1  0.50893284  0.12602889  0.17410596  1
  S2-  S145  1  0.49540545  0.10653648  0.65263788  1
  S2-  S146  1  0.48685505  0.37169384  0.15133241  1
  S2-  S147  1  0.58456530  0.34420620  0.65182440  1
  S2-  S148  1  0.46899702  0.62625645  0.15424916  1
  S2-  S149  1  0.51533823  0.63741691  0.65253166  1
  S2-  S150  1  0.55056826  0.84903727  0.17722947  1
  S2-  S151  1  0.41628379  0.87695548  0.65384149  1
  S2-  S152  1  0.71846518  0.13917379  0.17910679  1
  S2-  S153  1  0.75462271  0.20002459  0.64583992  1
  S2-  S154  1  0.75624448  0.34086734  0.14559291  1
  S2-  S155  1  0.74502579  0.44246730  0.69471533  1
  S2-  S156  1  0.75392549  0.63329217  0.14989737  1
  S2-  S157  1  0.77316788  0.64722785  0.65874713  1
  S2-  S158  1  0.76880177  0.92798480  0.15913235  1
  S2-  S159  1  0.75510719  0.89198607  0.65802761  1
  S2-  S160  1  0.23488129  -0.02556108  0.36414550  1
  S2-  S161  1  0.12895908  -0.01475291  0.83629226  1
  S2-  S162  1  0.12676578  0.25715109  0.34742504  1
  S2-  S163  1  0.03602782  0.24095857  0.85049654  1
  S2-  S164  1  0.14808396  0.50257704  0.34508452  1
  S2-  S165  1  0.08431080  0.50971384  0.84775698  1
  S2-  S166  1  0.14820569  0.73479738  0.35294071  1
  S2-  S167  1  0.12651660  0.75496438  0.84440021  1
  S2-  S168  1  0.45980357  -0.00097568  0.34403730  1
  S2-  S169  1  0.34048878  -0.02954886  0.82556635  1
  S2-  S170  1  0.40811373  0.24833344  0.34706688  1
  S2-  S171  1  0.39823038  0.16218592  0.85960473  1
  S2-  S172  1  0.37060585  0.51607022  0.33053802  1
  S2-  S173  1  0.38617730  0.52347597  0.84438678  1
  S2-  S174  1  0.38018058  0.77766267  0.34764024  1
  S2-  S175  1  0.35709133  0.76498955  0.84254216  1
  S2-  S176  1  0.62912961  0.02255704  0.28709792  1
  S2-  S177  1  0.55551046  -0.00170800  0.86502975  1
  S2-  S178  1  0.64701713  0.20714646  0.32799695  1
  S2-  S179  1  0.62438401  0.25092887  0.83986689  1
  S2-  S180  1  0.59888911  0.40629389  0.35204449  1
  S2-  S181  1  0.63349633  0.50842407  0.83941434  1
  S2-  S182  1  0.61086441  0.83127128  0.34839229  1
  S2-  S183  1  0.59457132  0.75579301  0.85186965  1
  S2-  S184  1  0.80094276  -0.00535394  0.34825220  1
  S2-  S185  1  0.87504388  0.09066502  0.85170934  1
  S2-  S186  1  0.86871257  0.24530807  0.32897664  1
  S2-  S187  1  0.83481248  0.27122782  0.80931212  1
  S2-  S188  1  0.83393940  0.48112796  0.34713313  1
  S2-  S189  1  0.85927994  0.46397399  0.82045466  1
  S2-  S190  1  0.87341016  0.71457067  0.34412408  1
  S2-  S191  1  0.88016789  0.66346143  0.84760472  1
  S2-  S192  1  0.00234417  0.12091271  0.44654737  1
  S2-  S193  1  0.00445429  0.12161106  0.95288875  1
  S2-  S194  1  0.00006194  0.37085584  0.44963675  1
  S2-  S195  1  0.00019578  0.38030942  0.94503723  1
  S2-  S196  1  0.00027003  0.62521566  0.45590487  1
  S2-  S197  1  0.00516075  0.63129747  0.95159876  1
  S2-  S198  1  0.00135216  0.87139240  0.45319100  1
  S2-  S199  1  0.00112663  0.87606117  0.94137485  1
  S2-  S200  1  0.24557315  0.12514203  0.45416640  1
  S2-  S201  1  0.25170048  0.12684337  0.95112464  1
  S2-  S202  1  0.24755795  0.36971648  0.44996829  1
  S2-  S203  1  0.25089286  0.37768191  0.95568565  1
  S2-  S204  1  0.24750237  0.62328385  0.46092480  1
  S2-  S205  1  0.25400771  0.62685905  0.95356250  1
  S2-  S206  1  0.24695515  0.86677938  0.46933620  1
  S2-  S207  1  0.25764432  0.87974852  0.95197176  1
  S2-  S208  1  0.50149742  0.11927282  0.44808529  1
  S2-  S209  1  0.50772153  0.13071317  0.96399370  1
  S2-  S210  1  0.49332034  0.37552902  0.45629065  1
  S2-  S211  1  0.50356646  0.37462621  0.94599112  1
  S2-  S212  1  0.49998894  0.62282393  0.44399268  1
  S2-  S213  1  0.50243232  0.62448575  0.95212841  1
  S2-  S214  1  0.49957228  0.87371899  0.45705996  1
  S2-  S215  1  0.50203147  0.87781696  0.96664786  1
  S2-  S216  1  0.74386191  0.11869677  0.44687889  1
  S2-  S217  1  0.74899965  0.12322473  0.95752986  1
  S2-  S218  1  0.74997195  0.37100408  0.44890125  1
  S2-  S219  1  0.75719213  0.37588325  0.93988245  1
  S2-  S220  1  0.75022964  0.62716909  0.45552175  1
  S2-  S221  1  0.74879218  0.62815657  0.94518605  1
  S2-  S222  1  0.74868968  0.87309850  0.45025721  1
  S2-  S223  1  0.74677925  0.87694159  0.95531462  1
  S2-  S224  1  0.12662675  0.00222172  0.04691139  1
  S2-  S225  1  0.12681818  -0.00394323  0.54953352  1
  S2-  S226  1  0.12477821  0.24853341  0.04534521  1
  S2-  S227  1  0.12481874  0.24703282  0.55233931  1
  S2-  S228  1  0.12516380  0.50159576  0.04949240  1
  S2-  S229  1  0.12226684  0.49492988  0.55271094  1
  S2-  S230  1  0.12879165  0.75305761  0.05095374  1
  S2-  S231  1  0.12255493  0.74686529  0.55487789  1
  S2-  S232  1  0.37837841  0.00598442  0.04497095  1
  S2-  S233  1  0.37468269  -0.00030744  0.54604435  1
  S2-  S234  1  0.37846105  0.25263713  0.04771418  1
  S2-  S235  1  0.37605352  0.24500225  0.55174389  1
  S2-  S236  1  0.37881379  0.49851443  0.04848772  1
  S2-  S237  1  0.37673528  0.49608468  0.54167238  1
  S2-  S238  1  0.37893358  0.74713936  0.04691746  1
  S2-  S239  1  0.37723407  0.74251476  0.55022784  1
  S2-  S240  1  0.62832757  0.00324326  0.05967243  1
  S2-  S241  1  0.62464101  0.00099372  0.55536850  1
  S2-  S242  1  0.63111761  0.24906689  0.04843223  1
  S2-  S243  1  0.62351874  0.24582019  0.53873144  1
  S2-  S244  1  0.63129068  0.49863492  0.04692794  1
  S2-  S245  1  0.63171377  0.49532418  0.54764960  1
  S2-  S246  1  0.62705682  0.75251445  0.05554473  1
  S2-  S247  1  0.62653868  0.74541390  0.54767211  1
  S2-  S248  1  0.87785224  0.00001388  0.04234168  1
  S2-  S249  1  0.87524490  -0.00067176  0.54673013  1
  S2-  S250  1  0.88001240  0.24958468  0.03209043  1
  S2-  S251  1  0.87444904  0.24647854  0.54014439  1
  S2-  S252  1  0.87697644  0.50351357  0.03729136  1
  S2-  S253  1  0.86753749  0.49558609  0.55241644  1
  S2-  S254  1  0.87477627  0.75292708  0.04024453  1
  S2-  S255  1  0.87547731  0.74875179  0.54976187  1
