# generated using pymatgen
data_La9Ce10Pr6Nd4Sm3(BiS2)32
_symmetry_space_group_name_H-M   'P 1'
_cell_length_a   16.17271902
_cell_length_b   16.17902021
_cell_length_c   27.29028234
_cell_angle_alpha   89.87755676
_cell_angle_beta   90.06154507
_cell_angle_gamma   89.96393532
_symmetry_Int_Tables_number   1
_chemical_formula_structural   La9Ce10Pr6Nd4Sm3(BiS2)32
_chemical_formula_sum   'La18 Ce20 Pr12 Nd8 Sm6 Bi64 S128'
_cell_volume   7140.71925138
_cell_formula_units_Z   2
loop_
 _symmetry_equiv_pos_site_id
 _symmetry_equiv_pos_as_xyz
  1  'x, y, z'
loop_
 _atom_type_symbol
 _atom_type_oxidation_number
  La3+  3.0
  Ce3+  3.0
  Pr3+  3.0
  Nd3+  3.0
  Sm3+  3.0
  Bi2+  2.0
  S2-  -2.0
loop_
 _atom_site_type_symbol
 _atom_site_label
 _atom_site_symmetry_multiplicity
 _atom_site_fract_x
 _atom_site_fract_y
 _atom_site_fract_z
 _atom_site_occupancy
  La3+  La0  1  0.13055082  0.50297530  0.43640918  1
  La3+  La1  1  0.25693198  0.12956964  0.60821364  1
  La3+  La2  1  0.88502437  -0.01850249  0.41917232  1
  La3+  La3  1  0.87424198  0.49278608  0.88641914  1
  La3+  La4  1  0.38013433  0.24310473  0.43328423  1
  La3+  La5  1  0.75580449  0.87014859  0.08065288  1
  La3+  La6  1  0.13293297  -0.00073085  0.93168395  1
  La3+  La7  1  0.50587163  0.37632050  0.07233833  1
  La3+  La8  1  0.62835288  -0.01298893  0.41510172  1
  La3+  La9  1  0.87120701  0.25300536  0.94430519  1
  La3+  La10  1  0.61916964  0.24639801  0.94195353  1
  La3+  La11  1  0.87705524  0.75123019  0.92735885  1
  La3+  La12  1  0.62238711  0.75280957  0.93543192  1
  La3+  La13  1  0.39871825  -0.00192731  0.88971186  1
  La3+  La14  1  0.88485312  0.24930284  0.42580722  1
  La3+  La15  1  0.24939125  0.86733893  0.06791501  1
  La3+  La16  1  0.87206809  -0.00148549  0.94341796  1
  La3+  La17  1  0.11116361  0.76653335  0.38767691  1
  Ce3+  Ce18  1  0.24806779  0.37479447  0.05960871  1
  Ce3+  Ce19  1  0.62258970  0.00206853  0.95551620  1
  Ce3+  Ce20  1  0.50609790  0.61710767  0.56096389  1
  Ce3+  Ce21  1  0.00236502  0.11748599  0.56079087  1
  Ce3+  Ce22  1  0.37337201  -0.00929017  0.44170297  1
  Ce3+  Ce23  1  0.12695178  0.24349504  0.44337144  1
  Ce3+  Ce24  1  0.25025054  0.12316972  0.05872155  1
  Ce3+  Ce25  1  0.49567724  0.87465792  0.05790371  1
  Ce3+  Ce26  1  0.75520349  0.11767746  0.54076995  1
  Ce3+  Ce27  1  0.50443184  0.11773159  0.54757662  1
  Ce3+  Ce28  1  0.50113563  0.36130109  0.56388541  1
  Ce3+  Ce29  1  0.62932166  0.49889033  0.94095985  1
  Ce3+  Ce30  1  -0.00323186  0.12298838  0.05685554  1
  Ce3+  Ce31  1  0.49883585  0.62521266  0.05276932  1
  Ce3+  Ce32  1  0.37362058  0.49386913  0.94069213  1
  Ce3+  Ce33  1  0.25477259  0.36657521  0.55418022  1
  Ce3+  Ce34  1  0.25513603  0.62378308  0.56859481  1
  Ce3+  Ce35  1  0.38163001  0.49517218  0.44795050  1
  Ce3+  Ce36  1  0.00337733  0.87054971  0.56117987  1
  Ce3+  Ce37  1  0.75419026  0.87153255  0.55892347  1
  Pr3+  Pr38  1  0.00359630  0.36673150  0.56345210  1
  Pr3+  Pr39  1  0.63107205  0.73950192  0.43544231  1
  Pr3+  Pr40  1  0.50350762  0.87029391  0.55284084  1
  Pr3+  Pr41  1  0.87322791  0.49393640  0.44699516  1
  Pr3+  Pr42  1  0.00446532  0.61817556  0.55912366  1
  Pr3+  Pr43  1  0.25249810  0.86842128  0.56664544  1
  Pr3+  Pr44  1  0.36801077  0.74525911  0.93362960  1
  Pr3+  Pr45  1  0.37498305  0.73553979  0.43235821  1
  Pr3+  Pr46  1  0.48693681  0.12741860  0.07907670  1
  Pr3+  Pr47  1  0.63027717  0.25423337  0.42405168  1
  Pr3+  Pr48  1  0.12171775  0.74666095  0.93382943  1
  Pr3+  Pr49  1  0.13090216  -0.00663910  0.44686721  1
  Nd3+  Nd50  1  0.24630381  0.62192132  0.06484508  1
  Nd3+  Nd51  1  0.73597812  0.11780977  0.10023721  1
  Nd3+  Nd52  1  0.37251015  0.25250948  0.93727223  1
  Nd3+  Nd53  1  0.00593473  0.87542251  0.06709489  1
  Nd3+  Nd54  1  0.75038369  0.62657652  0.58096284  1
  Nd3+  Nd55  1  0.74992163  0.37250544  0.06703025  1
  Nd3+  Nd56  1  0.75166877  0.62651662  0.06024464  1
  Nd3+  Nd57  1  0.12036336  0.25422932  0.94888747  1
  Sm3+  Sm58  1  0.87459908  0.73960738  0.44613153  1
  Sm3+  Sm59  1  0.63365278  0.49216704  0.45215118  1
  Sm3+  Sm60  1  0.11761193  0.49999948  0.93992782  1
  Sm3+  Sm61  1  -0.00398128  0.37589229  0.06302940  1
  Sm3+  Sm62  1  0.74469646  0.35032667  0.57775615  1
  Sm3+  Sm63  1  -0.00521370  0.62355991  0.05251978  1
  Bi2+  Bi64  1  -0.00437360  0.15474386  0.28031645  1
  Bi2+  Bi65  1  -0.00647226  0.11571175  0.78240029  1
  Bi2+  Bi66  1  -0.00503479  0.40380788  0.30447412  1
  Bi2+  Bi67  1  0.01769604  0.33507366  0.79456607  1
  Bi2+  Bi68  1  -0.07590861  0.58600404  0.28493856  1
  Bi2+  Bi69  1  0.09854354  0.64004845  0.81234608  1
  Bi2+  Bi70  1  -0.01914005  0.91216265  0.28692177  1
  Bi2+  Bi71  1  -0.00399610  0.92108304  0.79720492  1
  Bi2+  Bi72  1  0.26340919  0.13120234  0.29018521  1
  Bi2+  Bi73  1  0.23872915  0.14250008  0.80173341  1
  Bi2+  Bi74  1  0.18683576  0.44425618  0.30198591  1
  Bi2+  Bi75  1  0.26709105  0.42078109  0.77534540  1
  Bi2+  Bi76  1  0.27161616  0.63115674  0.28896781  1
  Bi2+  Bi77  1  0.28696837  0.59584045  0.83965176  1
  Bi2+  Bi78  1  0.25767195  0.90585040  0.28979259  1
  Bi2+  Bi79  1  0.24261878  0.77878279  0.80416613  1
  Bi2+  Bi80  1  0.48178794  0.13759221  0.30476488  1
  Bi2+  Bi81  1  0.53695323  0.14260462  0.79772150  1
  Bi2+  Bi82  1  0.46950094  0.43639598  0.30671078  1
  Bi2+  Bi83  1  0.49145959  0.40433603  0.79447758  1
  Bi2+  Bi84  1  0.55185163  0.62151334  0.31732505  1
  Bi2+  Bi85  1  0.46504197  0.59946695  0.78735356  1
  Bi2+  Bi86  1  0.49334628  0.80297084  0.29656175  1
  Bi2+  Bi87  1  0.54328278  0.87149536  0.79572253  1
  Bi2+  Bi88  1  0.74724432  0.11563997  0.27526987  1
  Bi2+  Bi89  1  0.79600917  0.10750189  0.78117006  1
  Bi2+  Bi90  1  0.73336401  0.42842219  0.29389968  1
  Bi2+  Bi91  1  0.75021162  0.35743066  0.78019916  1
  Bi2+  Bi92  1  0.75376139  0.61047799  0.35552638  1
  Bi2+  Bi93  1  0.73848416  0.60924188  0.78238587  1
  Bi2+  Bi94  1  0.77044809  0.77592949  0.29454129  1
  Bi2+  Bi95  1  0.75338055  0.84947569  0.79252365  1
  Bi2+  Bi96  1  0.14629902  0.03098686  0.21461957  1
  Bi2+  Bi97  1  0.10637132  -0.00551807  0.71310964  1
  Bi2+  Bi98  1  0.14014915  0.24351565  0.22851876  1
  Bi2+  Bi99  1  0.12692902  0.26420299  0.71161030  1
  Bi2+  Bi100  1  0.07300862  0.51446402  0.21595956  1
  Bi2+  Bi101  1  0.13568724  0.53027323  0.71363144  1
  Bi2+  Bi102  1  0.12962558  0.76285308  0.19847566  1
  Bi2+  Bi103  1  0.12827963  0.72930412  0.70950451  1
  Bi2+  Bi104  1  0.35128019  0.00266591  0.21312112  1
  Bi2+  Bi105  1  0.40382193  0.00168977  0.68999938  1
  Bi2+  Bi106  1  0.32931140  0.26477166  0.21003501  1
  Bi2+  Bi107  1  0.40431517  0.36747436  0.69372146  1
  Bi2+  Bi108  1  0.33994401  0.48688057  0.22651211  1
  Bi2+  Bi109  1  0.32566251  0.54948142  0.69028940  1
  Bi2+  Bi110  1  0.40414653  0.73445945  0.20549514  1
  Bi2+  Bi111  1  0.37336645  0.73539753  0.72280930  1
  Bi2+  Bi112  1  0.58354007  -0.02068306  0.21219604  1
  Bi2+  Bi113  1  0.68201613  -0.00623468  0.71427231  1
  Bi2+  Bi114  1  0.59934954  0.27693154  0.21460980  1
  Bi2+  Bi115  1  0.60998727  0.17830147  0.69851893  1
  Bi2+  Bi116  1  0.60043141  0.53520297  0.21563934  1
  Bi2+  Bi117  1  0.58086459  0.50174742  0.70908931  1
  Bi2+  Bi118  1  0.62498461  0.73377797  0.22070849  1
  Bi2+  Bi119  1  0.62330456  0.77601184  0.70207479  1
  Bi2+  Bi120  1  0.89837831  0.01085772  0.19486715  1
  Bi2+  Bi121  1  0.85744259  -0.01131299  0.65689512  1
  Bi2+  Bi122  1  0.86998459  0.33643235  0.21805539  1
  Bi2+  Bi123  1  0.88630197  0.17167368  0.68875652  1
  Bi2+  Bi124  1  0.80104981  0.51975681  0.19946590  1
  Bi2+  Bi125  1  0.89332539  0.48711954  0.68329764  1
  Bi2+  Bi126  1  0.88110976  0.71795646  0.20324845  1
  Bi2+  Bi127  1  0.89180593  0.82449535  0.71464244  1
  S2-  S128  1  0.01639540  0.10666280  0.15326749  1
  S2-  S129  1  0.08872586  0.12761900  0.64816407  1
  S2-  S130  1  0.00578022  0.38205916  0.16141877  1
  S2-  S131  1  0.02185582  0.36370308  0.66445196  1
  S2-  S132  1  0.02796469  0.64555851  0.14885063  1
  S2-  S133  1  0.00886296  0.62206843  0.66043726  1
  S2-  S134  1  -0.09357190  0.86355548  0.14930979  1
  S2-  S135  1  0.04051615  0.85993556  0.65830401  1
  S2-  S136  1  0.33962604  0.12468528  0.14413078  1
  S2-  S137  1  0.29761880  0.13254735  0.71402340  1
  S2-  S138  1  0.25713782  0.40211325  0.15511040  1
  S2-  S139  1  0.25662024  0.30133357  0.64455414  1
  S2-  S140  1  0.27091565  0.72993884  0.14210111  1
  S2-  S141  1  0.26902423  0.74489436  0.64320469  1
  S2-  S142  1  0.12950170  0.89596413  0.14291306  1
  S2-  S143  1  0.25034713  0.96576930  0.65282511  1
  S2-  S144  1  0.59090692  0.12146678  0.16409327  1
  S2-  S145  1  0.47194053  0.14167506  0.64277630  1
  S2-  S146  1  0.47033797  0.28445297  0.15571008  1
  S2-  S147  1  0.57652439  0.35207456  0.65120991  1
  S2-  S148  1  0.48336034  0.60737924  0.15023374  1
  S2-  S149  1  0.53943845  0.64081509  0.65543571  1
  S2-  S150  1  0.47612150  0.87936547  0.15588601  1
  S2-  S151  1  0.51785333  0.87852306  0.65304044  1
  S2-  S152  1  0.80089453  0.19375042  0.18363457  1
  S2-  S153  1  0.74033450  0.19081221  0.62925225  1
  S2-  S154  1  0.64707875  0.37838894  0.14794686  1
  S2-  S155  1  0.78925822  0.36833383  0.67684387  1
  S2-  S156  1  0.74089496  0.72732876  0.14272186  1
  S2-  S157  1  0.75167860  0.57345221  0.67725279  1
  S2-  S158  1  0.73487994  0.97507989  0.16510792  1
  S2-  S159  1  0.75612521  0.77402400  0.64189937  1
  S2-  S160  1  0.11395866  -0.06107281  0.35112339  1
  S2-  S161  1  0.23171872  0.00027657  0.84880452  1
  S2-  S162  1  0.05220039  0.25010784  0.35634312  1
  S2-  S163  1  0.13295033  0.26429087  0.84917113  1
  S2-  S164  1  0.13836591  0.60090902  0.35302670  1
  S2-  S165  1  0.04249112  0.47879840  0.85121385  1
  S2-  S166  1  0.06084824  0.76780892  0.28406645  1
  S2-  S167  1  0.01370240  0.78264887  0.85577084  1
  S2-  S168  1  0.38253301  -0.00176254  0.34433659  1
  S2-  S169  1  0.42771023  -0.00564341  0.78237785  1
  S2-  S170  1  0.40391207  0.29149872  0.33714301  1
  S2-  S171  1  0.39027326  0.16515039  0.85058604  1
  S2-  S172  1  0.38264521  0.57825029  0.36292225  1
  S2-  S173  1  0.37123463  0.38007265  0.86383054  1
  S2-  S174  1  0.27634818  0.77107244  0.34985595  1
  S2-  S175  1  0.40627850  0.82872209  0.84862825  1
  S2-  S176  1  0.59938507  0.02631077  0.31392826  1
  S2-  S177  1  0.58084896  0.00442289  0.86080155  1
  S2-  S178  1  0.62104442  0.21973026  0.32027722  1
  S2-  S179  1  0.63505748  0.26017904  0.84015016  1
  S2-  S180  1  0.61521770  0.40740296  0.36626856  1
  S2-  S181  1  0.70095522  0.48206170  0.85063572  1
  S2-  S182  1  0.63972495  0.84061288  0.35214765  1
  S2-  S183  1  0.63714859  0.72806195  0.83543567  1
  S2-  S184  1  0.82770242  -0.00429540  0.31956173  1
  S2-  S185  1  0.83771675  -0.03326612  0.84554182  1
  S2-  S186  1  0.85438762  0.19205597  0.32855364  1
  S2-  S187  1  0.86688670  0.31910036  0.85068959  1
  S2-  S188  1  0.85692541  0.39195238  0.36519947  1
  S2-  S189  1  0.86560073  0.48649678  0.77754165  1
  S2-  S190  1  0.90957413  0.82034544  0.36226544  1
  S2-  S191  1  0.84795152  0.65322336  0.84472309  1
  S2-  S192  1  0.00140159  0.11454707  0.45095598  1
  S2-  S193  1  0.00007481  0.12561572  0.94849319  1
  S2-  S194  1  0.00819645  0.37529874  0.45834432  1
  S2-  S195  1  -0.00462327  0.37873368  0.95918442  1
  S2-  S196  1  -0.00178072  0.62096494  0.45195720  1
  S2-  S197  1  -0.00597202  0.61806081  0.95007701  1
  S2-  S198  1  0.01007769  0.86228102  0.45774462  1
  S2-  S199  1  0.00186795  0.87980907  0.95968930  1
  S2-  S200  1  0.25183888  0.12070330  0.44007446  1
  S2-  S201  1  0.24583585  0.13285541  0.95518613  1
  S2-  S202  1  0.25307613  0.37054683  0.44727719  1
  S2-  S203  1  0.24057649  0.37905076  0.95576765  1
  S2-  S204  1  0.25688016  0.61661669  0.46401662  1
  S2-  S205  1  0.24405100  0.61954021  0.95903023  1
  S2-  S206  1  0.25185412  0.86571727  0.45735646  1
  S2-  S207  1  0.24648139  0.86785279  0.95502111  1
  S2-  S208  1  0.50728899  0.11710693  0.44112329  1
  S2-  S209  1  0.49445171  0.12266432  0.96234793  1
  S2-  S210  1  0.50234496  0.37038322  0.46003459  1
  S2-  S211  1  0.50280722  0.37703157  0.96244799  1
  S2-  S212  1  0.50989937  0.61539820  0.45761862  1
  S2-  S213  1  0.49829000  0.62105079  0.94590333  1
  S2-  S214  1  0.49891384  0.86595195  0.44690961  1
  S2-  S215  1  0.49609960  0.87722831  0.95448646  1
  S2-  S216  1  0.75235884  0.11663181  0.43603819  1
  S2-  S217  1  0.74816819  0.12511538  0.94594269  1
  S2-  S218  1  0.75185328  0.36704968  0.46873934  1
  S2-  S219  1  0.74690717  0.37435491  0.96190474  1
  S2-  S220  1  0.75271839  0.61895646  0.47246399  1
  S2-  S221  1  0.74716883  0.62663950  0.95583191  1
  S2-  S222  1  0.75547895  0.86775300  0.45329945  1
  S2-  S223  1  0.74728274  0.87377526  0.95797900  1
  S2-  S224  1  0.12543133  0.00357308  0.04026397  1
  S2-  S225  1  0.12767607  -0.00327434  0.55018889  1
  S2-  S226  1  0.12099787  0.25102551  0.05562975  1
  S2-  S227  1  0.13018085  0.24200260  0.54585003  1
  S2-  S228  1  0.12011597  0.49941953  0.04821413  1
  S2-  S229  1  0.13119936  0.49316447  0.54981254  1
  S2-  S230  1  0.12090999  0.74365711  0.04109798  1
  S2-  S231  1  0.12535265  0.74246771  0.55168034  1
  S2-  S232  1  0.36924653  -0.00520294  0.05107560  1
  S2-  S233  1  0.37635986  -0.00273531  0.54645484  1
  S2-  S234  1  0.37182863  0.25456591  0.04390455  1
  S2-  S235  1  0.37527219  0.23868613  0.54130788  1
  S2-  S236  1  0.37333963  0.49927720  0.04880738  1
  S2-  S237  1  0.38021864  0.49210086  0.55356741  1
  S2-  S238  1  0.37538911  0.74516336  0.03977690  1
  S2-  S239  1  0.38458306  0.74172179  0.54187867  1
  S2-  S240  1  0.62133263  -0.00276924  0.05763813  1
  S2-  S241  1  0.63018577  -0.00589615  0.53635469  1
  S2-  S242  1  0.62915921  0.24006266  0.05106008  1
  S2-  S243  1  0.62417427  0.24150757  0.53338393  1
  S2-  S244  1  0.62760858  0.50452790  0.04776772  1
  S2-  S245  1  0.63323816  0.49018351  0.55629737  1
  S2-  S246  1  0.62024862  0.75088551  0.04417505  1
  S2-  S247  1  0.62736739  0.74507887  0.54308142  1
  S2-  S248  1  0.86747363  0.00683219  0.05081076  1
  S2-  S249  1  0.88002625  -0.00637389  0.53228697  1
  S2-  S250  1  0.87308640  0.24937154  0.05352091  1
  S2-  S251  1  0.88108000  0.24423193  0.54050432  1
  S2-  S252  1  0.87335689  0.49885116  0.05959626  1
  S2-  S253  1  0.87443012  0.49115570  0.55607162  1
  S2-  S254  1  0.87801548  0.74875289  0.03954327  1
  S2-  S255  1  0.88126346  0.74417037  0.54904252  1
