# generated using pymatgen
data_La9Ce10Pr6Nd4Sm3(BiS2)32
_symmetry_space_group_name_H-M   'P 1'
_cell_length_a   16.16357777
_cell_length_b   16.15742246
_cell_length_c   27.11415905
_cell_angle_alpha   90.23185011
_cell_angle_beta   89.85440392
_cell_angle_gamma   90.03686413
_symmetry_Int_Tables_number   1
_chemical_formula_structural   La9Ce10Pr6Nd4Sm3(BiS2)32
_chemical_formula_sum   'La18 Ce20 Pr12 Nd8 Sm6 Bi64 S128'
_cell_volume   7081.09909144
_cell_formula_units_Z   2
loop_
 _symmetry_equiv_pos_site_id
 _symmetry_equiv_pos_as_xyz
  1  'x, y, z'
loop_
 _atom_type_symbol
 _atom_type_oxidation_number
  La3+  3.0
  Ce3+  3.0
  Pr3+  3.0
  Nd3+  3.0
  Sm3+  3.0
  Bi2+  2.0
  S2-  -2.0
loop_
 _atom_site_type_symbol
 _atom_site_label
 _atom_site_symmetry_multiplicity
 _atom_site_fract_x
 _atom_site_fract_y
 _atom_site_fract_z
 _atom_site_occupancy
  La3+  La0  1  0.00103824  0.85865306  0.09670441  1
  La3+  La1  1  0.88690861  -0.02069991  0.94836195  1
  La3+  La2  1  0.73951254  0.86445997  0.10667960  1
  La3+  La3  1  0.10951842  0.74747312  0.90617187  1
  La3+  La4  1  0.64121913  0.48222144  0.91171066  1
  La3+  La5  1  0.50167436  0.60938177  0.05694720  1
  La3+  La6  1  0.38688971  0.74335798  0.89956372  1
  La3+  La7  1  0.01570060  0.61005968  0.07398896  1
  La3+  La8  1  0.25741506  0.86203677  0.06491381  1
  La3+  La9  1  0.76361150  0.11557765  0.07972368  1
  La3+  La10  1  0.89043142  0.49269999  0.93685086  1
  La3+  La11  1  0.38305805  0.23226356  0.92521124  1
  La3+  La12  1  0.25180743  0.11600558  0.55953419  1
  La3+  La13  1  0.64721270  0.23199979  0.92729464  1
  La3+  La14  1  0.49500618  0.61697323  0.58438079  1
  La3+  La15  1  0.37281016  0.74272826  0.43248656  1
  La3+  La16  1  0.13986063  0.48525205  0.92262875  1
  La3+  La17  1  0.75353661  0.61134543  0.07213623  1
  Ce3+  Ce18  1  0.12080897  0.23941169  0.44414762  1
  Ce3+  Ce19  1  0.25803845  0.11807623  0.05654870  1
  Ce3+  Ce20  1  0.61999290  0.49296027  0.44520068  1
  Ce3+  Ce21  1  0.62569963  0.23738100  0.43799695  1
  Ce3+  Ce22  1  0.88083653  0.73683570  0.95968331  1
  Ce3+  Ce23  1  0.13153861  0.23535040  0.93234727  1
  Ce3+  Ce24  1  0.51000579  0.11572004  0.05627306  1
  Ce3+  Ce25  1  0.62460874  -0.02035128  0.42539426  1
  Ce3+  Ce26  1  0.37835191  -0.01917307  0.94001635  1
  Ce3+  Ce27  1  0.24971289  0.36734135  0.55688417  1
  Ce3+  Ce28  1  0.74734145  0.61681952  0.56957887  1
  Ce3+  Ce29  1  0.50441136  0.35411277  0.05841609  1
  Ce3+  Ce30  1  0.00903143  0.11494004  0.06648639  1
  Ce3+  Ce31  1  0.24641391  0.61317725  0.56649704  1
  Ce3+  Ce32  1  0.12136507  -0.01087184  0.44068526  1
  Ce3+  Ce33  1  0.63203764  0.73620056  0.93932212  1
  Ce3+  Ce34  1  0.02168269  0.36500234  0.07067881  1
  Ce3+  Ce35  1  0.37570011  -0.00625590  0.43370649  1
  Ce3+  Ce36  1  0.87103393  0.23663498  0.44598255  1
  Ce3+  Ce37  1  0.88622995  0.23812383  0.95022365  1
  Pr3+  Pr38  1  0.50672815  0.86328419  0.05676652  1
  Pr3+  Pr39  1  0.50195576  0.11798042  0.56519596  1
  Pr3+  Pr40  1  0.75914623  0.36245752  0.06867772  1
  Pr3+  Pr41  1  0.74806275  0.11043429  0.55259901  1
  Pr3+  Pr42  1  0.25029396  0.86371355  0.56389612  1
  Pr3+  Pr43  1  0.25314595  0.61832240  0.03763835  1
  Pr3+  Pr44  1  0.39226441  0.48067700  0.91748665  1
  Pr3+  Pr45  1  0.74897950  0.36748243  0.56252562  1
  Pr3+  Pr46  1  0.88306401  -0.02033765  0.41537586  1
  Pr3+  Pr47  1  0.12191692  0.49029421  0.43506292  1
  Pr3+  Pr48  1  0.26330339  0.36725301  0.05637021  1
  Pr3+  Pr49  1  0.12062034  0.73854105  0.44230384  1
  Nd3+  Nd50  1  0.37567424  0.24112807  0.42927479  1
  Nd3+  Nd51  1  -0.00646165  0.87069746  0.56689846  1
  Nd3+  Nd52  1  0.36868625  0.49477647  0.42677643  1
  Nd3+  Nd53  1  0.62250314  0.72869539  0.43581363  1
  Nd3+  Nd54  1  -0.00389388  0.62219001  0.57918075  1
  Nd3+  Nd55  1  -0.00205207  0.36797847  0.55825819  1
  Nd3+  Nd56  1  0.63647684  -0.01217916  0.93842692  1
  Nd3+  Nd57  1  0.87316132  0.49302617  0.43629386  1
  Sm3+  Sm58  1  0.50019567  0.86376953  0.55868522  1
  Sm3+  Sm59  1  0.49468802  0.36626970  0.56149593  1
  Sm3+  Sm60  1  0.87472036  0.73597757  0.43913487  1
  Sm3+  Sm61  1  0.74802248  0.86536746  0.55103673  1
  Sm3+  Sm62  1  -0.00389105  0.11051674  0.56002933  1
  Sm3+  Sm63  1  0.12993227  -0.01958396  0.95611388  1
  Bi2+  Bi64  1  -0.00164721  0.22852109  0.29377240  1
  Bi2+  Bi65  1  0.04556089  0.14558602  0.81135958  1
  Bi2+  Bi66  1  -0.01750982  0.43244619  0.32064987  1
  Bi2+  Bi67  1  -0.00364473  0.35100731  0.78111979  1
  Bi2+  Bi68  1  0.02201928  0.61354557  0.29008617  1
  Bi2+  Bi69  1  -0.08579028  0.61057165  0.79884988  1
  Bi2+  Bi70  1  0.02493362  0.85722915  0.29060174  1
  Bi2+  Bi71  1  -0.02544634  0.88129558  0.80101797  1
  Bi2+  Bi72  1  0.26422046  0.17791174  0.28466899  1
  Bi2+  Bi73  1  0.24440507  0.15422369  0.82500295  1
  Bi2+  Bi74  1  0.25353190  0.38666033  0.28630618  1
  Bi2+  Bi75  1  0.25597779  0.33875045  0.79180443  1
  Bi2+  Bi76  1  0.28723171  0.63492491  0.28641746  1
  Bi2+  Bi77  1  0.19620468  0.59602652  0.78351400  1
  Bi2+  Bi78  1  0.27335078  0.91191169  0.26478265  1
  Bi2+  Bi79  1  0.24880760  0.97346570  0.78798437  1
  Bi2+  Bi80  1  0.45960726  0.16815822  0.27337350  1
  Bi2+  Bi81  1  0.49122431  0.10568622  0.78351809  1
  Bi2+  Bi82  1  0.47935338  0.39626781  0.27152494  1
  Bi2+  Bi83  1  0.51807307  0.38052851  0.77347060  1
  Bi2+  Bi84  1  0.52182045  0.58892325  0.28198341  1
  Bi2+  Bi85  1  0.52502342  0.63930157  0.77211140  1
  Bi2+  Bi86  1  0.46920557  0.85268800  0.28533720  1
  Bi2+  Bi87  1  0.52212465  0.90214832  0.79325526  1
  Bi2+  Bi88  1  0.72141163  0.16053912  0.29944759  1
  Bi2+  Bi89  1  0.75820541  0.10542207  0.79254977  1
  Bi2+  Bi90  1  0.78682622  0.41590975  0.28827178  1
  Bi2+  Bi91  1  0.77844012  0.35459036  0.79271311  1
  Bi2+  Bi92  1  0.76440677  0.61371539  0.29493764  1
  Bi2+  Bi93  1  0.73300199  0.69656654  0.78413164  1
  Bi2+  Bi94  1  0.75473600  0.88599661  0.29742849  1
  Bi2+  Bi95  1  0.71881709  0.89165356  0.80304448  1
  Bi2+  Bi96  1  0.12994719  0.04748674  0.25086489  1
  Bi2+  Bi97  1  0.07815878  0.00140650  0.73108936  1
  Bi2+  Bi98  1  0.05618697  0.23146297  0.18690891  1
  Bi2+  Bi99  1  0.09199744  0.19848543  0.70500386  1
  Bi2+  Bi100  1  0.09870976  0.46152478  0.22991308  1
  Bi2+  Bi101  1  0.11533812  0.46667698  0.70934510  1
  Bi2+  Bi102  1  0.17118586  0.69896279  0.20853870  1
  Bi2+  Bi103  1  0.11569171  0.74115664  0.71142756  1
  Bi2+  Bi104  1  0.40496475  0.01653970  0.20659147  1
  Bi2+  Bi105  1  0.36623100  0.02004380  0.69817548  1
  Bi2+  Bi106  1  0.33784701  0.26170988  0.17959079  1
  Bi2+  Bi107  1  0.37456343  0.21474544  0.71119418  1
  Bi2+  Bi108  1  0.35203687  0.52951568  0.19844463  1
  Bi2+  Bi109  1  0.36441473  0.48370098  0.70751222  1
  Bi2+  Bi110  1  0.42523546  0.78231173  0.18487468  1
  Bi2+  Bi111  1  0.36126602  0.76011776  0.71207147  1
  Bi2+  Bi112  1  0.59787470  -0.00609075  0.22461242  1
  Bi2+  Bi113  1  0.56260532  0.01914000  0.68126774  1
  Bi2+  Bi114  1  0.60037664  0.26901036  0.21249927  1
  Bi2+  Bi115  1  0.60881253  0.20730701  0.71256861  1
  Bi2+  Bi116  1  0.63712063  0.47035988  0.21189364  1
  Bi2+  Bi117  1  0.63408309  0.50370353  0.71143094  1
  Bi2+  Bi118  1  0.64810347  0.74963519  0.24886101  1
  Bi2+  Bi119  1  0.62719226  0.83574927  0.70181226  1
  Bi2+  Bi120  1  0.88944856  0.00977634  0.21698349  1
  Bi2+  Bi121  1  0.85091439  0.02257115  0.69995598  1
  Bi2+  Bi122  1  0.87192242  0.30710760  0.20296610  1
  Bi2+  Bi123  1  0.89861015  0.21338510  0.72324080  1
  Bi2+  Bi124  1  0.82937853  0.49778376  0.18143595  1
  Bi2+  Bi125  1  0.86053814  0.49113347  0.71011625  1
  Bi2+  Bi126  1  0.87544370  0.69230994  0.21014766  1
  Bi2+  Bi127  1  0.86722523  0.78621356  0.72225624  1
  S2-  S128  1  -0.08218697  0.12211798  0.15065465  1
  S2-  S129  1  -0.01322351  0.00359970  0.63779877  1
  S2-  S130  1  0.00477799  0.48278102  0.14607947  1
  S2-  S131  1  -0.01120491  0.40559732  0.65519834  1
  S2-  S132  1  0.02647332  0.71302284  0.16049579  1
  S2-  S133  1  0.12928578  0.60302153  0.64650308  1
  S2-  S134  1  0.04929633  0.94472910  0.19002904  1
  S2-  S135  1  -0.00461470  0.77111431  0.64973168  1
  S2-  S136  1  0.27856810  0.10890277  0.15402991  1
  S2-  S137  1  0.23915827  0.12962608  0.66017771  1
  S2-  S138  1  0.16524202  0.33746537  0.14152929  1
  S2-  S139  1  0.25083316  0.38548316  0.65593806  1
  S2-  S140  1  0.22813281  0.58811151  0.13941864  1
  S2-  S141  1  0.34718989  0.62322673  0.64909008  1
  S2-  S142  1  0.25807762  0.84006377  0.16699881  1
  S2-  S143  1  0.23615461  0.84178932  0.66482841  1
  S2-  S144  1  0.49585073  0.22186486  0.13506825  1
  S2-  S145  1  0.49031229  0.24510266  0.63818498  1
  S2-  S146  1  0.39203911  0.40480870  0.13057102  1
  S2-  S147  1  0.48880575  0.46418454  0.64690439  1
  S2-  S148  1  0.48032611  0.63329330  0.15796081  1
  S2-  S149  1  0.63857711  0.62798158  0.64780395  1
  S2-  S150  1  0.57205147  0.87235729  0.15107090  1
  S2-  S151  1  0.48347255  0.78330120  0.64739440  1
  S2-  S152  1  0.73141977  0.01937194  0.16686945  1
  S2-  S153  1  0.72604886  0.12023663  0.65292200  1
  S2-  S154  1  0.73587842  0.25053491  0.14790080  1
  S2-  S155  1  0.73851424  0.38353518  0.66383227  1
  S2-  S156  1  0.71839801  0.70188415  0.16024935  1
  S2-  S157  1  0.86051171  0.61096485  0.64505745  1
  S2-  S158  1  0.86819792  0.85722942  0.17368572  1
  S2-  S159  1  0.77872332  0.88365546  0.64886142  1
  S2-  S160  1  0.05232765  -0.01421201  0.35049235  1
  S2-  S161  1  0.09214466  -0.07794016  0.86643167  1
  S2-  S162  1  0.14631816  0.25982980  0.34753412  1
  S2-  S163  1  0.11101233  0.34339697  0.85381036  1
  S2-  S164  1  0.22643508  0.51093914  0.35319074  1
  S2-  S165  1  0.05605796  0.56835514  0.84532974  1
  S2-  S166  1  0.11258009  0.74585250  0.33918193  1
  S2-  S167  1  0.17407464  0.75142044  0.80923504  1
  S2-  S168  1  0.38046893  0.11269555  0.35861069  1
  S2-  S169  1  0.36928559  -0.09703478  0.85009188  1
  S2-  S170  1  0.38624924  0.36602572  0.35536703  1
  S2-  S171  1  0.40888080  0.32527217  0.84030716  1
  S2-  S172  1  0.40588715  0.62694572  0.35735680  1
  S2-  S173  1  0.26941980  0.48185139  0.84496521  1
  S2-  S174  1  0.35520823  0.87680196  0.35872344  1
  S2-  S175  1  0.37049570  0.67110843  0.80257757  1
  S2-  S176  1  0.61631779  0.04203533  0.33147905  1
  S2-  S177  1  0.63263430  0.09762415  0.85760788  1
  S2-  S178  1  0.62154223  0.26866682  0.34144132  1
  S2-  S179  1  0.63855101  0.33946188  0.84441250  1
  S2-  S180  1  0.62732794  0.59306635  0.36460628  1
  S2-  S181  1  0.51543745  0.51277542  0.84132258  1
  S2-  S182  1  0.61820990  0.83180613  0.35393884  1
  S2-  S183  1  0.54926045  0.75074928  0.85086254  1
  S2-  S184  1  0.83930460  0.02990515  0.31952760  1
  S2-  S185  1  0.85262836  -0.01296184  0.84761764  1
  S2-  S186  1  0.85111761  0.24280695  0.34875136  1
  S2-  S187  1  0.81825232  0.23042813  0.86032049  1
  S2-  S188  1  0.88907271  0.61714778  0.36446744  1
  S2-  S189  1  0.79374510  0.49534147  0.85118069  1
  S2-  S190  1  0.88691756  0.83188325  0.35178256  1
  S2-  S191  1  0.93671450  0.74701090  0.86587643  1
  S2-  S192  1  -0.00363043  0.11378535  0.45421643  1
  S2-  S193  1  0.00960291  0.10858956  0.95786204  1
  S2-  S194  1  -0.00458191  0.36368734  0.45210433  1
  S2-  S195  1  0.00708345  0.36273946  0.95802463  1
  S2-  S196  1  0.00111577  0.61328438  0.46398737  1
  S2-  S197  1  0.01091242  0.61840694  0.96336863  1
  S2-  S198  1  -0.00070072  0.86280666  0.45852354  1
  S2-  S199  1  0.00809815  0.85717551  0.97445682  1
  S2-  S200  1  0.24395108  0.11468488  0.45208293  1
  S2-  S201  1  0.25358837  0.10406723  0.95046739  1
  S2-  S202  1  0.24533181  0.36239080  0.45258463  1
  S2-  S203  1  0.26009455  0.35472715  0.94864993  1
  S2-  S204  1  0.24595431  0.61798172  0.45814340  1
  S2-  S205  1  0.25437708  0.63174133  0.93295458  1
  S2-  S206  1  0.24287785  0.86806131  0.45695317  1
  S2-  S207  1  0.25332609  0.85764168  0.95471738  1
  S2-  S208  1  0.50584973  0.11415218  0.45723964  1
  S2-  S209  1  0.50344006  0.10703570  0.95122500  1
  S2-  S210  1  0.50250225  0.36465527  0.45615990  1
  S2-  S211  1  0.51520604  0.35961606  0.95105808  1
  S2-  S212  1  0.49698380  0.61296927  0.46584118  1
  S2-  S213  1  0.50788219  0.61417464  0.94848867  1
  S2-  S214  1  0.49878205  0.86528642  0.45546468  1
  S2-  S215  1  0.50848142  0.86489551  0.95148629  1
  S2-  S216  1  0.74928756  0.10802152  0.44563780  1
  S2-  S217  1  0.76565402  0.10772300  0.96574208  1
  S2-  S218  1  0.74987480  0.36805586  0.45291114  1
  S2-  S219  1  0.76206861  0.36678425  0.96020061  1
  S2-  S220  1  0.75126653  0.61385195  0.46232180  1
  S2-  S221  1  0.75380796  0.61109972  0.95922550  1
  S2-  S222  1  0.75154108  0.86038377  0.44873598  1
  S2-  S223  1  0.75505967  0.85892994  0.94858192  1
  S2-  S224  1  0.13204329  -0.01009583  0.06134722  1
  S2-  S225  1  0.12576217  -0.00854124  0.54738611  1
  S2-  S226  1  0.13349723  0.23419086  0.03852160  1
  S2-  S227  1  0.11875126  0.23820658  0.55183040  1
  S2-  S228  1  0.13647761  0.48617410  0.03403225  1
  S2-  S229  1  0.12258767  0.48651622  0.54257294  1
  S2-  S230  1  0.13284691  0.74279341  0.05583403  1
  S2-  S231  1  0.12302121  0.74380742  0.54801803  1
  S2-  S232  1  0.38313353  -0.00933078  0.04797468  1
  S2-  S233  1  0.37762513  -0.01043783  0.54803882  1
  S2-  S234  1  0.38027101  0.23435347  0.03310216  1
  S2-  S235  1  0.37232271  0.24131745  0.53810165  1
  S2-  S236  1  0.37931868  0.49217223  0.02478762  1
  S2-  S237  1  0.37042553  0.48754726  0.53953704  1
  S2-  S238  1  0.38187016  0.73911038  0.04562383  1
  S2-  S239  1  0.37283031  0.74385649  0.54188885  1
  S2-  S240  1  0.63376053  -0.01127834  0.04584742  1
  S2-  S241  1  0.62281810  -0.01310702  0.54026266  1
  S2-  S242  1  0.63545992  0.23512796  0.03786250  1
  S2-  S243  1  0.62781019  0.24206546  0.54476866  1
  S2-  S244  1  0.62816278  0.48289344  0.05929476  1
  S2-  S245  1  0.62313900  0.48723835  0.54877133  1
  S2-  S246  1  0.63127760  0.73932650  0.04655285  1
  S2-  S247  1  0.62503323  0.74554568  0.54263708  1
  S2-  S248  1  0.88050799  -0.01965737  0.05766346  1
  S2-  S249  1  0.87155231  -0.01062256  0.53358411  1
  S2-  S250  1  0.89157155  0.24551482  0.05259638  1
  S2-  S251  1  0.87518234  0.23755987  0.55436162  1
  S2-  S252  1  0.88200585  0.48839381  0.04567229  1
  S2-  S253  1  0.87446105  0.48909045  0.54295324  1
  S2-  S254  1  0.87575545  0.73724875  0.06273698  1
  S2-  S255  1  0.87145776  0.74452555  0.54387153  1
