# generated using pymatgen
data_La9Ce10Pr6Nd4Sm3(BiS2)32
_symmetry_space_group_name_H-M   'P 1'
_cell_length_a   16.12817988
_cell_length_b   16.10211898
_cell_length_c   27.24938915
_cell_angle_alpha   89.87180080
_cell_angle_beta   89.90781375
_cell_angle_gamma   90.02861873
_symmetry_Int_Tables_number   1
_chemical_formula_structural   La9Ce10Pr6Nd4Sm3(BiS2)32
_chemical_formula_sum   'La18 Ce20 Pr12 Nd8 Sm6 Bi64 S128'
_cell_volume   7076.58058744
_cell_formula_units_Z   2
loop_
 _symmetry_equiv_pos_site_id
 _symmetry_equiv_pos_as_xyz
  1  'x, y, z'
loop_
 _atom_type_symbol
 _atom_type_oxidation_number
  La3+  3.0
  Ce3+  3.0
  Pr3+  3.0
  Nd3+  3.0
  Sm3+  3.0
  Bi2+  2.0
  S2-  -2.0
loop_
 _atom_site_type_symbol
 _atom_site_label
 _atom_site_symmetry_multiplicity
 _atom_site_fract_x
 _atom_site_fract_y
 _atom_site_fract_z
 _atom_site_occupancy
  La3+  La0  1  0.38118746  0.77649661  0.43006973  1
  La3+  La1  1  0.01292801  0.09937939  0.07049066  1
  La3+  La2  1  0.75149412  0.40669001  0.57043865  1
  La3+  La3  1  0.63534852  0.27627748  0.42647506  1
  La3+  La4  1  0.75989544  0.84656463  0.06689606  1
  La3+  La5  1  0.63968449  0.52610169  0.41215263  1
  La3+  La6  1  0.74704849  0.15215926  0.60761962  1
  La3+  La7  1  0.25232840  0.60533270  0.09035434  1
  La3+  La8  1  0.51026028  0.09924165  0.07026075  1
  La3+  La9  1  0.12958890  0.77787455  0.43726276  1
  La3+  La10  1  0.14316090  0.72999694  0.91635389  1
  La3+  La11  1  0.26380523  0.64916182  0.60056235  1
  La3+  La12  1  0.88092225  0.72272970  0.91699242  1
  La3+  La13  1  0.25829279  0.39705827  0.56242358  1
  La3+  La14  1  0.12617437  0.02774918  0.43750774  1
  La3+  La15  1  0.63999078  0.77834815  0.41941620  1
  La3+  La16  1  0.88463967  -0.02480291  0.93297295  1
  La3+  La17  1  0.88420815  0.47426339  0.92315979  1
  Ce3+  Ce18  1  0.25619177  0.89842401  0.56234305  1
  Ce3+  Ce19  1  0.75126914  0.64807305  0.55591641  1
  Ce3+  Ce20  1  0.51386897  0.35240979  0.05837800  1
  Ce3+  Ce21  1  0.50248254  0.64902055  0.55244772  1
  Ce3+  Ce22  1  0.50674687  0.90109415  0.55902036  1
  Ce3+  Ce23  1  0.38067389  0.02957713  0.43236482  1
  Ce3+  Ce24  1  0.88274384  0.52434328  0.43766458  1
  Ce3+  Ce25  1  0.76280414  0.09349502  0.08353915  1
  Ce3+  Ce26  1  0.25983374  0.10190562  0.06901033  1
  Ce3+  Ce27  1  0.63479300  0.72438303  0.93511551  1
  Ce3+  Ce28  1  0.13643746  -0.01988730  0.93094695  1
  Ce3+  Ce29  1  0.63915958  0.47610808  0.93969186  1
  Ce3+  Ce30  1  0.74466663  0.89644638  0.57174035  1
  Ce3+  Ce31  1  0.01303966  0.84780885  0.04899370  1
  Ce3+  Ce32  1  0.38420836  0.72379065  0.93696429  1
  Ce3+  Ce33  1  0.00718408  0.64532982  0.56605790  1
  Ce3+  Ce34  1  0.76324294  0.60289106  0.06340491  1
  Ce3+  Ce35  1  0.38044070  0.27953647  0.42561634  1
  Ce3+  Ce36  1  0.38477585  -0.02208945  0.94272605  1
  Ce3+  Ce37  1  0.50788895  0.15187132  0.55635720  1
  Pr3+  Pr38  1  0.01030358  0.40271806  0.56402350  1
  Pr3+  Pr39  1  0.25749626  0.35118602  0.06536456  1
  Pr3+  Pr40  1  0.01173236  0.59925894  0.05455027  1
  Pr3+  Pr41  1  0.00608187  0.14969163  0.57302740  1
  Pr3+  Pr42  1  0.63301657  0.02759924  0.43521966  1
  Pr3+  Pr43  1  0.87734393  0.02575544  0.45602775  1
  Pr3+  Pr44  1  0.14231046  0.47965801  0.92408273  1
  Pr3+  Pr45  1  0.50950826  0.59455997  0.06084207  1
  Pr3+  Pr46  1  0.50821354  0.84172972  0.05882291  1
  Pr3+  Pr47  1  -0.00117667  0.88744051  0.57896633  1
  Pr3+  Pr48  1  0.25537369  0.84843403  0.06065582  1
  Pr3+  Pr49  1  0.38359526  0.47622522  0.93983339  1
  Nd3+  Nd50  1  0.13378256  0.22746428  0.93399243  1
  Nd3+  Nd51  1  0.13432033  0.52927795  0.43758269  1
  Nd3+  Nd52  1  0.12937296  0.27550592  0.43169917  1
  Nd3+  Nd53  1  0.63903802  0.22462067  0.94194953  1
  Nd3+  Nd54  1  0.38580047  0.22576745  0.94191333  1
  Nd3+  Nd55  1  0.63631633  -0.02348856  0.94147729  1
  Nd3+  Nd56  1  0.01745277  0.35436751  0.06385527  1
  Nd3+  Nd57  1  0.37959968  0.53012424  0.42839775  1
  Sm3+  Sm58  1  0.50546183  0.40055584  0.54605936  1
  Sm3+  Sm59  1  0.88161210  0.77688595  0.44559561  1
  Sm3+  Sm60  1  0.25753890  0.15014111  0.55996439  1
  Sm3+  Sm61  1  0.88558072  0.22399869  0.94579238  1
  Sm3+  Sm62  1  0.76584409  0.34965535  0.06115851  1
  Sm3+  Sm63  1  0.88022573  0.27510428  0.45157100  1
  Bi2+  Bi64  1  -0.04478160  0.15355805  0.30540131  1
  Bi2+  Bi65  1  0.06013733  0.15668353  0.76532475  1
  Bi2+  Bi66  1  -0.02776704  0.35790503  0.29225567  1
  Bi2+  Bi67  1  -0.01620801  0.35612244  0.80537059  1
  Bi2+  Bi68  1  -0.03826663  0.55105016  0.30872375  1
  Bi2+  Bi69  1  -0.00471510  0.67178803  0.78169792  1
  Bi2+  Bi70  1  -0.04152440  0.82926968  0.31449036  1
  Bi2+  Bi71  1  0.02412438  0.93809670  0.79354141  1
  Bi2+  Bi72  1  0.22291468  0.08783531  0.28003385  1
  Bi2+  Bi73  1  0.25279584  0.15807656  0.79434898  1
  Bi2+  Bi74  1  0.19482846  0.28102395  0.29561189  1
  Bi2+  Bi75  1  0.26310660  0.35875541  0.78760630  1
  Bi2+  Bi76  1  0.23327024  0.58314931  0.29260878  1
  Bi2+  Bi77  1  0.25209350  0.61502027  0.79031836  1
  Bi2+  Bi78  1  0.22531254  0.83706323  0.30199833  1
  Bi2+  Bi79  1  0.29773537  0.96411958  0.76042140  1
  Bi2+  Bi80  1  0.43068159  0.10175027  0.26851491  1
  Bi2+  Bi81  1  0.48359360  0.14890238  0.79565110  1
  Bi2+  Bi82  1  0.52825136  0.29034110  0.29620287  1
  Bi2+  Bi83  1  0.52474994  0.49387600  0.80562118  1
  Bi2+  Bi84  1  0.48510860  0.56018600  0.29827594  1
  Bi2+  Bi85  1  0.48798900  0.68753421  0.81660120  1
  Bi2+  Bi86  1  0.48100112  0.90353590  0.28215542  1
  Bi2+  Bi87  1  0.50586142  0.88284122  0.79034718  1
  Bi2+  Bi88  1  0.71940397  0.13316290  0.27665324  1
  Bi2+  Bi89  1  0.75319127  0.13664096  0.80206450  1
  Bi2+  Bi90  1  0.74549015  0.42082104  0.24039310  1
  Bi2+  Bi91  1  0.69155353  0.37512927  0.78056848  1
  Bi2+  Bi92  1  0.72881890  0.61617158  0.26692682  1
  Bi2+  Bi93  1  0.68057198  0.63922345  0.78092753  1
  Bi2+  Bi94  1  0.76591629  0.92080137  0.30172870  1
  Bi2+  Bi95  1  0.77111864  0.89039671  0.79882687  1
  Bi2+  Bi96  1  0.07148142  -0.06044006  0.24204910  1
  Bi2+  Bi97  1  0.17974599  0.06340796  0.68843632  1
  Bi2+  Bi98  1  0.09115455  0.24229677  0.19667623  1
  Bi2+  Bi99  1  0.07753439  0.29183788  0.68131347  1
  Bi2+  Bi100  1  0.04340558  0.48215019  0.20967966  1
  Bi2+  Bi101  1  0.12037396  0.47123620  0.70778995  1
  Bi2+  Bi102  1  0.11614574  0.74410587  0.20609550  1
  Bi2+  Bi103  1  0.13118188  0.80188939  0.71049402  1
  Bi2+  Bi104  1  0.31943607  -0.05161954  0.22311624  1
  Bi2+  Bi105  1  0.37587653  0.03115813  0.66043414  1
  Bi2+  Bi106  1  0.30863756  0.22178039  0.19216853  1
  Bi2+  Bi107  1  0.36444717  0.22591848  0.70271929  1
  Bi2+  Bi108  1  0.35765122  0.37312114  0.25492010  1
  Bi2+  Bi109  1  0.40762560  0.50922218  0.70845327  1
  Bi2+  Bi110  1  0.36967243  0.69462554  0.21920780  1
  Bi2+  Bi111  1  0.40031842  0.77493964  0.71693465  1
  Bi2+  Bi112  1  0.62309270  -0.00509517  0.21569653  1
  Bi2+  Bi113  1  0.55748711  0.02625901  0.71074295  1
  Bi2+  Bi114  1  0.55793976  0.26710630  0.18894375  1
  Bi2+  Bi115  1  0.54864089  0.28622327  0.71995947  1
  Bi2+  Bi116  1  0.58608658  0.51976657  0.20682030  1
  Bi2+  Bi117  1  0.63277832  0.50805823  0.70089739  1
  Bi2+  Bi118  1  0.62289828  0.76264584  0.20063011  1
  Bi2+  Bi119  1  0.59819312  0.76762794  0.71064332  1
  Bi2+  Bi120  1  0.88421968  -0.03923069  0.21602188  1
  Bi2+  Bi121  1  0.89033791  0.00825008  0.70445818  1
  Bi2+  Bi122  1  0.83741097  0.22370682  0.20831665  1
  Bi2+  Bi123  1  0.88036628  0.32019323  0.71142816  1
  Bi2+  Bi124  1  0.86128991  0.53281580  0.17625081  1
  Bi2+  Bi125  1  0.91803131  0.50838729  0.74020523  1
  Bi2+  Bi126  1  0.92366623  0.69686654  0.23122893  1
  Bi2+  Bi127  1  0.84429660  0.70726497  0.69291089  1
  S2-  S128  1  -0.10031984  0.09608559  0.15068304  1
  S2-  S129  1  -0.09166013  0.14719216  0.65795896  1
  S2-  S130  1  -0.05279734  0.31416792  0.15519006  1
  S2-  S131  1  0.00187913  0.51887268  0.64146022  1
  S2-  S132  1  0.09787407  0.60580355  0.14389913  1
  S2-  S133  1  -0.00106515  0.74421875  0.64923235  1
  S2-  S134  1  0.05266004  0.86542443  0.14422190  1
  S2-  S135  1  0.05105687  0.94943662  0.67013888  1
  S2-  S136  1  0.14068609  0.10625891  0.14247156  1
  S2-  S137  1  0.24664758  0.26519811  0.63539427  1
  S2-  S138  1  0.14473305  0.37557147  0.14259111  1
  S2-  S139  1  0.27349991  0.48738211  0.65068737  1
  S2-  S140  1  0.30143048  0.55692812  0.19182841  1
  S2-  S141  1  0.17590536  0.64852949  0.69614456  1
  S2-  S142  1  0.26785694  0.75752906  0.14782925  1
  S2-  S143  1  0.26541433  0.81341502  0.64899179  1
  S2-  S144  1  0.38071554  0.09273827  0.14288873  1
  S2-  S145  1  0.57939602  0.16534248  0.64658671  1
  S2-  S146  1  0.49023496  0.41336552  0.14879159  1
  S2-  S147  1  0.50756157  0.40904755  0.64632945  1
  S2-  S148  1  0.50428991  0.67215718  0.15165759  1
  S2-  S149  1  0.42890109  0.64688910  0.64436796  1
  S2-  S150  1  0.52692033  0.88402591  0.15633433  1
  S2-  S151  1  0.60726710  0.89887551  0.64110591  1
  S2-  S152  1  0.62469126  0.11986503  0.14762758  1
  S2-  S153  1  0.73766667  0.06901614  0.70495138  1
  S2-  S154  1  0.71306666  0.32869323  0.15600258  1
  S2-  S155  1  0.74643246  0.31047743  0.65529021  1
  S2-  S156  1  0.74318949  0.71714539  0.14013681  1
  S2-  S157  1  0.76225865  0.56275721  0.64211645  1
  S2-  S158  1  0.75674169  0.94805071  0.15035859  1
  S2-  S159  1  0.82707059  0.86070557  0.65924533  1
  S2-  S160  1  0.10531635  -0.09317220  0.36279547  1
  S2-  S161  1  0.12133865  0.10592543  0.85965110  1
  S2-  S162  1  0.11407435  0.15068369  0.35948022  1
  S2-  S163  1  0.13246555  0.34461041  0.85515107  1
  S2-  S164  1  0.15172178  0.47160390  0.34207704  1
  S2-  S165  1  0.11758734  0.60048524  0.84457422  1
  S2-  S166  1  0.14961621  0.69219976  0.34272688  1
  S2-  S167  1  0.13793120  0.87668594  0.84911877  1
  S2-  S168  1  0.36650535  -0.09452515  0.35753065  1
  S2-  S169  1  0.40120084  0.00043243  0.84521127  1
  S2-  S170  1  0.37441296  0.15071929  0.35746387  1
  S2-  S171  1  0.38741703  0.26842837  0.84475702  1
  S2-  S172  1  0.38497131  0.41231154  0.35049631  1
  S2-  S173  1  0.29704237  0.48190379  0.85123905  1
  S2-  S174  1  0.37769343  0.65157702  0.34888209  1
  S2-  S175  1  0.29723218  0.73032672  0.85160617  1
  S2-  S176  1  0.61802854  -0.08639115  0.35292689  1
  S2-  S177  1  0.66877416  -0.00766415  0.84255071  1
  S2-  S178  1  0.62834256  0.14480430  0.35395476  1
  S2-  S179  1  0.62926766  0.22426569  0.84150685  1
  S2-  S180  1  0.63116500  0.38905184  0.34386621  1
  S2-  S181  1  0.73715676  0.46038164  0.85924802  1
  S2-  S182  1  0.61087343  0.65680570  0.34201137  1
  S2-  S183  1  0.72967097  0.75081295  0.85391394  1
  S2-  S184  1  0.88751017  0.02995809  0.35355386  1
  S2-  S185  1  0.87886847  0.02105922  0.83319242  1
  S2-  S186  1  0.86038718  0.27520735  0.35152015  1
  S2-  S187  1  0.85986226  0.24291405  0.84769785  1
  S2-  S188  1  0.80198164  0.53023662  0.35126095  1
  S2-  S189  1  0.89837415  0.59356154  0.84448355  1
  S2-  S190  1  0.80276866  0.78118943  0.35697810  1
  S2-  S191  1  0.92272689  0.81610829  0.82801543  1
  S2-  S192  1  0.00176671  0.15243620  0.46517421  1
  S2-  S193  1  0.00600110  0.10197272  0.95874683  1
  S2-  S194  1  0.00815422  0.39915987  0.45351062  1
  S2-  S195  1  0.00596949  0.35019689  0.95574405  1
  S2-  S196  1  0.00394594  0.65092273  0.45393148  1
  S2-  S197  1  0.00959676  0.60014898  0.94976974  1
  S2-  S198  1  0.00093331  0.89894522  0.46977055  1
  S2-  S199  1  0.00878499  0.84797511  0.94596694  1
  S2-  S200  1  0.25368058  0.15361727  0.45757006  1
  S2-  S201  1  0.26367041  0.10346387  0.95836663  1
  S2-  S202  1  0.25241497  0.39803577  0.45258087  1
  S2-  S203  1  0.26239917  0.34862509  0.95800509  1
  S2-  S204  1  0.25517332  0.65144464  0.45070761  1
  S2-  S205  1  0.26292321  0.60321859  0.95437125  1
  S2-  S206  1  0.25399042  0.90443886  0.45872786  1
  S2-  S207  1  0.26455319  0.85397714  0.95447569  1
  S2-  S208  1  0.50528628  0.15316829  0.45350972  1
  S2-  S209  1  0.51187283  0.10203996  0.95691973  1
  S2-  S210  1  0.50836171  0.40430855  0.44585825  1
  S2-  S211  1  0.51306760  0.35146234  0.95108446  1
  S2-  S212  1  0.51032703  0.65165164  0.44904478  1
  S2-  S213  1  0.51180319  0.59841236  0.95252251  1
  S2-  S214  1  0.50721126  0.90283247  0.45571003  1
  S2-  S215  1  0.51068591  0.85106846  0.94937302  1
  S2-  S216  1  0.75969072  0.15367825  0.45518567  1
  S2-  S217  1  0.76057892  0.10089574  0.95636940  1
  S2-  S218  1  0.75945483  0.40107515  0.45770302  1
  S2-  S219  1  0.76276272  0.34720615  0.95809642  1
  S2-  S220  1  0.75846437  0.65014118  0.45280535  1
  S2-  S221  1  0.75954703  0.60184982  0.95626127  1
  S2-  S222  1  0.75624504  0.89940721  0.46303122  1
  S2-  S223  1  0.75989240  0.85240174  0.95656037  1
  S2-  S224  1  0.13741765  -0.02560170  0.03909798  1
  S2-  S225  1  0.13173950  0.02658408  0.54994896  1
  S2-  S226  1  0.13589437  0.22788173  0.04058509  1
  S2-  S227  1  0.12699706  0.27264532  0.53786977  1
  S2-  S228  1  0.13929651  0.47920418  0.03667728  1
  S2-  S229  1  0.13829504  0.52889625  0.54527991  1
  S2-  S230  1  0.13660096  0.72427836  0.03632310  1
  S2-  S231  1  0.13420064  0.77061109  0.54898722  1
  S2-  S232  1  0.38492894  -0.03096412  0.04726211  1
  S2-  S233  1  0.38058221  0.02645355  0.54085410  1
  S2-  S234  1  0.38759659  0.23165541  0.04778620  1
  S2-  S235  1  0.38454568  0.27366979  0.53731045  1
  S2-  S236  1  0.37822307  0.47899565  0.04806636  1
  S2-  S237  1  0.38139653  0.52444686  0.53653218  1
  S2-  S238  1  0.38233101  0.71946160  0.04370676  1
  S2-  S239  1  0.38162635  0.77708033  0.54159430  1
  S2-  S240  1  0.63182413  -0.02801200  0.04601129  1
  S2-  S241  1  0.63385452  0.03106611  0.54521403  1
  S2-  S242  1  0.63929490  0.22870373  0.04576768  1
  S2-  S243  1  0.63042367  0.27866929  0.54107455  1
  S2-  S244  1  0.64156131  0.47544314  0.04818930  1
  S2-  S245  1  0.62587696  0.52559142  0.53890774  1
  S2-  S246  1  0.63202002  0.72086132  0.03923108  1
  S2-  S247  1  0.62765517  0.77129872  0.54032971  1
  S2-  S248  1  0.88704284  -0.02765287  0.04279683  1
  S2-  S249  1  0.87478731  0.02269578  0.56157915  1
  S2-  S250  1  0.88326453  0.22550558  0.04840452  1
  S2-  S251  1  0.88236047  0.27847159  0.55472414  1
  S2-  S252  1  0.88574253  0.47358187  0.04105162  1
  S2-  S253  1  0.88117374  0.52446671  0.54085017  1
  S2-  S254  1  0.88821686  0.72419515  0.04222405  1
  S2-  S255  1  0.87459099  0.76927478  0.54736203  1
