# generated using pymatgen
data_La9Ce10Pr6Nd4Sm3(BiS2)32
_symmetry_space_group_name_H-M   'P 1'
_cell_length_a   16.16586205
_cell_length_b   16.15318288
_cell_length_c   27.33825658
_cell_angle_alpha   89.96218723
_cell_angle_beta   90.13465062
_cell_angle_gamma   89.94529446
_symmetry_Int_Tables_number   1
_chemical_formula_structural   La9Ce10Pr6Nd4Sm3(BiS2)32
_chemical_formula_sum   'La18 Ce20 Pr12 Nd8 Sm6 Bi64 S128'
_cell_volume   7138.81785433
_cell_formula_units_Z   2
loop_
 _symmetry_equiv_pos_site_id
 _symmetry_equiv_pos_as_xyz
  1  'x, y, z'
loop_
 _atom_type_symbol
 _atom_type_oxidation_number
  La3+  3.0
  Ce3+  3.0
  Pr3+  3.0
  Nd3+  3.0
  Sm3+  3.0
  Bi2+  2.0
  S2-  -2.0
loop_
 _atom_site_type_symbol
 _atom_site_label
 _atom_site_symmetry_multiplicity
 _atom_site_fract_x
 _atom_site_fract_y
 _atom_site_fract_z
 _atom_site_occupancy
  La3+  La0  1  0.24812396  0.11939767  0.56545854  1
  La3+  La1  1  0.24488815  0.62538556  0.58429674  1
  La3+  La2  1  0.36845900  0.25602151  0.92003674  1
  La3+  La3  1  0.49916634  0.86962087  0.58048361  1
  La3+  La4  1  -0.00608057  0.36300356  0.59420732  1
  La3+  La5  1  0.11831921  0.25252618  0.93325246  1
  La3+  La6  1  0.11614282  0.50290887  0.92508468  1
  La3+  La7  1  0.38035874  0.74503868  0.91169114  1
  La3+  La8  1  0.74392002  0.88991922  0.07401649  1
  La3+  La9  1  0.62155586  0.74774976  0.43243611  1
  La3+  La10  1  0.25053210  0.86825193  0.06314421  1
  La3+  La11  1  0.74764857  0.61652578  0.55848284  1
  La3+  La12  1  0.49682946  0.63826395  0.09486250  1
  La3+  La13  1  0.50594212  0.61668078  0.57696471  1
  La3+  La14  1  0.24984882  0.37487534  0.56797813  1
  La3+  La15  1  -0.00105367  0.38714798  0.06996562  1
  La3+  La16  1  0.11490898  0.75803770  0.92502817  1
  La3+  La17  1  0.12670878  0.02462025  0.37950172  1
  Ce3+  Ce18  1  0.87709348  0.24871998  0.44046435  1
  Ce3+  Ce19  1  0.49293017  0.87794098  0.04733513  1
  Ce3+  Ce20  1  0.00015640  0.63037614  0.57609497  1
  Ce3+  Ce21  1  0.00108813  0.11987644  0.55611764  1
  Ce3+  Ce22  1  -0.00375350  0.87840126  0.05869021  1
  Ce3+  Ce23  1  0.24592935  0.63399928  0.04874522  1
  Ce3+  Ce24  1  0.74383241  0.87596138  0.55975615  1
  Ce3+  Ce25  1  0.24824198  0.12951567  0.05793510  1
  Ce3+  Ce26  1  0.86834311  0.75851574  0.93965705  1
  Ce3+  Ce27  1  0.86978564  0.50600737  0.93494555  1
  Ce3+  Ce28  1  0.50187852  0.11898160  0.55138583  1
  Ce3+  Ce29  1  0.62340186  0.75562753  0.93975552  1
  Ce3+  Ce30  1  -0.00643289  0.62935570  0.05621151  1
  Ce3+  Ce31  1  0.62274083  -0.00769211  0.43237382  1
  Ce3+  Ce32  1  0.88005329  -0.00212405  0.43721720  1
  Ce3+  Ce33  1  0.36902400  -0.00986064  0.44124399  1
  Ce3+  Ce34  1  0.37180505  0.24564750  0.44642649  1
  Ce3+  Ce35  1  0.74025519  0.63302042  0.06220059  1
  Ce3+  Ce36  1  0.74343468  0.13520125  0.06177742  1
  Ce3+  Ce37  1  -0.00241159  0.87200842  0.56340242  1
  Pr3+  Pr38  1  0.24659544  0.38242372  0.06068306  1
  Pr3+  Pr39  1  0.87581414  0.74810883  0.44505738  1
  Pr3+  Pr40  1  0.61962975  0.25510573  0.92526101  1
  Pr3+  Pr41  1  0.37187518  0.74116341  0.44368521  1
  Pr3+  Pr42  1  0.36625237  -0.00045313  0.92221789  1
  Pr3+  Pr43  1  0.86868274  0.25292158  0.92889620  1
  Pr3+  Pr44  1  0.12365391  0.49841703  0.45137794  1
  Pr3+  Pr45  1  -0.00307280  0.13901539  0.07427674  1
  Pr3+  Pr46  1  0.12657003  0.75153773  0.44383598  1
  Pr3+  Pr47  1  0.61963185  0.49546467  0.42291901  1
  Pr3+  Pr48  1  0.62445561  0.24770385  0.42826739  1
  Pr3+  Pr49  1  0.50311526  0.37064901  0.55958130  1
  Nd3+  Nd50  1  0.12564717  0.25152508  0.43995179  1
  Nd3+  Nd51  1  0.74933983  0.36334363  0.56785597  1
  Nd3+  Nd52  1  0.61858221  0.50996367  0.94153383  1
  Nd3+  Nd53  1  0.49157833  0.13111385  0.04923677  1
  Nd3+  Nd54  1  0.25475267  0.86905001  0.57293975  1
  Nd3+  Nd55  1  0.62246882  0.00379349  0.93709533  1
  Nd3+  Nd56  1  0.74875435  0.12220805  0.55535773  1
  Nd3+  Nd57  1  0.74194676  0.38023812  0.05205812  1
  Sm3+  Sm58  1  0.37289948  0.51007282  0.94577113  1
  Sm3+  Sm59  1  0.49354329  0.38058144  0.05536293  1
  Sm3+  Sm60  1  0.12234357  0.00500424  0.94927806  1
  Sm3+  Sm61  1  0.87161385  0.00873226  0.94889927  1
  Sm3+  Sm62  1  0.37401305  0.50315471  0.43951473  1
  Sm3+  Sm63  1  0.87692580  0.49395789  0.44739201  1
  Bi2+  Bi64  1  -0.11362722  0.10898451  0.26402715  1
  Bi2+  Bi65  1  -0.00190002  0.11915367  0.78656239  1
  Bi2+  Bi66  1  -0.01180940  0.35864320  0.31331456  1
  Bi2+  Bi67  1  0.03809797  0.37952153  0.79739168  1
  Bi2+  Bi68  1  0.03409432  0.60160326  0.29806093  1
  Bi2+  Bi69  1  -0.04736367  0.64478315  0.77888990  1
  Bi2+  Bi70  1  0.00000116  0.86586644  0.29041359  1
  Bi2+  Bi71  1  -0.05267519  0.88400147  0.79042199  1
  Bi2+  Bi72  1  0.36891331  0.18623449  0.26512123  1
  Bi2+  Bi73  1  0.22788411  0.12959225  0.78913302  1
  Bi2+  Bi74  1  0.20212273  0.32316919  0.30037529  1
  Bi2+  Bi75  1  0.31529626  0.38278393  0.80190880  1
  Bi2+  Bi76  1  0.20630296  0.67320597  0.26716467  1
  Bi2+  Bi77  1  0.27977552  0.62650524  0.78536880  1
  Bi2+  Bi78  1  0.26296124  0.88545444  0.29509747  1
  Bi2+  Bi79  1  0.21677314  0.90140266  0.80373955  1
  Bi2+  Bi80  1  0.55685670  0.17573380  0.30609220  1
  Bi2+  Bi81  1  0.59266066  0.09510414  0.73729947  1
  Bi2+  Bi82  1  0.46787879  0.37924109  0.28437179  1
  Bi2+  Bi83  1  0.62802792  0.34568714  0.78977731  1
  Bi2+  Bi84  1  0.44265164  0.64327278  0.30766754  1
  Bi2+  Bi85  1  0.52833022  0.62254383  0.78791974  1
  Bi2+  Bi86  1  0.49363900  0.91501083  0.28848825  1
  Bi2+  Bi87  1  0.59393691  0.90462170  0.78232572  1
  Bi2+  Bi88  1  0.71417760  0.06372035  0.31463731  1
  Bi2+  Bi89  1  0.77702627  0.07530250  0.77902442  1
  Bi2+  Bi90  1  0.76993116  0.34157509  0.29290298  1
  Bi2+  Bi91  1  0.82565924  0.34527694  0.78844464  1
  Bi2+  Bi92  1  0.71311040  0.58979297  0.27257628  1
  Bi2+  Bi93  1  0.76953723  0.60953751  0.81683683  1
  Bi2+  Bi94  1  0.73846034  0.78595775  0.29967509  1
  Bi2+  Bi95  1  0.73909759  0.80380928  0.82878289  1
  Bi2+  Bi96  1  0.12655737  -0.01059978  0.17831138  1
  Bi2+  Bi97  1  0.09764279  -0.02456566  0.72564173  1
  Bi2+  Bi98  1  0.08465090  0.23744281  0.19944048  1
  Bi2+  Bi99  1  0.14825055  0.24064632  0.69984004  1
  Bi2+  Bi100  1  0.12156871  0.50583101  0.20336921  1
  Bi2+  Bi101  1  0.19141911  0.48428658  0.70857839  1
  Bi2+  Bi102  1  0.05878150  0.74583362  0.20409618  1
  Bi2+  Bi103  1  0.10608334  0.73975586  0.71356012  1
  Bi2+  Bi104  1  0.41018242  0.02474961  0.20563687  1
  Bi2+  Bi105  1  0.38478210  0.03665463  0.71716371  1
  Bi2+  Bi106  1  0.35907687  0.34138766  0.19038297  1
  Bi2+  Bi107  1  0.44368637  0.26788048  0.75135168  1
  Bi2+  Bi108  1  0.29266831  0.48886571  0.25569468  1
  Bi2+  Bi109  1  0.43401176  0.47986859  0.73371487  1
  Bi2+  Bi110  1  0.36179460  0.77619844  0.19751983  1
  Bi2+  Bi111  1  0.37247010  0.78546549  0.72213751  1
  Bi2+  Bi112  1  0.61161933  0.01321422  0.21570418  1
  Bi2+  Bi113  1  0.74288763  0.01075447  0.67258866  1
  Bi2+  Bi114  1  0.60336276  0.23369902  0.19945948  1
  Bi2+  Bi115  1  0.59485776  0.28534169  0.67714922  1
  Bi2+  Bi116  1  0.63205521  0.43490630  0.21749199  1
  Bi2+  Bi117  1  0.65419370  0.47192516  0.69628362  1
  Bi2+  Bi118  1  0.61151575  0.74573691  0.20935617  1
  Bi2+  Bi119  1  0.62387927  0.74735489  0.71362840  1
  Bi2+  Bi120  1  0.79569693  -0.05994548  0.23054145  1
  Bi2+  Bi121  1  0.92115783  -0.05993755  0.67938342  1
  Bi2+  Bi122  1  0.79350693  0.23327728  0.19242883  1
  Bi2+  Bi123  1  0.87210413  0.20677578  0.71353518  1
  Bi2+  Bi124  1  0.92443982  0.47362187  0.22958259  1
  Bi2+  Bi125  1  0.84460253  0.51221546  0.72254858  1
  Bi2+  Bi126  1  0.88051336  0.66575655  0.22970590  1
  Bi2+  Bi127  1  0.82422741  0.76874757  0.72467966  1
  S2-  S128  1  -0.00408688  0.08982909  0.17604729  1
  S2-  S129  1  0.00317342  0.19490685  0.64491823  1
  S2-  S130  1  -0.04235776  0.27207230  0.14269275  1
  S2-  S131  1  0.05450326  0.38574818  0.69164405  1
  S2-  S132  1  -0.01464860  0.52745774  0.13623215  1
  S2-  S133  1  0.10189021  0.59640492  0.65632710  1
  S2-  S134  1  -0.00911057  0.88161927  0.15650231  1
  S2-  S135  1  -0.00621224  0.76688071  0.64362035  1
  S2-  S136  1  0.20015687  0.14483472  0.15229224  1
  S2-  S137  1  0.26154999  0.11403170  0.66694468  1
  S2-  S138  1  0.14537235  0.37088345  0.14252217  1
  S2-  S139  1  0.26560138  0.34120385  0.66684680  1
  S2-  S140  1  0.25056450  0.72032208  0.13192166  1
  S2-  S141  1  0.31770951  0.56858448  0.67392619  1
  S2-  S142  1  0.29238593  0.93339479  0.15516058  1
  S2-  S143  1  0.23676851  0.76403745  0.65653796  1
  S2-  S144  1  0.47522830  0.15883482  0.14684931  1
  S2-  S145  1  0.50393501  0.07878163  0.64625452  1
  S2-  S146  1  0.49429992  0.42636569  0.14973369  1
  S2-  S147  1  0.50476687  0.47291043  0.64161508  1
  S2-  S148  1  0.44572723  0.63707061  0.19953315  1
  S2-  S149  1  0.47819618  0.72981196  0.65664862  1
  S2-  S150  1  0.49747796  0.81213165  0.13767116  1
  S2-  S151  1  0.37091436  0.91027843  0.65417227  1
  S2-  S152  1  0.74034571  0.03685504  0.14282328  1
  S2-  S153  1  0.74027039  0.22302817  0.63819617  1
  S2-  S154  1  0.75683459  0.39050553  0.15140776  1
  S2-  S155  1  0.84852374  0.40104487  0.64851205  1
  S2-  S156  1  0.64976256  0.62230773  0.14525568  1
  S2-  S157  1  0.66255243  0.61811411  0.64572505  1
  S2-  S158  1  0.74581925  0.81163671  0.16408282  1
  S2-  S159  1  0.64424805  0.87710654  0.64141022  1
  S2-  S160  1  0.13994568  -0.00206276  0.27223415  1
  S2-  S161  1  0.12279152  0.03220487  0.85292366  1
  S2-  S162  1  0.12587050  0.19491652  0.34483831  1
  S2-  S163  1  0.22910418  0.26295215  0.85312384  1
  S2-  S164  1  0.11673332  0.45351552  0.35284979  1
  S2-  S165  1  0.18188466  0.49178992  0.82787105  1
  S2-  S166  1  0.13217317  0.84402780  0.35711785  1
  S2-  S167  1  0.18154037  0.73906409  0.83034181  1
  S2-  S168  1  0.30127042  0.01522990  0.35179159  1
  S2-  S169  1  0.36248198  0.06858874  0.82791794  1
  S2-  S170  1  0.35421199  0.28438090  0.35195197  1
  S2-  S171  1  0.49830313  0.26402215  0.85021193  1
  S2-  S172  1  0.31981983  0.61943517  0.36763177  1
  S2-  S173  1  0.38517263  0.58742411  0.85632523  1
  S2-  S174  1  0.40402689  0.80427794  0.34598897  1
  S2-  S175  1  0.36279562  0.84685861  0.82624696  1
  S2-  S176  1  0.61727818  -0.12323742  0.35742333  1
  S2-  S177  1  0.60653388  0.03967846  0.84046916  1
  S2-  S178  1  0.64809093  0.36351481  0.35379884  1
  S2-  S179  1  0.74390008  0.24335794  0.85308169  1
  S2-  S180  1  0.47586071  0.49553488  0.35520439  1
  S2-  S181  1  0.62730349  0.50523601  0.84128900  1
  S2-  S182  1  0.62936261  0.63353547  0.35394345  1
  S2-  S183  1  0.54104640  0.74057834  0.85390178  1
  S2-  S184  1  0.95771114  -0.00348473  0.34854002  1
  S2-  S185  1  0.88601446  0.02329739  0.85082983  1
  S2-  S186  1  0.88320239  0.22412083  0.34277770  1
  S2-  S187  1  0.99810920  0.24717481  0.85620573  1
  S2-  S188  1  0.86462153  0.46310697  0.35017616  1
  S2-  S189  1  0.97614584  0.48852948  0.85706287  1
  S2-  S190  1  0.88969116  0.76927336  0.34472830  1
  S2-  S191  1  0.97106697  0.76025618  0.85860768  1
  S2-  S192  1  0.00592096  0.12214891  0.45133508  1
  S2-  S193  1  -0.00247684  0.12523474  0.96257249  1
  S2-  S194  1  -0.00087909  0.37088521  0.45830475  1
  S2-  S195  1  -0.00719427  0.37962515  0.96003190  1
  S2-  S196  1  -0.00118099  0.62291903  0.45922907  1
  S2-  S197  1  -0.00796337  0.63016220  0.95315569  1
  S2-  S198  1  -0.00178444  0.87255508  0.45936505  1
  S2-  S199  1  -0.00561730  0.88741868  0.95443181  1
  S2-  S200  1  0.24512361  0.12208860  0.45699166  1
  S2-  S201  1  0.24852025  0.12563695  0.95226410  1
  S2-  S202  1  0.25175236  0.37573731  0.45927638  1
  S2-  S203  1  0.24941399  0.38769256  0.95375679  1
  S2-  S204  1  0.24259706  0.62184574  0.47292243  1
  S2-  S205  1  0.24300360  0.63036218  0.94544295  1
  S2-  S206  1  0.25251118  0.86873650  0.46550802  1
  S2-  S207  1  0.24487086  0.87773096  0.94935225  1
  S2-  S208  1  0.49716496  0.11940196  0.44478377  1
  S2-  S209  1  0.49240443  0.12536164  0.94527489  1
  S2-  S210  1  0.49550741  0.36892894  0.45431098  1
  S2-  S211  1  0.49298730  0.38628347  0.95091947  1
  S2-  S212  1  0.50036313  0.61879555  0.46223269  1
  S2-  S213  1  0.49965361  0.62979026  0.95821785  1
  S2-  S214  1  0.49671666  0.87294816  0.46179623  1
  S2-  S215  1  0.49606542  0.88237924  0.94323553  1
  S2-  S216  1  0.74980244  0.12158224  0.44891818  1
  S2-  S217  1  0.74433616  0.12755070  0.95544501  1
  S2-  S218  1  0.75495518  0.37088347  0.45964114  1
  S2-  S219  1  0.74326799  0.38305364  0.94649769  1
  S2-  S220  1  0.75533078  0.61777696  0.45157170  1
  S2-  S221  1  0.74624726  0.63168271  0.95530606  1
  S2-  S222  1  0.75336236  0.87544148  0.45334673  1
  S2-  S223  1  0.74822198  0.88517730  0.96089288  1
  S2-  S224  1  0.12363706  0.00200690  0.05253956  1
  S2-  S225  1  0.12369421  -0.00663896  0.56698369  1
  S2-  S226  1  0.12447583  0.25416372  0.04042968  1
  S2-  S227  1  0.12452865  0.24954665  0.54775621  1
  S2-  S228  1  0.12383851  0.51044088  0.03694107  1
  S2-  S229  1  0.11600913  0.49023678  0.55649213  1
  S2-  S230  1  0.11500952  0.75370394  0.03615971  1
  S2-  S231  1  0.12292973  0.75075537  0.54836160  1
  S2-  S232  1  0.37016026  0.00364661  0.03634190  1
  S2-  S233  1  0.37508970  -0.00226150  0.54540033  1
  S2-  S234  1  0.36975579  0.25833181  0.03779295  1
  S2-  S235  1  0.37645908  0.24572479  0.55371902  1
  S2-  S236  1  0.37321893  0.51042718  0.05052883  1
  S2-  S237  1  0.37336347  0.49702802  0.54635558  1
  S2-  S238  1  0.37692288  0.74931731  0.03313334  1
  S2-  S239  1  0.37634917  0.74267607  0.55103379  1
  S2-  S240  1  0.61458675  0.00727159  0.04399484  1
  S2-  S241  1  0.62469945  -0.00067766  0.53781568  1
  S2-  S242  1  0.61558779  0.25678286  0.03984124  1
  S2-  S243  1  0.62260420  0.24411694  0.53464154  1
  S2-  S244  1  0.61582534  0.50438214  0.04602939  1
  S2-  S245  1  0.63077202  0.48797826  0.53774592  1
  S2-  S246  1  0.62283983  0.75902463  0.04373122  1
  S2-  S247  1  0.62558031  0.74659344  0.54104427  1
  S2-  S248  1  0.87623301  0.00952822  0.05189743  1
  S2-  S249  1  0.87346380  -0.00076681  0.54353419  1
  S2-  S250  1  0.86439829  0.25582376  0.03696424  1
  S2-  S251  1  0.87801151  0.24482088  0.54419559  1
  S2-  S252  1  0.86198785  0.50719881  0.04035987  1
  S2-  S253  1  0.88198012  0.50024989  0.55022888  1
  S2-  S254  1  0.86876541  0.75580669  0.04889583  1
  S2-  S255  1  0.86668690  0.74835829  0.55009013  1
