# generated using pymatgen
data_La9Ce10Pr6Nd4Sm3(BiS2)32
_symmetry_space_group_name_H-M   'P 1'
_cell_length_a   16.20207355
_cell_length_b   16.16005801
_cell_length_c   27.12213010
_cell_angle_alpha   90.17330306
_cell_angle_beta   89.86008032
_cell_angle_gamma   90.03409412
_symmetry_Int_Tables_number   1
_chemical_formula_structural   La9Ce10Pr6Nd4Sm3(BiS2)32
_chemical_formula_sum   'La18 Ce20 Pr12 Nd8 Sm6 Bi64 S128'
_cell_volume   7101.23611163
_cell_formula_units_Z   2
loop_
 _symmetry_equiv_pos_site_id
 _symmetry_equiv_pos_as_xyz
  1  'x, y, z'
loop_
 _atom_type_symbol
 _atom_type_oxidation_number
  La3+  3.0
  Ce3+  3.0
  Pr3+  3.0
  Nd3+  3.0
  Sm3+  3.0
  Bi2+  2.0
  S2-  -2.0
loop_
 _atom_site_type_symbol
 _atom_site_label
 _atom_site_symmetry_multiplicity
 _atom_site_fract_x
 _atom_site_fract_y
 _atom_site_fract_z
 _atom_site_occupancy
  La3+  La0  1  0.62145188  -0.01186277  0.42663731  1
  La3+  La1  1  0.24231652  0.37099292  0.57418094  1
  La3+  La2  1  0.24947950  0.61451190  0.10405300  1
  La3+  La3  1  0.62570266  0.22978791  0.92056998  1
  La3+  La4  1  0.61848986  0.74033475  0.93578521  1
  La3+  La5  1  0.87279573  0.23655437  0.43856836  1
  La3+  La6  1  0.11790725  0.48478146  0.41490595  1
  La3+  La7  1  0.11668667  0.24325980  0.91865448  1
  La3+  La8  1  0.23823470  0.10936523  0.59201426  1
  La3+  La9  1  0.49225485  0.36376843  0.05661940  1
  La3+  La10  1  0.74695590  0.13868285  0.11167509  1
  La3+  La11  1  0.87710140  -0.01098752  0.39791581  1
  La3+  La12  1  -0.00125399  0.86616984  0.06854973  1
  La3+  La13  1  0.38359888  0.47208349  0.41700532  1
  La3+  La14  1  0.50431288  0.11188975  0.59075845  1
  La3+  La15  1  0.01102974  0.62389423  0.57187095  1
  La3+  La16  1  0.36917110  0.48753379  0.93109550  1
  La3+  La17  1  0.86739722  -0.00726044  0.94252475  1
  Ce3+  Ce18  1  0.49184482  0.61831681  0.06041818  1
  Ce3+  Ce19  1  0.87504358  0.48601532  0.44013340  1
  Ce3+  Ce20  1  0.74587509  0.62033097  0.06887398  1
  Ce3+  Ce21  1  0.62700633  0.73973931  0.43701745  1
  Ce3+  Ce22  1  0.74173746  0.36554498  0.05537978  1
  Ce3+  Ce23  1  0.24735116  0.61198246  0.54257226  1
  Ce3+  Ce24  1  0.49302648  0.11841105  0.06178765  1
  Ce3+  Ce25  1  0.00000492  0.11276377  0.55238770  1
  Ce3+  Ce26  1  0.37628242  0.24086283  0.46136465  1
  Ce3+  Ce27  1  0.13097978  0.24093740  0.44095859  1
  Ce3+  Ce28  1  0.11845488  -0.00288515  0.94417509  1
  Ce3+  Ce29  1  0.49326980  0.61365757  0.55673015  1
  Ce3+  Ce30  1  0.00024528  0.36815562  0.55952747  1
  Ce3+  Ce31  1  0.49746051  0.37612458  0.57580917  1
  Ce3+  Ce32  1  0.74062647  0.87599803  0.07248243  1
  Ce3+  Ce33  1  0.75332892  0.62048913  0.55692088  1
  Ce3+  Ce34  1  -0.00457479  0.12216828  0.06402303  1
  Ce3+  Ce35  1  0.25121069  0.12174215  0.05978682  1
  Ce3+  Ce36  1  0.86480859  0.24079591  0.94419329  1
  Ce3+  Ce37  1  0.62488439  0.48845219  0.44556950  1
  Pr3+  Pr38  1  0.86848492  0.74295549  0.94839098  1
  Pr3+  Pr39  1  0.86680212  0.49400737  0.93937298  1
  Pr3+  Pr40  1  0.37705888  -0.00512510  0.43799733  1
  Pr3+  Pr41  1  -0.00264431  0.36637991  0.05982469  1
  Pr3+  Pr42  1  0.36755671  0.74036213  0.94386902  1
  Pr3+  Pr43  1  0.49779832  0.86397225  0.56213647  1
  Pr3+  Pr44  1  0.11653454  0.49811423  0.93412551  1
  Pr3+  Pr45  1  0.75208281  0.85879958  0.55952709  1
  Pr3+  Pr46  1  -0.00780580  0.61006133  0.07282649  1
  Pr3+  Pr47  1  0.49096843  0.86704945  0.06496476  1
  Pr3+  Pr48  1  0.36536868  0.23184799  0.91602855  1
  Pr3+  Pr49  1  0.75224837  0.36628722  0.56474005  1
  Nd3+  Nd50  1  0.12506973  0.74130370  0.43185671  1
  Nd3+  Nd51  1  0.12856109  -0.00704284  0.43369030  1
  Nd3+  Nd52  1  0.87652053  0.73930260  0.42904315  1
  Nd3+  Nd53  1  0.61940214  -0.01469381  0.94033245  1
  Nd3+  Nd54  1  0.24253161  0.36891109  0.05850102  1
  Nd3+  Nd55  1  0.74965838  0.10295855  0.56869973  1
  Nd3+  Nd56  1  0.11860372  0.73743341  0.93640303  1
  Nd3+  Nd57  1  0.37606221  0.73860628  0.43305858  1
  Sm3+  Sm58  1  0.24268485  0.86676132  0.05012698  1
  Sm3+  Sm59  1  0.25148673  0.87024864  0.55579207  1
  Sm3+  Sm60  1  0.36986002  -0.00749054  0.93833884  1
  Sm3+  Sm61  1  0.62276186  0.23705596  0.45338875  1
  Sm3+  Sm62  1  0.00081969  0.86560876  0.55184346  1
  Sm3+  Sm63  1  0.61860740  0.49111245  0.94786428  1
  Bi2+  Bi64  1  0.06670403  0.12572130  0.29743000  1
  Bi2+  Bi65  1  -0.01255534  0.11600543  0.78838020  1
  Bi2+  Bi66  1  -0.01798077  0.36212676  0.29906339  1
  Bi2+  Bi67  1  -0.01894001  0.37642924  0.78135700  1
  Bi2+  Bi68  1  -0.10603322  0.62560115  0.29190524  1
  Bi2+  Bi69  1  -0.01894201  0.64001600  0.79519401  1
  Bi2+  Bi70  1  0.00760347  0.84883713  0.28500606  1
  Bi2+  Bi71  1  0.03678305  0.83558727  0.78957623  1
  Bi2+  Bi72  1  0.25132001  0.08088088  0.33557122  1
  Bi2+  Bi73  1  0.23718427  0.10537044  0.78349783  1
  Bi2+  Bi74  1  0.18090058  0.29796870  0.25624928  1
  Bi2+  Bi75  1  0.24822784  0.39408336  0.79797690  1
  Bi2+  Bi76  1  0.26636325  0.65674614  0.30362196  1
  Bi2+  Bi77  1  0.28705338  0.68320516  0.77525534  1
  Bi2+  Bi78  1  0.24607753  0.91156099  0.28214568  1
  Bi2+  Bi79  1  0.22976988  0.87149632  0.79077209  1
  Bi2+  Bi80  1  0.42491826  0.11868935  0.28454932  1
  Bi2+  Bi81  1  0.50154710  0.11068074  0.79185580  1
  Bi2+  Bi82  1  0.48811625  0.32881752  0.30042659  1
  Bi2+  Bi83  1  0.51497525  0.42224258  0.80524112  1
  Bi2+  Bi84  1  0.51889549  0.65113396  0.28269611  1
  Bi2+  Bi85  1  0.55034137  0.66092383  0.80266978  1
  Bi2+  Bi86  1  0.49564601  0.86648557  0.29276958  1
  Bi2+  Bi87  1  0.50884096  0.85960377  0.78710500  1
  Bi2+  Bi88  1  0.74251434  0.18144516  0.31959104  1
  Bi2+  Bi89  1  0.77054355  0.08461461  0.79476385  1
  Bi2+  Bi90  1  0.70228059  0.44205536  0.30992704  1
  Bi2+  Bi91  1  0.78900768  0.37915626  0.79773339  1
  Bi2+  Bi92  1  0.70323486  0.64404470  0.31926714  1
  Bi2+  Bi93  1  0.78923758  0.63476361  0.72413905  1
  Bi2+  Bi94  1  0.73580163  0.83140452  0.27213360  1
  Bi2+  Bi95  1  0.76757364  0.82856162  0.79155976  1
  Bi2+  Bi96  1  0.16771236  0.05528158  0.21059212  1
  Bi2+  Bi97  1  0.10182773  -0.02598397  0.70901470  1
  Bi2+  Bi98  1  0.13908464  0.22833684  0.14835935  1
  Bi2+  Bi99  1  0.07558711  0.24444328  0.71481262  1
  Bi2+  Bi100  1  0.12103743  0.50616270  0.22098749  1
  Bi2+  Bi101  1  0.13095549  0.50676976  0.69968490  1
  Bi2+  Bi102  1  0.13960932  0.78488784  0.20135076  1
  Bi2+  Bi103  1  0.15057318  0.75503833  0.70492850  1
  Bi2+  Bi104  1  0.35889020  -0.00728356  0.19965063  1
  Bi2+  Bi105  1  0.37239985  -0.08365682  0.71225064  1
  Bi2+  Bi106  1  0.35401338  0.25235281  0.21278136  1
  Bi2+  Bi107  1  0.37974009  0.27517480  0.71364325  1
  Bi2+  Bi108  1  0.37394601  0.48095516  0.21344453  1
  Bi2+  Bi109  1  0.38099922  0.55143532  0.71081544  1
  Bi2+  Bi110  1  0.49524902  0.76561024  0.19201603  1
  Bi2+  Bi111  1  0.41886576  0.73711802  0.67266328  1
  Bi2+  Bi112  1  0.62030676  0.02924481  0.21967479  1
  Bi2+  Bi113  1  0.63704757  -0.01931020  0.71171058  1
  Bi2+  Bi114  1  0.60722648  0.28185151  0.20777179  1
  Bi2+  Bi115  1  0.63316945  0.24149362  0.72246452  1
  Bi2+  Bi116  1  0.62883375  0.53501148  0.21478063  1
  Bi2+  Bi117  1  0.63854863  0.51790250  0.73854663  1
  Bi2+  Bi118  1  0.68544068  0.72972121  0.17833351  1
  Bi2+  Bi119  1  0.60736562  0.74326384  0.70481781  1
  Bi2+  Bi120  1  0.88060069  0.01436678  0.22106474  1
  Bi2+  Bi121  1  0.89946919  0.01923221  0.69846031  1
  Bi2+  Bi122  1  0.97647314  0.28853806  0.19654638  1
  Bi2+  Bi123  1  0.87594430  0.21694282  0.71220745  1
  Bi2+  Bi124  1  0.81728288  0.49196582  0.22186884  1
  Bi2+  Bi125  1  0.85459227  0.45054335  0.69564412  1
  Bi2+  Bi126  1  0.87960665  0.75387318  0.20382316  1
  Bi2+  Bi127  1  0.89315442  0.81907114  0.70353508  1
  S2-  S128  1  -0.08578794  0.12384067  0.15409086  1
  S2-  S129  1  0.07239504  0.10664572  0.64131070  1
  S2-  S130  1  0.00315386  0.44008380  0.15231561  1
  S2-  S131  1  0.09783175  0.36842462  0.64082507  1
  S2-  S132  1  0.09285959  0.63840406  0.15391737  1
  S2-  S133  1  -0.01515774  0.55354424  0.66671442  1
  S2-  S134  1  -0.01872463  0.89632397  0.16993950  1
  S2-  S135  1  0.01125972  0.77371703  0.63669378  1
  S2-  S136  1  0.36767864  0.13294986  0.13434477  1
  S2-  S137  1  0.24408817  0.18890241  0.68808598  1
  S2-  S138  1  0.24402238  0.45582473  0.14989453  1
  S2-  S139  1  0.29671173  0.42018148  0.67196355  1
  S2-  S140  1  0.26466070  0.68036782  0.20562575  1
  S2-  S141  1  0.18002605  0.61413077  0.63415105  1
  S2-  S142  1  0.24843368  0.87270309  0.14816422  1
  S2-  S143  1  0.24327840  0.95380752  0.64444708  1
  S2-  S144  1  0.58038444  0.14057425  0.14874467  1
  S2-  S145  1  0.44153352  0.13416142  0.69179170  1
  S2-  S146  1  0.47030537  0.36111552  0.15864025  1
  S2-  S147  1  0.52653444  0.32043483  0.66848156  1
  S2-  S148  1  0.42090752  0.58977411  0.14816941  1
  S2-  S149  1  0.49292240  0.51997053  0.63907352  1
  S2-  S150  1  0.51293516  0.93344462  0.15910359  1
  S2-  S151  1  0.50987655  0.95593360  0.64806395  1
  S2-  S152  1  0.73254120  0.15383524  0.22271884  1
  S2-  S153  1  0.64961947  0.12253581  0.65244802  1
  S2-  S154  1  0.73474335  0.31368585  0.14816224  1
  S2-  S155  1  0.75127017  0.32071690  0.66221855  1
  S2-  S156  1  0.85925023  0.60803372  0.14461852  1
  S2-  S157  1  0.76729477  0.72441886  0.63595495  1
  S2-  S158  1  0.75006190  0.97334064  0.15628791  1
  S2-  S159  1  0.75721124  0.95783621  0.64473359  1
  S2-  S160  1  0.04055481  -0.02866547  0.34687147  1
  S2-  S161  1  0.11343610  0.07128362  0.85506393  1
  S2-  S162  1  0.12865727  0.33218604  0.35633240  1
  S2-  S163  1  0.23012913  0.23488266  0.84087541  1
  S2-  S164  1  0.15101224  0.53925699  0.31344761  1
  S2-  S165  1  0.11090641  0.39356885  0.85121243  1
  S2-  S166  1  0.11850274  0.75282312  0.33152787  1
  S2-  S167  1  0.10116360  0.62792612  0.85721801  1
  S2-  S168  1  0.48444963  0.00490024  0.35615792  1
  S2-  S169  1  0.37222845  0.07441360  0.84890772  1
  S2-  S170  1  0.37223050  0.30964845  0.36994881  1
  S2-  S171  1  0.39683928  0.31641897  0.82434277  1
  S2-  S172  1  0.36036358  0.52635142  0.31733416  1
  S2-  S173  1  0.34765624  0.51961166  0.83121305  1
  S2-  S174  1  0.35307922  0.80436268  0.34043302  1
  S2-  S175  1  0.40606579  0.74652351  0.84486060  1
  S2-  S176  1  0.72527939  0.02490314  0.34684276  1
  S2-  S177  1  0.62172780  0.07398120  0.85307866  1
  S2-  S178  1  0.59246365  0.22428808  0.35435535  1
  S2-  S179  1  0.58773891  0.27403840  0.82238791  1
  S2-  S180  1  0.54789559  0.45824688  0.36016868  1
  S2-  S181  1  0.63657257  0.53376266  0.85272025  1
  S2-  S182  1  0.62013751  0.83560980  0.35461306  1
  S2-  S183  1  0.63575355  0.85320564  0.85946970  1
  S2-  S184  1  0.90205794  0.10440049  0.31451577  1
  S2-  S185  1  0.84690046  -0.03578424  0.84210346  1
  S2-  S186  1  0.84453652  0.32248926  0.35061807  1
  S2-  S187  1  0.79405909  0.23275967  0.85436925  1
  S2-  S188  1  0.96244090  0.50500302  0.35576188  1
  S2-  S189  1  0.88994380  0.50449180  0.83877958  1
  S2-  S190  1  0.86307690  0.83671994  0.34425336  1
  S2-  S191  1  0.85253859  0.71898039  0.84859024  1
  S2-  S192  1  0.00059376  0.11383666  0.44624897  1
  S2-  S193  1  -0.00822752  0.12042712  0.95543779  1
  S2-  S194  1  -0.00254475  0.36106538  0.45591834  1
  S2-  S195  1  -0.01176345  0.36721317  0.95186102  1
  S2-  S196  1  0.00215860  0.62031723  0.45267109  1
  S2-  S197  1  -0.01071434  0.61856217  0.96329603  1
  S2-  S198  1  0.00057504  0.86412486  0.44854634  1
  S2-  S199  1  -0.00263229  0.86589898  0.95467415  1
  S2-  S200  1  0.25111828  0.11664990  0.46190037  1
  S2-  S201  1  0.24569793  0.11472343  0.95444748  1
  S2-  S202  1  0.24780007  0.36649379  0.46263373  1
  S2-  S203  1  0.24579042  0.36493830  0.94994483  1
  S2-  S204  1  0.25028139  0.61142739  0.43714597  1
  S2-  S205  1  0.24692748  0.61787973  0.94692159  1
  S2-  S206  1  0.25077197  0.86729121  0.44992078  1
  S2-  S207  1  0.24257980  0.86857961  0.94444597  1
  S2-  S208  1  0.49906006  0.11822776  0.46644798  1
  S2-  S209  1  0.49198376  0.11508078  0.95363541  1
  S2-  S210  1  0.50498016  0.36263028  0.46908326  1
  S2-  S211  1  0.49933175  0.36440247  0.94622654  1
  S2-  S212  1  0.49849864  0.61496695  0.44820180  1
  S2-  S213  1  0.49384177  0.61502953  0.95323999  1
  S2-  S214  1  0.49470321  0.86118957  0.45591846  1
  S2-  S215  1  0.48957809  0.86766481  0.95610136  1
  S2-  S216  1  0.74972005  0.11521766  0.45937073  1
  S2-  S217  1  0.74508204  0.11342420  0.95587285  1
  S2-  S218  1  0.74645753  0.36375602  0.45869634  1
  S2-  S219  1  0.74040904  0.36944561  0.94956263  1
  S2-  S220  1  0.75295615  0.61369430  0.45088351  1
  S2-  S221  1  0.74176225  0.61706349  0.95992444  1
  S2-  S222  1  0.75358978  0.86341034  0.45242855  1
  S2-  S223  1  0.74507907  0.86671434  0.96409670  1
  S2-  S224  1  0.12224856  -0.00527631  0.05066691  1
  S2-  S225  1  0.12398440  -0.01346755  0.53916542  1
  S2-  S226  1  0.11999292  0.24373236  0.03310414  1
  S2-  S227  1  0.12506758  0.23737235  0.54561331  1
  S2-  S228  1  0.12170658  0.49409332  0.04219096  1
  S2-  S229  1  0.11947263  0.49204818  0.53443930  1
  S2-  S230  1  0.12301824  0.74214978  0.04405564  1
  S2-  S231  1  0.13213919  0.74822787  0.53661960  1
  S2-  S232  1  0.36687216  -0.01169153  0.04155883  1
  S2-  S233  1  0.37330980  -0.00672027  0.54726741  1
  S2-  S234  1  0.36596966  0.24711992  0.03274522  1
  S2-  S235  1  0.37028041  0.23977123  0.56743096  1
  S2-  S236  1  0.36740659  0.49179176  0.04049669  1
  S2-  S237  1  0.37020248  0.49146753  0.53787777  1
  S2-  S238  1  0.36260988  0.74038304  0.05128828  1
  S2-  S239  1  0.36862927  0.74087528  0.54002751  1
  S2-  S240  1  0.61513318  -0.00944132  0.04701981  1
  S2-  S241  1  0.62555132  -0.01475040  0.54093056  1
  S2-  S242  1  0.61947746  0.24293123  0.03955779  1
  S2-  S243  1  0.62655067  0.24202631  0.55541133  1
  S2-  S244  1  0.61854457  0.49444895  0.05376993  1
  S2-  S245  1  0.63152550  0.49460157  0.55111647  1
  S2-  S246  1  0.61722524  0.74390126  0.04660269  1
  S2-  S247  1  0.61993195  0.73678263  0.54358929  1
  S2-  S248  1  0.87582176  -0.00841688  0.05042087  1
  S2-  S249  1  0.88036762  -0.01318878  0.54532172  1
  S2-  S250  1  0.86887548  0.24350933  0.04914014  1
  S2-  S251  1  0.87459224  0.23660427  0.55042049  1
  S2-  S252  1  0.86560427  0.48735298  0.04567178  1
  S2-  S253  1  0.87679002  0.49488337  0.54805799  1
  S2-  S254  1  0.86769455  0.74899955  0.05401304  1
  S2-  S255  1  0.88129194  0.73977501  0.53471684  1
