# generated using pymatgen
data_La9Ce10Pr6Nd4Sm3(BiS2)32
_symmetry_space_group_name_H-M   'P 1'
_cell_length_a   16.09645758
_cell_length_b   16.12697165
_cell_length_c   27.10398342
_cell_angle_alpha   89.32138790
_cell_angle_beta   90.10695844
_cell_angle_gamma   89.85759174
_symmetry_Int_Tables_number   1
_chemical_formula_structural   La9Ce10Pr6Nd4Sm3(BiS2)32
_chemical_formula_sum   'La18 Ce20 Pr12 Nd8 Sm6 Bi64 S128'
_cell_volume   7035.31699300
_cell_formula_units_Z   2
loop_
 _symmetry_equiv_pos_site_id
 _symmetry_equiv_pos_as_xyz
  1  'x, y, z'
loop_
 _atom_type_symbol
 _atom_type_oxidation_number
  La3+  3.0
  Ce3+  3.0
  Pr3+  3.0
  Nd3+  3.0
  Sm3+  3.0
  Bi2+  2.0
  S2-  -2.0
loop_
 _atom_site_type_symbol
 _atom_site_label
 _atom_site_symmetry_multiplicity
 _atom_site_fract_x
 _atom_site_fract_y
 _atom_site_fract_z
 _atom_site_occupancy
  La3+  La0  1  0.76419676  0.39191360  0.08565434  1
  La3+  La1  1  0.02053748  0.37856899  0.60168476  1
  La3+  La2  1  0.13324928  0.75731684  0.43017319  1
  La3+  La3  1  0.76431501  0.14046071  0.07822082  1
  La3+  La4  1  0.63382573  0.27469177  0.94989249  1
  La3+  La5  1  0.38033492  0.50075202  0.43056144  1
  La3+  La6  1  0.50614306  0.40032410  0.08602618  1
  La3+  La7  1  0.38889571  0.76955912  0.91878336  1
  La3+  La8  1  0.38848076  0.74906409  0.42406441  1
  La3+  La9  1  0.51066962  0.37702593  0.55526848  1
  La3+  La10  1  0.50271061  0.13405020  0.08287259  1
  La3+  La11  1  0.38463483  0.25492869  0.41390876  1
  La3+  La12  1  0.63740228  0.50506484  0.43274334  1
  La3+  La13  1  0.12594030  0.02652278  0.89919401  1
  La3+  La14  1  0.01549699  0.39896522  0.07256399  1
  La3+  La15  1  0.63364182  0.00449777  0.42770187  1
  La3+  La16  1  0.13303095  0.27324006  0.92858789  1
  La3+  La17  1  0.89513065  0.26563692  0.39582527  1
  Ce3+  Ce18  1  0.75870348  0.89367269  0.06510289  1
  Ce3+  Ce19  1  0.88371493  0.51831546  0.94270497  1
  Ce3+  Ce20  1  0.26536487  0.39376758  0.05621470  1
  Ce3+  Ce21  1  0.01357947  0.64624022  0.05117825  1
  Ce3+  Ce22  1  0.75878233  0.87971480  0.56703659  1
  Ce3+  Ce23  1  0.63662064  0.03106268  0.93106533  1
  Ce3+  Ce24  1  0.26186222  0.12871855  0.56430820  1
  Ce3+  Ce25  1  0.00645704  0.87809712  0.56042200  1
  Ce3+  Ce26  1  0.13299579  0.00962805  0.44692871  1
  Ce3+  Ce27  1  0.63797549  0.51761713  0.94708783  1
  Ce3+  Ce28  1  0.26186098  0.64855536  0.05262037  1
  Ce3+  Ce29  1  0.76233086  0.13134760  0.55522062  1
  Ce3+  Ce30  1  0.88489559  0.75876454  0.43803927  1
  Ce3+  Ce31  1  0.51128489  0.89512698  0.05095570  1
  Ce3+  Ce32  1  0.26318997  0.14253818  0.04787172  1
  Ce3+  Ce33  1  0.63317003  0.75575191  0.44438054  1
  Ce3+  Ce34  1  0.88376071  0.77406446  0.94138670  1
  Ce3+  Ce35  1  0.39003089  0.26879608  0.93383631  1
  Ce3+  Ce36  1  0.12750336  0.25553048  0.44971453  1
  Ce3+  Ce37  1  0.26349913  0.89648077  0.04913007  1
  Pr3+  Pr38  1  0.76383883  0.37513426  0.55767986  1
  Pr3+  Pr39  1  0.13548284  0.51907070  0.93102476  1
  Pr3+  Pr40  1  0.64205733  0.25296742  0.40657209  1
  Pr3+  Pr41  1  0.50627449  0.62807354  0.57455457  1
  Pr3+  Pr42  1  0.01342858  0.14386887  0.05945600  1
  Pr3+  Pr43  1  0.51417560  0.12729276  0.55859561  1
  Pr3+  Pr44  1  0.12815433  0.50141298  0.44706485  1
  Pr3+  Pr45  1  0.51207433  0.87649707  0.57030117  1
  Pr3+  Pr46  1  0.01244232  0.62863279  0.57637696  1
  Pr3+  Pr47  1  0.88415717  0.27765794  0.94006729  1
  Pr3+  Pr48  1  0.38672020  0.00950120  0.43463443  1
  Pr3+  Pr49  1  0.63763844  0.76966084  0.93187570  1
  Nd3+  Nd50  1  0.26020914  0.63203072  0.56757345  1
  Nd3+  Nd51  1  0.75751267  0.62745157  0.56643664  1
  Nd3+  Nd52  1  0.13451830  0.77522906  0.92929418  1
  Nd3+  Nd53  1  0.87828628  0.02631848  0.93181327  1
  Nd3+  Nd54  1  0.51008677  0.64722532  0.06181418  1
  Nd3+  Nd55  1  0.26128054  0.87643285  0.55780105  1
  Nd3+  Nd56  1  0.38999194  0.51712155  0.93203653  1
  Nd3+  Nd57  1  0.39131950  0.02131044  0.91840882  1
  Sm3+  Sm58  1  0.88680209  0.50251812  0.44769926  1
  Sm3+  Sm59  1  0.26034354  0.37805434  0.56233216  1
  Sm3+  Sm60  1  0.01235189  0.89667637  0.05492631  1
  Sm3+  Sm61  1  0.88395333  0.01259200  0.43712038  1
  Sm3+  Sm62  1  0.76197157  0.64511858  0.06833564  1
  Sm3+  Sm63  1  0.00962478  0.12753538  0.56586337  1
  Bi2+  Bi64  1  0.02100957  0.14508675  0.27990309  1
  Bi2+  Bi65  1  -0.14410092  0.09222125  0.78123493  1
  Bi2+  Bi66  1  0.05356876  0.40757265  0.29398725  1
  Bi2+  Bi67  1  0.00412061  0.31508911  0.80823996  1
  Bi2+  Bi68  1  -0.03740038  0.64670434  0.28656963  1
  Bi2+  Bi69  1  -0.00637081  0.62488893  0.80260237  1
  Bi2+  Bi70  1  -0.08278006  0.89373611  0.30781128  1
  Bi2+  Bi71  1  -0.01791529  0.88354356  0.78203560  1
  Bi2+  Bi72  1  0.25117834  0.03588296  0.28371027  1
  Bi2+  Bi73  1  0.29323356  0.06843439  0.78254622  1
  Bi2+  Bi74  1  0.24694325  0.30783220  0.26514389  1
  Bi2+  Bi75  1  0.25351550  0.37349588  0.74759356  1
  Bi2+  Bi76  1  0.25839114  0.62206606  0.29588744  1
  Bi2+  Bi77  1  0.18681088  0.61710918  0.81364258  1
  Bi2+  Bi78  1  0.16942102  0.85981800  0.27726651  1
  Bi2+  Bi79  1  0.23947755  0.79501578  0.78448069  1
  Bi2+  Bi80  1  0.49835435  0.10122786  0.29419055  1
  Bi2+  Bi81  1  0.52636360  0.13004658  0.78909538  1
  Bi2+  Bi82  1  0.46540000  0.40210079  0.28329625  1
  Bi2+  Bi83  1  0.53253625  0.33209074  0.80875018  1
  Bi2+  Bi84  1  0.54617493  0.63427304  0.29447427  1
  Bi2+  Bi85  1  0.51711677  0.60743778  0.80644173  1
  Bi2+  Bi86  1  0.46552962  0.85817399  0.27902707  1
  Bi2+  Bi87  1  0.47928968  0.88718521  0.77860307  1
  Bi2+  Bi88  1  0.77092331  0.03174042  0.28413615  1
  Bi2+  Bi89  1  0.72325028  -0.04067416  0.75769269  1
  Bi2+  Bi90  1  0.77243888  0.44828932  0.29295540  1
  Bi2+  Bi91  1  0.76426452  0.40083307  0.79151217  1
  Bi2+  Bi92  1  0.76308126  0.65919117  0.30456497  1
  Bi2+  Bi93  1  0.71973536  0.58748477  0.82153262  1
  Bi2+  Bi94  1  0.73833769  0.84888419  0.34185443  1
  Bi2+  Bi95  1  0.72769553  0.78205407  0.80429935  1
  Bi2+  Bi96  1  0.10316396  0.00347330  0.20548245  1
  Bi2+  Bi97  1  0.14955106  -0.02661230  0.72481526  1
  Bi2+  Bi98  1  0.12913830  0.20660643  0.18886277  1
  Bi2+  Bi99  1  0.09795915  0.16113955  0.73118754  1
  Bi2+  Bi100  1  0.13514350  0.40633337  0.18853197  1
  Bi2+  Bi101  1  0.12265460  0.51922704  0.71813849  1
  Bi2+  Bi102  1  0.12227213  0.60663359  0.21741189  1
  Bi2+  Bi103  1  0.02816758  0.72905407  0.70454531  1
  Bi2+  Bi104  1  0.35953539  -0.01545342  0.19319656  1
  Bi2+  Bi105  1  0.33249202  -0.03903508  0.68358722  1
  Bi2+  Bi106  1  0.40030322  0.25119153  0.20332855  1
  Bi2+  Bi107  1  0.35416634  0.22117603  0.71946055  1
  Bi2+  Bi108  1  0.37799368  0.52220635  0.20729753  1
  Bi2+  Bi109  1  0.39821919  0.49912137  0.73556352  1
  Bi2+  Bi110  1  0.34517636  0.74971694  0.21217496  1
  Bi2+  Bi111  1  0.36736352  0.70638739  0.71374748  1
  Bi2+  Bi112  1  0.64698351  -0.10415384  0.24041805  1
  Bi2+  Bi113  1  0.52298177  0.00148812  0.68803415  1
  Bi2+  Bi114  1  0.64739645  0.25734256  0.23868892  1
  Bi2+  Bi115  1  0.62550320  0.26678126  0.68412380  1
  Bi2+  Bi116  1  0.66430596  0.65930803  0.20266184  1
  Bi2+  Bi117  1  0.59935161  0.50025236  0.72402438  1
  Bi2+  Bi118  1  0.52500171  0.78797180  0.16963310  1
  Bi2+  Bi119  1  0.63139227  0.74877580  0.70157445  1
  Bi2+  Bi120  1  0.89121774  -0.01783895  0.19028328  1
  Bi2+  Bi121  1  0.87412773  -0.08751700  0.68609686  1
  Bi2+  Bi122  1  0.89369431  0.24914554  0.21788150  1
  Bi2+  Bi123  1  0.86092724  0.22744234  0.68575885  1
  Bi2+  Bi124  1  0.88435333  0.51933235  0.21082466  1
  Bi2+  Bi125  1  0.85484552  0.54516798  0.73412394  1
  Bi2+  Bi126  1  0.89366997  0.78285628  0.21196959  1
  Bi2+  Bi127  1  0.82758289  0.72454569  0.68160136  1
  S2-  S128  1  -0.08314366  0.13838814  0.14550590  1
  S2-  S129  1  -0.02338195  0.10826571  0.66409973  1
  S2-  S130  1  -0.08799578  0.37906287  0.15470098  1
  S2-  S131  1  -0.00378438  0.31066510  0.70131077  1
  S2-  S132  1  0.00116123  0.60596762  0.14596411  1
  S2-  S133  1  -0.02312059  0.51679080  0.65856050  1
  S2-  S134  1  0.02214363  0.86825670  0.15385616  1
  S2-  S135  1  0.05539223  0.88337030  0.65521269  1
  S2-  S136  1  0.33952741  0.13543672  0.13763247  1
  S2-  S137  1  0.22291602  0.15752922  0.65916350  1
  S2-  S138  1  0.35158938  0.38740007  0.14235174  1
  S2-  S139  1  0.18620768  0.39014136  0.65275208  1
  S2-  S140  1  0.26331462  0.62518346  0.15066599  1
  S2-  S141  1  0.14517250  0.64038498  0.64750035  1
  S2-  S142  1  0.26711114  0.86205819  0.14712844  1
  S2-  S143  1  0.27593789  0.80694684  0.64994516  1
  S2-  S144  1  0.54772427  0.15457609  0.19060260  1
  S2-  S145  1  0.48318299  0.16961973  0.65675909  1
  S2-  S146  1  0.56162944  0.36482193  0.18991520  1
  S2-  S147  1  0.52064027  0.38474123  0.65723396  1
  S2-  S148  1  0.50098316  0.55466986  0.14780372  1
  S2-  S149  1  0.37172492  0.58364229  0.64441485  1
  S2-  S150  1  0.49838670  0.97135854  0.13858313  1
  S2-  S151  1  0.49067273  0.75577306  0.64827940  1
  S2-  S152  1  0.74735226  0.25724679  0.16086384  1
  S2-  S153  1  0.72006411  0.12990743  0.65118574  1
  S2-  S154  1  0.75084810  0.53225298  0.15017765  1
  S2-  S155  1  0.75385508  0.36513017  0.66048800  1
  S2-  S156  1  0.76713013  0.76890602  0.14126586  1
  S2-  S157  1  0.64289799  0.60170057  0.64474477  1
  S2-  S158  1  0.74346927  1.00016421  0.14388287  1
  S2-  S159  1  0.64613239  0.89620379  0.64227023  1
  S2-  S160  1  0.12441563  -0.02772295  0.35130523  1
  S2-  S161  1  -0.02771969  0.01824260  0.84407706  1
  S2-  S162  1  0.06553618  0.26080049  0.35614991  1
  S2-  S163  1  0.11557421  0.18269466  0.83733037  1
  S2-  S164  1  0.13274066  0.52409162  0.34550650  1
  S2-  S165  1  0.12194521  0.40087922  0.85383857  1
  S2-  S166  1  0.25160498  0.76596803  0.35200617  1
  S2-  S167  1  0.12603129  0.87363035  0.84448184  1
  S2-  S168  1  0.49883232  -0.02652204  0.35588571  1
  S2-  S169  1  0.35337678  -0.10850830  0.84284762  1
  S2-  S170  1  0.35310921  0.11952901  0.35111598  1
  S2-  S171  1  0.38250886  0.16142814  0.85148161  1
  S2-  S172  1  0.34132082  0.39006587  0.34709780  1
  S2-  S173  1  0.40399738  0.38990627  0.85924871  1
  S2-  S174  1  0.40105868  0.60867791  0.35053820  1
  S2-  S175  1  0.36588656  0.62821609  0.85200308  1
  S2-  S176  1  0.65166780  0.10811108  0.34231741  1
  S2-  S177  1  0.53334110  0.00076837  0.85114245  1
  S2-  S178  1  0.51262009  0.26164645  0.33474910  1
  S2-  S179  1  0.62590159  0.19619031  0.85507129  1
  S2-  S180  1  0.60815064  0.47670646  0.33351512  1
  S2-  S181  1  0.64404809  0.40661292  0.86934217  1
  S2-  S182  1  0.53633757  0.75736468  0.36043834  1
  S2-  S183  1  0.53225225  0.76809058  0.84806294  1
  S2-  S184  1  0.89647670  0.10311129  0.34995002  1
  S2-  S185  1  0.75660445  0.01143664  0.85519783  1
  S2-  S186  1  0.75776848  0.29015965  0.32760358  1
  S2-  S187  1  0.87146329  0.21509701  0.84297959  1
  S2-  S188  1  0.90821109  0.43821462  0.35454631  1
  S2-  S189  1  0.88930191  0.41628427  0.86217304  1
  S2-  S190  1  1.00011656  0.75547310  0.36080769  1
  S2-  S191  1  0.89372641  0.76953204  0.84210430  1
  S2-  S192  1  0.00521269  0.13142451  0.46027308  1
  S2-  S193  1  0.01044313  0.14465664  0.95286079  1
  S2-  S194  1  0.00342968  0.37642259  0.46233420  1
  S2-  S195  1  0.01227110  0.39973247  0.96403947  1
  S2-  S196  1  0.00534097  0.62718915  0.46185748  1
  S2-  S197  1  0.01094134  0.64655538  0.94522241  1
  S2-  S198  1  0.00590144  0.88833333  0.45622012  1
  S2-  S199  1  0.00947304  0.89939279  0.95036801  1
  S2-  S200  1  0.25563157  0.13369634  0.45784584  1
  S2-  S201  1  0.25282371  0.14054277  0.94435253  1
  S2-  S202  1  0.25403242  0.37432858  0.45772501  1
  S2-  S203  1  0.26189913  0.39565931  0.95229348  1
  S2-  S204  1  0.25501332  0.62671872  0.45688992  1
  S2-  S205  1  0.25563431  0.64877805  0.94925900  1
  S2-  S206  1  0.26126818  0.88650750  0.45185133  1
  S2-  S207  1  0.25344121  0.90293701  0.94561656  1
  S2-  S208  1  0.51254084  0.13683031  0.45132797  1
  S2-  S209  1  0.50828901  0.14560852  0.96000108  1
  S2-  S210  1  0.51307440  0.37611321  0.44653088  1
  S2-  S211  1  0.51019726  0.39948889  0.97000427  1
  S2-  S212  1  0.51393621  0.62528274  0.46149791  1
  S2-  S213  1  0.51405492  0.64204489  0.95474470  1
  S2-  S214  1  0.51026544  0.87846957  0.46295625  1
  S2-  S215  1  0.51222255  0.89360908  0.94927444  1
  S2-  S216  1  0.76573899  0.13875138  0.44939008  1
  S2-  S217  1  0.76332998  0.15038805  0.96422024  1
  S2-  S218  1  0.76386498  0.37634853  0.44979806  1
  S2-  S219  1  0.76309529  0.39869094  0.97208050  1
  S2-  S220  1  0.76347766  0.62962572  0.45507765  1
  S2-  S221  1  0.76327663  0.64604758  0.95845461  1
  S2-  S222  1  0.76387287  0.88402726  0.45883697  1
  S2-  S223  1  0.75884496  0.89332645  0.95619232  1
  S2-  S224  1  0.13700879  0.01855544  0.05236243  1
  S2-  S225  1  0.13514892  0.00479905  0.55372793  1
  S2-  S226  1  0.13856285  0.27029406  0.04422269  1
  S2-  S227  1  0.13161353  0.25320967  0.55536115  1
  S2-  S228  1  0.14011872  0.52149470  0.04198742  1
  S2-  S229  1  0.13459396  0.50110222  0.55184288  1
  S2-  S230  1  0.13491659  0.77247292  0.03855241  1
  S2-  S231  1  0.13267739  0.75761930  0.54062336  1
  S2-  S232  1  0.38468563  0.01711249  0.03146190  1
  S2-  S233  1  0.38601548  0.00417379  0.54610371  1
  S2-  S234  1  0.38651872  0.26737791  0.04123576  1
  S2-  S235  1  0.38191406  0.25412198  0.54725492  1
  S2-  S236  1  0.38271915  0.52463449  0.03973757  1
  S2-  S237  1  0.38057415  0.49743619  0.53971459  1
  S2-  S238  1  0.38642881  0.76978556  0.03571786  1
  S2-  S239  1  0.38284767  0.75222821  0.53821995  1
  S2-  S240  1  0.63279338  0.02078964  0.04009611  1
  S2-  S241  1  0.63907115  0.00716369  0.53796629  1
  S2-  S242  1  0.62664096  0.26714921  0.06002712  1
  S2-  S243  1  0.63679230  0.25347625  0.54410037  1
  S2-  S244  1  0.63647746  0.52225071  0.05080792  1
  S2-  S245  1  0.63836610  0.50054419  0.54147703  1
  S2-  S246  1  0.63554876  0.76687069  0.04035853  1
  S2-  S247  1  0.63872132  0.75275082  0.54720553  1
  S2-  S248  1  0.88943595  0.01523108  0.04088735  1
  S2-  S249  1  0.88524394  0.00591226  0.54598980  1
  S2-  S250  1  0.89053680  0.27212481  0.04769340  1
  S2-  S251  1  0.89348110  0.25524049  0.56537913  1
  S2-  S252  1  0.88744848  0.52432306  0.04717740  1
  S2-  S253  1  0.88412918  0.50393815  0.55172648  1
  S2-  S254  1  0.89099460  0.77055938  0.04532033  1
  S2-  S255  1  0.88404035  0.75232828  0.54782308  1
