# generated using pymatgen
data_La9Ce10Pr6Nd4Sm3(BiS2)32
_symmetry_space_group_name_H-M   'P 1'
_cell_length_a   16.11051618
_cell_length_b   16.17820869
_cell_length_c   27.27381471
_cell_angle_alpha   90.23581726
_cell_angle_beta   90.10866084
_cell_angle_gamma   89.91073847
_symmetry_Int_Tables_number   1
_chemical_formula_structural   La9Ce10Pr6Nd4Sm3(BiS2)32
_chemical_formula_sum   'La18 Ce20 Pr12 Nd8 Sm6 Bi64 S128'
_cell_volume   7108.54624568
_cell_formula_units_Z   2
loop_
 _symmetry_equiv_pos_site_id
 _symmetry_equiv_pos_as_xyz
  1  'x, y, z'
loop_
 _atom_type_symbol
 _atom_type_oxidation_number
  La3+  3.0
  Ce3+  3.0
  Pr3+  3.0
  Nd3+  3.0
  Sm3+  3.0
  Bi2+  2.0
  S2-  -2.0
loop_
 _atom_site_type_symbol
 _atom_site_label
 _atom_site_symmetry_multiplicity
 _atom_site_fract_x
 _atom_site_fract_y
 _atom_site_fract_z
 _atom_site_occupancy
  La3+  La0  1  0.52119485  0.64229073  0.05777287  1
  La3+  La1  1  0.35934679  0.48689696  0.40375360  1
  La3+  La2  1  0.77117503  0.39274028  0.07149785  1
  La3+  La3  1  0.49707694  0.11822352  0.56300309  1
  La3+  La4  1  0.02307488  0.39491644  0.06690228  1
  La3+  La5  1  0.27987181  0.64713749  0.08566875  1
  La3+  La6  1  0.25315348  0.61510617  0.61172828  1
  La3+  La7  1  0.39254677  0.50715968  0.91203523  1
  La3+  La8  1  0.64597978  0.51252016  0.92797773  1
  La3+  La9  1  0.77891609  0.88722297  0.07416165  1
  La3+  La10  1  0.76987660  0.14029232  0.09421450  1
  La3+  La11  1  0.86807791  0.48685125  0.42689657  1
  La3+  La12  1  0.61702852  0.25081348  0.42974834  1
  La3+  La13  1  0.74010063  0.86629732  0.56263605  1
  La3+  La14  1  0.85441635  -0.01295454  0.41939545  1
  La3+  La15  1  0.23792222  0.86871351  0.56259516  1
  La3+  La16  1  0.15574246  0.76135214  0.93518459  1
  La3+  La17  1  0.77508163  0.63944948  0.06645115  1
  Ce3+  Ce18  1  0.86242505  0.74025863  0.43056871  1
  Ce3+  Ce19  1  0.88858577  0.02354636  0.93498797  1
  Ce3+  Ce20  1  0.86442381  0.23611039  0.43962021  1
  Ce3+  Ce21  1  0.48455883  0.61615622  0.55000494  1
  Ce3+  Ce22  1  0.75501321  0.11882950  0.60030099  1
  Ce3+  Ce23  1  0.11440271  -0.00862088  0.43033063  1
  Ce3+  Ce24  1  -0.01073646  0.87018596  0.54855070  1
  Ce3+  Ce25  1  0.36783802  -0.00828518  0.43343633  1
  Ce3+  Ce26  1  0.27164879  0.89216750  0.06391518  1
  Ce3+  Ce27  1  0.35898327  0.73787059  0.43988904  1
  Ce3+  Ce28  1  -0.00060026  0.62039787  0.55128473  1
  Ce3+  Ce29  1  0.90476064  0.51215106  0.93112843  1
  Ce3+  Ce30  1  0.11756151  0.24014877  0.44730630  1
  Ce3+  Ce31  1  0.74241968  0.36633951  0.56397494  1
  Ce3+  Ce32  1  0.61630112  0.49031233  0.44514862  1
  Ce3+  Ce33  1  0.74449466  0.62131083  0.55861931  1
  Ce3+  Ce34  1  0.39588084  0.26442183  0.94542824  1
  Ce3+  Ce35  1  0.02105340  0.89329049  0.05283602  1
  Ce3+  Ce36  1  0.24627797  0.11264039  0.56618363  1
  Ce3+  Ce37  1  0.51925788  0.14020481  0.07038476  1
  Pr3+  Pr38  1  0.11667662  0.74696352  0.42511947  1
  Pr3+  Pr39  1  0.36292787  0.24216060  0.43765364  1
  Pr3+  Pr40  1  0.64687871  0.26505072  0.95174843  1
  Pr3+  Pr41  1  0.40120505  0.01478265  0.93253336  1
  Pr3+  Pr42  1  0.64921310  0.76496917  0.93079842  1
  Pr3+  Pr43  1  0.52348637  0.89102267  0.05925866  1
  Pr3+  Pr44  1  0.14512660  0.01609915  0.94047832  1
  Pr3+  Pr45  1  0.89575060  0.26858152  0.94092787  1
  Pr3+  Pr46  1  0.61300002  0.73679060  0.43173036  1
  Pr3+  Pr47  1  0.39859377  0.76626875  0.92721662  1
  Pr3+  Pr48  1  -0.01128103  0.11457160  0.55807587  1
  Pr3+  Pr49  1  0.23910468  0.37335427  0.56075330  1
  Nd3+  Nd50  1  -0.00974010  0.36975593  0.55831001  1
  Nd3+  Nd51  1  0.64932583  0.01748906  0.94237333  1
  Nd3+  Nd52  1  0.02305075  0.64297329  0.05974276  1
  Nd3+  Nd53  1  0.60896903  -0.00932601  0.42874053  1
  Nd3+  Nd54  1  0.48933342  0.86527585  0.55632741  1
  Nd3+  Nd55  1  0.15123940  0.51683209  0.93902205  1
  Nd3+  Nd56  1  0.48754253  0.37260988  0.55841633  1
  Nd3+  Nd57  1  0.27573870  0.14020452  0.06942759  1
  Sm3+  Sm58  1  0.11312373  0.49230944  0.42842805  1
  Sm3+  Sm59  1  0.01839354  0.13994064  0.06638672  1
  Sm3+  Sm60  1  0.14838016  0.26497776  0.95151250  1
  Sm3+  Sm61  1  0.89236619  0.76661271  0.93446262  1
  Sm3+  Sm62  1  0.51746995  0.39498994  0.06015714  1
  Sm3+  Sm63  1  0.27200740  0.39474715  0.06332404  1
  Bi2+  Bi64  1  0.05323353  0.07637994  0.27027841  1
  Bi2+  Bi65  1  0.00835665  0.19835774  0.78243289  1
  Bi2+  Bi66  1  0.04608134  0.29896352  0.26749929  1
  Bi2+  Bi67  1  0.01369278  0.39314298  0.79649990  1
  Bi2+  Bi68  1  -0.00464010  0.56806505  0.27554577  1
  Bi2+  Bi69  1  -0.05593178  0.60310063  0.77145512  1
  Bi2+  Bi70  1  -0.01189674  0.81552235  0.28085346  1
  Bi2+  Bi71  1  -0.00326935  0.98907925  0.78812019  1
  Bi2+  Bi72  1  0.24656124  0.10930225  0.29670482  1
  Bi2+  Bi73  1  0.27969781  0.11761035  0.79187477  1
  Bi2+  Bi74  1  0.24734553  0.33967589  0.28534402  1
  Bi2+  Bi75  1  0.24730511  0.35319847  0.79562310  1
  Bi2+  Bi76  1  0.24229513  0.62069444  0.29498690  1
  Bi2+  Bi77  1  0.16115558  0.62458269  0.80598964  1
  Bi2+  Bi78  1  0.25418655  0.90835737  0.30047336  1
  Bi2+  Bi79  1  0.22314101  0.86153790  0.80490528  1
  Bi2+  Bi80  1  0.44075276  0.13387234  0.30151430  1
  Bi2+  Bi81  1  0.48039944  0.11879096  0.78139005  1
  Bi2+  Bi82  1  0.50474296  0.39759621  0.28819640  1
  Bi2+  Bi83  1  0.51008892  0.31662602  0.78525188  1
  Bi2+  Bi84  1  0.61417900  0.64392571  0.29835628  1
  Bi2+  Bi85  1  0.55003973  0.62658851  0.77682281  1
  Bi2+  Bi86  1  0.45551421  0.94544462  0.25282182  1
  Bi2+  Bi87  1  0.50580899  0.89305118  0.79796822  1
  Bi2+  Bi88  1  0.77728772  0.13259752  0.30722871  1
  Bi2+  Bi89  1  0.75533788  0.15580129  0.80996002  1
  Bi2+  Bi90  1  0.76901301  0.42237783  0.29767657  1
  Bi2+  Bi91  1  0.74141557  0.42055857  0.80160475  1
  Bi2+  Bi92  1  0.81095468  0.61187186  0.32089627  1
  Bi2+  Bi93  1  0.74699626  0.61643993  0.79797535  1
  Bi2+  Bi94  1  0.72742799  0.85504897  0.28287241  1
  Bi2+  Bi95  1  0.72821189  0.88761308  0.78711040  1
  Bi2+  Bi96  1  0.10437036  -0.02481214  0.17011199  1
  Bi2+  Bi97  1  0.05978105  0.03570850  0.68348134  1
  Bi2+  Bi98  1  0.17193841  0.16564309  0.19034762  1
  Bi2+  Bi99  1  0.16227392  0.20747792  0.71305025  1
  Bi2+  Bi100  1  0.14398721  0.44704901  0.20838363  1
  Bi2+  Bi101  1  0.08407331  0.47653463  0.70335761  1
  Bi2+  Bi102  1  0.14795988  0.80404833  0.21887544  1
  Bi2+  Bi103  1  0.08205707  0.76988834  0.69977106  1
  Bi2+  Bi104  1  0.29957970  0.01234586  0.18379973  1
  Bi2+  Bi105  1  0.34260593  0.00254571  0.70593927  1
  Bi2+  Bi106  1  0.44342148  0.25962860  0.21381389  1
  Bi2+  Bi107  1  0.36205567  0.25424154  0.71118186  1
  Bi2+  Bi108  1  0.38362043  0.50965317  0.19982794  1
  Bi2+  Bi109  1  0.38515529  0.48761086  0.70577371  1
  Bi2+  Bi110  1  0.35623197  0.77553968  0.23720624  1
  Bi2+  Bi111  1  0.37422635  0.74935374  0.70915596  1
  Bi2+  Bi112  1  0.62822228  0.00275192  0.21799569  1
  Bi2+  Bi113  1  0.60259682  -0.04150195  0.69708787  1
  Bi2+  Bi114  1  0.63389394  0.23371463  0.24153690  1
  Bi2+  Bi115  1  0.63974016  0.21700881  0.72508461  1
  Bi2+  Bi116  1  0.63991944  0.50076041  0.22160384  1
  Bi2+  Bi117  1  0.66438942  0.50019092  0.70551160  1
  Bi2+  Bi118  1  0.58933144  0.72239431  0.19375577  1
  Bi2+  Bi119  1  0.63624278  0.76643737  0.71404850  1
  Bi2+  Bi120  1  0.90280865  -0.02202200  0.21227290  1
  Bi2+  Bi121  1  0.83221753  0.04103294  0.72935302  1
  Bi2+  Bi122  1  0.87819185  0.23862512  0.22042691  1
  Bi2+  Bi123  1  0.84036661  0.39700766  0.69941476  1
  Bi2+  Bi124  1  0.89738081  0.48534541  0.19239739  1
  Bi2+  Bi125  1  0.83650200  0.58866920  0.67655170  1
  Bi2+  Bi126  1  0.83987291  0.71905656  0.22529053  1
  Bi2+  Bi127  1  0.94198094  0.80252294  0.77260652  1
  S2-  S128  1  -0.07542292  0.13094217  0.15085445  1
  S2-  S129  1  -0.08728277  0.12365598  0.64963020  1
  S2-  S130  1  0.00952976  0.35197603  0.16424342  1
  S2-  S131  1  0.00131232  0.35670693  0.65816181  1
  S2-  S132  1  -0.04072273  0.62556651  0.15255297  1
  S2-  S133  1  0.07885982  0.62221111  0.64102891  1
  S2-  S134  1  -0.05987460  0.87659472  0.13895837  1
  S2-  S135  1  -0.00927215  0.87787367  0.64752448  1
  S2-  S136  1  0.39780714  0.14387186  0.14423695  1
  S2-  S137  1  0.21520855  -0.00629100  0.63931412  1
  S2-  S138  1  0.28270106  0.37927777  0.16163092  1
  S2-  S139  1  0.24081024  0.45110812  0.65251739  1
  S2-  S140  1  0.22714135  0.58502780  0.18081767  1
  S2-  S141  1  0.27719537  0.62365123  0.72728803  1
  S2-  S142  1  0.28130271  0.79633008  0.14680177  1
  S2-  S143  1  0.23887314  0.77852819  0.65150996  1
  S2-  S144  1  0.61562548  0.13338881  0.15438706  1
  S2-  S145  1  0.37557882  0.12468810  0.63962004  1
  S2-  S146  1  0.51819804  0.41633738  0.15909182  1
  S2-  S147  1  0.46965214  0.37290002  0.65867608  1
  S2-  S148  1  0.44322066  0.64164795  0.15017040  1
  S2-  S149  1  0.43156060  0.62224482  0.64467972  1
  S2-  S150  1  0.54105116  0.87207829  0.16019016  1
  S2-  S151  1  0.44936517  0.88344561  0.65470651  1
  S2-  S152  1  0.76126774  -0.00756042  0.15685615  1
  S2-  S153  1  0.59847639  0.10892211  0.64714979  1
  S2-  S154  1  0.77094602  0.29012965  0.15619167  1
  S2-  S155  1  0.74254178  0.27591698  0.64896521  1
  S2-  S156  1  0.75377943  0.52131983  0.14339889  1
  S2-  S157  1  0.75030544  0.73324883  0.63632545  1
  S2-  S158  1  0.74218215  0.75316103  0.14516076  1
  S2-  S159  1  0.75620648  0.96400118  0.64720264  1
  S2-  S160  1  0.10782882  -0.11517828  0.35192533  1
  S2-  S161  1  0.15440003  0.01002174  0.83977824  1
  S2-  S162  1  0.13302200  0.25066042  0.34992072  1
  S2-  S163  1  0.12593833  0.27468991  0.85384105  1
  S2-  S164  1  0.21187398  0.47795465  0.34369862  1
  S2-  S165  1  0.03738651  0.53325870  0.85985551  1
  S2-  S166  1  0.10049053  0.66942071  0.33174730  1
  S2-  S167  1  0.08040642  0.77222539  0.84080536  1
  S2-  S168  1  0.47678177  -0.00914155  0.35659395  1
  S2-  S169  1  0.36017430  -0.09282419  0.85225556  1
  S2-  S170  1  0.37671748  0.32943701  0.35061851  1
  S2-  S171  1  0.38691157  0.33853578  0.85663139  1
  S2-  S172  1  0.40547520  0.53834121  0.30370783  1
  S2-  S173  1  0.24797058  0.50127564  0.85163066  1
  S2-  S174  1  0.33663054  0.75020599  0.34244600  1
  S2-  S175  1  0.27810304  0.72458880  0.85355174  1
  S2-  S176  1  0.71383131  -0.00997999  0.34640118  1
  S2-  S177  1  0.53608269  0.03268758  0.86211752  1
  S2-  S178  1  0.60353029  0.18413963  0.33401138  1
  S2-  S179  1  0.64969029  0.28695887  0.85134085  1
  S2-  S180  1  0.62615714  0.40125764  0.36085960  1
  S2-  S181  1  0.53204808  0.51364802  0.84792145  1
  S2-  S182  1  0.59747312  0.79999146  0.33742089  1
  S2-  S183  1  0.52868778  0.75932456  0.85203275  1
  S2-  S184  1  0.92104300  0.06677235  0.33517996  1
  S2-  S185  1  0.76057844  0.00568483  0.86297277  1
  S2-  S186  1  0.83741575  0.29207238  0.34775182  1
  S2-  S187  1  0.90646790  0.15452749  0.86281468  1
  S2-  S188  1  0.99245310  0.47199920  0.35369720  1
  S2-  S189  1  0.88051092  0.38547570  0.86193178  1
  S2-  S190  1  0.86485078  0.83895484  0.34948711  1
  S2-  S191  1  0.77647797  0.76866534  0.85836812  1
  S2-  S192  1  -0.00731543  0.11642789  0.45042235  1
  S2-  S193  1  0.02605327  0.14320397  0.96209312  1
  S2-  S194  1  -0.00831654  0.36045278  0.45372675  1
  S2-  S195  1  0.02899831  0.38889057  0.96042537  1
  S2-  S196  1  -0.00990597  0.61981940  0.44635528  1
  S2-  S197  1  0.02093424  0.64707674  0.95503377  1
  S2-  S198  1  -0.01338374  0.86904719  0.44701941  1
  S2-  S199  1  0.01644797  0.89165593  0.94651197  1
  S2-  S200  1  0.24209051  0.11461589  0.45293639  1
  S2-  S201  1  0.27194897  0.13968188  0.95688220  1
  S2-  S202  1  0.23827174  0.36880756  0.45398166  1
  S2-  S203  1  0.26966405  0.38886269  0.95980293  1
  S2-  S204  1  0.23856366  0.61474803  0.43887103  1
  S2-  S205  1  0.27797404  0.63341724  0.96024839  1
  S2-  S206  1  0.24317568  0.87077509  0.45166593  1
  S2-  S207  1  0.27011557  0.89330518  0.95864698  1
  S2-  S208  1  0.49091739  0.12302630  0.45397999  1
  S2-  S209  1  0.51965208  0.14386145  0.96275075  1
  S2-  S210  1  0.48440553  0.37369293  0.45420954  1
  S2-  S211  1  0.51829870  0.39062686  0.95611669  1
  S2-  S212  1  0.48534343  0.61060010  0.44223305  1
  S2-  S213  1  0.51841586  0.63524119  0.95159688  1
  S2-  S214  1  0.48719584  0.85989633  0.45160697  1
  S2-  S215  1  0.52479733  0.88993791  0.95449168  1
  S2-  S216  1  0.73568757  0.11998134  0.44405813  1
  S2-  S217  1  0.77004442  0.14473735  0.96608051  1
  S2-  S218  1  0.74587446  0.36903100  0.45981349  1
  S2-  S219  1  0.76893545  0.39309148  0.96229845  1
  S2-  S220  1  0.74021842  0.61373967  0.45184758  1
  S2-  S221  1  0.77509617  0.63417065  0.95324398  1
  S2-  S222  1  0.73388941  0.86055150  0.45289977  1
  S2-  S223  1  0.77441777  0.88897205  0.96323932  1
  S2-  S224  1  0.14755550  0.02057088  0.04724796  1
  S2-  S225  1  0.11336509  -0.00549553  0.53464562  1
  S2-  S226  1  0.14945604  0.26437147  0.05631769  1
  S2-  S227  1  0.11695641  0.24084731  0.55404239  1
  S2-  S228  1  0.15034553  0.52030707  0.05231469  1
  S2-  S229  1  0.11331632  0.49053271  0.53658185  1
  S2-  S230  1  0.14605374  0.76677629  0.04700704  1
  S2-  S231  1  0.11399568  0.74827344  0.53424478  1
  S2-  S232  1  0.39586459  0.01376811  0.04281881  1
  S2-  S233  1  0.36869962  -0.00945932  0.53862940  1
  S2-  S234  1  0.39393639  0.27155098  0.04965689  1
  S2-  S235  1  0.36407036  0.24875287  0.54356620  1
  S2-  S236  1  0.39236488  0.51401036  0.05116108  1
  S2-  S237  1  0.36085393  0.49714513  0.54653127  1
  S2-  S238  1  0.39632693  0.76938372  0.04066800  1
  S2-  S239  1  0.36179811  0.73978012  0.54459593  1
  S2-  S240  1  0.64689302  0.01555656  0.04861388  1
  S2-  S241  1  0.61290678  -0.01354153  0.53798167  1
  S2-  S242  1  0.63901000  0.27040995  0.05621995  1
  S2-  S243  1  0.61365143  0.25163304  0.54248268  1
  S2-  S244  1  0.64070137  0.51455183  0.04041298  1
  S2-  S245  1  0.61631619  0.49498378  0.55173520  1
  S2-  S246  1  0.64605440  0.76452639  0.03871325  1
  S2-  S247  1  0.60994428  0.73780769  0.54024577  1
  S2-  S248  1  0.89992752  0.01890639  0.04260833  1
  S2-  S249  1  0.86286259  -0.00536014  0.53709449  1
  S2-  S250  1  0.90114561  0.26710588  0.04888620  1
  S2-  S251  1  0.86590710  0.24277387  0.54518399  1
  S2-  S252  1  0.90147811  0.51624734  0.04069531  1
  S2-  S253  1  0.86853245  0.49444107  0.54263274  1
  S2-  S254  1  0.89936227  0.76219808  0.03809303  1
  S2-  S255  1  0.87081117  0.74144452  0.53642260  1
