# generated using pymatgen
data_La9Ce10Pr6Nd4Sm3(BiS2)32
_symmetry_space_group_name_H-M   'P 1'
_cell_length_a   16.11806625
_cell_length_b   16.15574786
_cell_length_c   27.26912039
_cell_angle_alpha   90.05338673
_cell_angle_beta   90.26661447
_cell_angle_gamma   89.95921057
_symmetry_Int_Tables_number   1
_chemical_formula_structural   La9Ce10Pr6Nd4Sm3(BiS2)32
_chemical_formula_sum   'La18 Ce20 Pr12 Nd8 Sm6 Bi64 S128'
_cell_volume   7100.78123883
_cell_formula_units_Z   2
loop_
 _symmetry_equiv_pos_site_id
 _symmetry_equiv_pos_as_xyz
  1  'x, y, z'
loop_
 _atom_type_symbol
 _atom_type_oxidation_number
  La3+  3.0
  Ce3+  3.0
  Pr3+  3.0
  Nd3+  3.0
  Sm3+  3.0
  Bi2+  2.0
  S2-  -2.0
loop_
 _atom_site_type_symbol
 _atom_site_label
 _atom_site_symmetry_multiplicity
 _atom_site_fract_x
 _atom_site_fract_y
 _atom_site_fract_z
 _atom_site_occupancy
  La3+  La0  1  0.75777242  0.12133611  0.57850258  1
  La3+  La1  1  0.87410322  0.25055353  0.43871016  1
  La3+  La2  1  0.48073685  0.61826206  0.08793112  1
  La3+  La3  1  0.88646667  0.75106709  0.43114034  1
  La3+  La4  1  0.25265985  0.88663481  0.56365897  1
  La3+  La5  1  0.85909972  0.50269391  0.92901688  1
  La3+  La6  1  0.10624686  0.76102678  0.91114232  1
  La3+  La7  1  -0.00256055  0.62390932  0.58780242  1
  La3+  La8  1  0.75657943  0.87364805  0.56084162  1
  La3+  La9  1  0.10683799  0.49413499  0.91532719  1
  La3+  La10  1  0.50100886  0.87841921  0.56646756  1
  La3+  La11  1  0.26460807  0.63163336  0.60441067  1
  La3+  La12  1  0.49479155  0.88091344  0.09160482  1
  La3+  La13  1  0.12613088  -0.00275938  0.40076163  1
  La3+  La14  1  0.24046093  0.87273196  0.06387279  1
  La3+  La15  1  0.37690909  0.76034952  0.91210693  1
  La3+  La16  1  0.61078652  0.50451491  0.92940311  1
  La3+  La17  1  0.23658775  0.38108722  0.05608578  1
  Ce3+  Ce18  1  0.62959236  0.50868182  0.43158462  1
  Ce3+  Ce19  1  0.25127478  0.38275916  0.56074535  1
  Ce3+  Ce20  1  0.73876707  0.62360611  0.06253532  1
  Ce3+  Ce21  1  0.36203995  -0.00366349  0.94879892  1
  Ce3+  Ce22  1  0.60762802  0.75169169  0.95663907  1
  Ce3+  Ce23  1  0.13042364  0.74880642  0.45268264  1
  Ce3+  Ce24  1  0.75308889  0.62610654  0.55598523  1
  Ce3+  Ce25  1  -0.00630572  0.62526654  0.05523757  1
  Ce3+  Ce26  1  0.37439337  0.74999802  0.44264595  1
  Ce3+  Ce27  1  0.37661949  0.24797983  0.44682681  1
  Ce3+  Ce28  1  0.85890129  0.24794264  0.94067982  1
  Ce3+  Ce29  1  0.73508702  0.12818972  0.05538502  1
  Ce3+  Ce30  1  0.86492308  0.75316490  0.94424284  1
  Ce3+  Ce31  1  -0.01155707  0.37811582  0.05239244  1
  Ce3+  Ce32  1  0.50096131  0.38366816  0.55630464  1
  Ce3+  Ce33  1  0.50258565  0.63318941  0.56464262  1
  Ce3+  Ce34  1  0.74916964  0.37979895  0.56405878  1
  Ce3+  Ce35  1  0.49227742  0.37651948  0.05854066  1
  Ce3+  Ce36  1  -0.01270984  0.12804673  0.05913929  1
  Ce3+  Ce37  1  0.62956262  -0.00058914  0.43651035  1
  Pr3+  Pr38  1  0.38416572  0.49891073  0.42898169  1
  Pr3+  Pr39  1  0.12454752  0.25525557  0.42071930  1
  Pr3+  Pr40  1  0.48997167  0.12937987  0.06971821  1
  Pr3+  Pr41  1  -0.01042222  0.87472861  0.06555171  1
  Pr3+  Pr42  1  0.00371078  0.37894536  0.56406858  1
  Pr3+  Pr43  1  0.50975849  0.12687200  0.57286327  1
  Pr3+  Pr44  1  0.25026462  0.13107610  0.55993789  1
  Pr3+  Pr45  1  0.23760739  0.62839848  0.05053613  1
  Pr3+  Pr46  1  0.59981260  0.24077488  0.92304666  1
  Pr3+  Pr47  1  0.87940259  0.00186552  0.43512084  1
  Pr3+  Pr48  1  0.60658937  -0.00609148  0.94008975  1
  Pr3+  Pr49  1  0.00684655  0.87680655  0.56317059  1
  Nd3+  Nd50  1  0.87384476  0.50264797  0.43538172  1
  Nd3+  Nd51  1  0.12942598  0.49987209  0.44132372  1
  Nd3+  Nd52  1  0.62431422  0.75579920  0.43112414  1
  Nd3+  Nd53  1  0.62983635  0.25035493  0.43864549  1
  Nd3+  Nd54  1  0.00340151  0.12990393  0.55931234  1
  Nd3+  Nd55  1  0.37900882  0.00121789  0.43096244  1
  Nd3+  Nd56  1  0.36393215  0.50745247  0.93209132  1
  Nd3+  Nd57  1  0.86220424  0.00042101  0.94278144  1
  Sm3+  Sm58  1  0.23587459  0.12724355  0.06530422  1
  Sm3+  Sm59  1  0.11397259  0.24823941  0.93656810  1
  Sm3+  Sm60  1  0.36366341  0.24794944  0.94674887  1
  Sm3+  Sm61  1  0.73607835  0.87522077  0.06252995  1
  Sm3+  Sm62  1  0.73565619  0.37750930  0.05202740  1
  Sm3+  Sm63  1  0.11579829  0.00054220  0.94567647  1
  Bi2+  Bi64  1  0.00243147  0.14220320  0.28572869  1
  Bi2+  Bi65  1  0.02494175  0.14947383  0.78712298  1
  Bi2+  Bi66  1  0.00259054  0.39314766  0.29460243  1
  Bi2+  Bi67  1  -0.02903693  0.36351734  0.79237544  1
  Bi2+  Bi68  1  -0.03839870  0.58787016  0.31701300  1
  Bi2+  Bi69  1  0.03314561  0.63461046  0.78495903  1
  Bi2+  Bi70  1  -0.00973360  0.86592281  0.29118335  1
  Bi2+  Bi71  1  -0.02606918  0.88507053  0.79465506  1
  Bi2+  Bi72  1  0.25487829  0.20598107  0.27175972  1
  Bi2+  Bi73  1  0.21253197  0.14288265  0.82197218  1
  Bi2+  Bi74  1  0.28389249  0.40091453  0.29893425  1
  Bi2+  Bi75  1  0.24902696  0.32301994  0.78120416  1
  Bi2+  Bi76  1  0.14569661  0.61432411  0.26675805  1
  Bi2+  Bi77  1  0.31548070  0.54493763  0.78282645  1
  Bi2+  Bi78  1  0.22349885  0.79859254  0.28949495  1
  Bi2+  Bi79  1  0.24821787  0.95524833  0.79821162  1
  Bi2+  Bi80  1  0.57015910  0.13633438  0.29895688  1
  Bi2+  Bi81  1  0.47244763  0.11003096  0.79499873  1
  Bi2+  Bi82  1  0.54975821  0.33196400  0.29099003  1
  Bi2+  Bi83  1  0.50624416  0.36915755  0.79357861  1
  Bi2+  Bi84  1  0.48464551  0.59973831  0.29412377  1
  Bi2+  Bi85  1  0.57073582  0.63342709  0.79693480  1
  Bi2+  Bi86  1  0.48237548  0.87530209  0.29402987  1
  Bi2+  Bi87  1  0.55339984  0.91660370  0.80633444  1
  Bi2+  Bi88  1  0.75430224  0.08764243  0.32677549  1
  Bi2+  Bi89  1  0.75376657  0.21230247  0.76978487  1
  Bi2+  Bi90  1  0.78837484  0.37178697  0.28655224  1
  Bi2+  Bi91  1  0.71830616  0.40066055  0.74993067  1
  Bi2+  Bi92  1  0.76456226  0.62619975  0.29735313  1
  Bi2+  Bi93  1  0.76381428  0.65252776  0.79301212  1
  Bi2+  Bi94  1  0.73664788  0.90046640  0.28251923  1
  Bi2+  Bi95  1  0.74296560  0.85654217  0.79677916  1
  Bi2+  Bi96  1  0.12942603  0.00267036  0.20065959  1
  Bi2+  Bi97  1  0.14340532  0.05374798  0.71649944  1
  Bi2+  Bi98  1  0.09342571  0.26661832  0.21020195  1
  Bi2+  Bi99  1  0.13002477  0.24933925  0.64673339  1
  Bi2+  Bi100  1  0.14261122  0.46297803  0.19002753  1
  Bi2+  Bi101  1  0.12017217  0.41662248  0.71177758  1
  Bi2+  Bi102  1  0.07536760  0.73865373  0.18958031  1
  Bi2+  Bi103  1  0.15029293  0.79357904  0.70801685  1
  Bi2+  Bi104  1  0.35778450  -0.01531700  0.21596330  1
  Bi2+  Bi105  1  0.36922735  0.01541010  0.71481527  1
  Bi2+  Bi106  1  0.43437301  0.22196203  0.22314804  1
  Bi2+  Bi107  1  0.31901300  0.22219647  0.68987990  1
  Bi2+  Bi108  1  0.36944929  0.47306443  0.20889025  1
  Bi2+  Bi109  1  0.39543710  0.41469681  0.69844293  1
  Bi2+  Bi110  1  0.34806723  0.69783188  0.22063110  1
  Bi2+  Bi111  1  0.40149059  0.73074482  0.71502712  1
  Bi2+  Bi112  1  0.62622710  0.02145175  0.21249276  1
  Bi2+  Bi113  1  0.62701754  0.01862144  0.71098306  1
  Bi2+  Bi114  1  0.59012547  0.27691235  0.16598954  1
  Bi2+  Bi115  1  0.51725945  0.23624429  0.70719688  1
  Bi2+  Bi116  1  0.63841044  0.44719111  0.21647482  1
  Bi2+  Bi117  1  0.64277597  0.56436644  0.69917173  1
  Bi2+  Bi118  1  0.65721102  0.74195770  0.21853121  1
  Bi2+  Bi119  1  0.66378390  0.76235166  0.70631404  1
  Bi2+  Bi120  1  0.84774830  0.01920663  0.22047845  1
  Bi2+  Bi121  1  0.86689752  0.06589055  0.74161201  1
  Bi2+  Bi122  1  0.82586903  0.20729263  0.23537274  1
  Bi2+  Bi123  1  0.94681153  0.26304067  0.69334284  1
  Bi2+  Bi124  1  0.91194146  0.50169906  0.21401071  1
  Bi2+  Bi125  1  0.84629791  0.51942271  0.69824732  1
  Bi2+  Bi126  1  0.88923846  0.69869532  0.21694196  1
  Bi2+  Bi127  1  0.86295522  0.86136948  0.69988512  1
  S2-  S128  1  0.03089447  0.13411429  0.15410282  1
  S2-  S129  1  -0.09831072  0.12122710  0.64456149  1
  S2-  S130  1  -0.00620276  0.37965663  0.15044415  1
  S2-  S131  1  -0.00506319  0.47812433  0.64885753  1
  S2-  S132  1  0.10944368  0.60571502  0.12778789  1
  S2-  S133  1  0.05047154  0.67190054  0.68600842  1
  S2-  S134  1  0.00310776  0.89741530  0.16545577  1
  S2-  S135  1  0.02075828  0.89336813  0.66454578  1
  S2-  S136  1  0.25738316  0.10407849  0.16187158  1
  S2-  S137  1  0.24767740  0.01598649  0.64000200  1
  S2-  S138  1  0.26868487  0.36310981  0.15483693  1
  S2-  S139  1  0.24445201  0.46640570  0.64715029  1
  S2-  S140  1  0.32312077  0.60619100  0.14306243  1
  S2-  S141  1  0.25141593  0.64766691  0.71119319  1
  S2-  S142  1  0.23188963  0.89201790  0.16530324  1
  S2-  S143  1  0.29404529  0.80603589  0.65153097  1
  S2-  S144  1  0.48594500  0.03155220  0.15297390  1
  S2-  S145  1  0.49552091  -0.00500084  0.64550134  1
  S2-  S146  1  0.49999995  0.46319953  0.14402537  1
  S2-  S147  1  0.54532528  0.38584075  0.65086716  1
  S2-  S148  1  0.52699946  0.66061573  0.19025417  1
  S2-  S149  1  0.42289763  0.60236945  0.65010637  1
  S2-  S150  1  0.43271788  0.84679692  0.18969132  1
  S2-  S151  1  0.52677016  0.77021107  0.64578701  1
  S2-  S152  1  0.74820394  0.11438834  0.15318680  1
  S2-  S153  1  0.63768103  0.15256533  0.65009980  1
  S2-  S154  1  0.74010061  0.36740483  0.15038545  1
  S2-  S155  1  0.79144986  0.35350949  0.65900065  1
  S2-  S156  1  0.74795058  0.63116091  0.16064191  1
  S2-  S157  1  0.83924904  0.65444117  0.64052223  1
  S2-  S158  1  0.65816826  0.87694304  0.14980551  1
  S2-  S159  1  0.74137637  0.96396189  0.64672352  1
  S2-  S160  1  0.16941553  -0.04934465  0.29833131  1
  S2-  S161  1  0.09768209  -0.06951186  0.85712146  1
  S2-  S162  1  0.15257272  0.14294504  0.34254727  1
  S2-  S163  1  0.11121122  0.34070019  0.85303106  1
  S2-  S164  1  0.14123574  0.39922796  0.35769397  1
  S2-  S165  1  0.17047656  0.54847763  0.82585064  1
  S2-  S166  1  0.09004017  0.77929893  0.35823646  1
  S2-  S167  1  0.13881242  0.74829984  0.80844959  1
  S2-  S168  1  0.39863975  0.00258416  0.32931885  1
  S2-  S169  1  0.38461470  -0.08134876  0.86122992  1
  S2-  S170  1  0.36137019  0.26286257  0.35030325  1
  S2-  S171  1  0.45049544  0.24520849  0.86194874  1
  S2-  S172  1  0.33400337  0.55241537  0.33416034  1
  S2-  S173  1  0.48394753  0.50266950  0.85545193  1
  S2-  S174  1  0.38259379  0.77753283  0.34401329  1
  S2-  S175  1  0.36263257  0.68551649  0.81966949  1
  S2-  S176  1  0.61584274  -0.11319032  0.35944935  1
  S2-  S177  1  0.61151573  0.06954966  0.84889596  1
  S2-  S178  1  0.74849411  0.25523948  0.36379482  1
  S2-  S179  1  0.65843569  0.30293207  0.83420661  1
  S2-  S180  1  0.51861882  0.47543784  0.35512238  1
  S2-  S181  1  0.73558066  0.52279066  0.85514641  1
  S2-  S182  1  0.62126534  0.66184615  0.34458728  1
  S2-  S183  1  0.54924992  0.76342431  0.86375039  1
  S2-  S184  1  0.97265445  0.00173054  0.34778571  1
  S2-  S185  1  0.85181355  -0.02084282  0.84420843  1
  S2-  S186  1  0.97729286  0.25370657  0.35584413  1
  S2-  S187  1  0.87585415  0.23531064  0.84361084  1
  S2-  S188  1  0.75470605  0.48842479  0.35892406  1
  S2-  S189  1  0.96228573  0.50341313  0.84531846  1
  S2-  S190  1  0.85800153  0.82036130  0.33969863  1
  S2-  S191  1  0.94460364  0.75011243  0.85604097  1
  S2-  S192  1  0.00541113  0.12429922  0.45415635  1
  S2-  S193  1  -0.00939102  0.12349168  0.95072860  1
  S2-  S194  1  -0.00245157  0.38186831  0.45652158  1
  S2-  S195  1  -0.01644134  0.36889115  0.94978409  1
  S2-  S196  1  0.00394514  0.62263931  0.45451879  1
  S2-  S197  1  -0.01069962  0.62829288  0.95180031  1
  S2-  S198  1  0.00772031  0.87984589  0.45579709  1
  S2-  S199  1  -0.01285665  0.88070970  0.95932774  1
  S2-  S200  1  0.25212376  0.12241730  0.45057442  1
  S2-  S201  1  0.23812614  0.12581269  0.95896568  1
  S2-  S202  1  0.25898975  0.37732038  0.45612518  1
  S2-  S203  1  0.24415745  0.37293531  0.94745426  1
  S2-  S204  1  0.25123200  0.62503850  0.44467240  1
  S2-  S205  1  0.24144116  0.63422461  0.94157482  1
  S2-  S206  1  0.24968363  0.88227214  0.45017221  1
  S2-  S207  1  0.23740500  0.87247600  0.95470119  1
  S2-  S208  1  0.50527385  0.12584867  0.45207868  1
  S2-  S209  1  0.48364266  0.11995392  0.96265678  1
  S2-  S210  1  0.50510240  0.37028491  0.45345630  1
  S2-  S211  1  0.48504655  0.37511553  0.95580908  1
  S2-  S212  1  0.50214211  0.63097924  0.45532667  1
  S2-  S213  1  0.48210763  0.63122096  0.96031641  1
  S2-  S214  1  0.49734127  0.87690075  0.45786121  1
  S2-  S215  1  0.48578836  0.87602854  0.97184153  1
  S2-  S216  1  0.75177579  0.12115248  0.46437534  1
  S2-  S217  1  0.73436668  0.12319356  0.94943724  1
  S2-  S218  1  0.74865969  0.38097419  0.46104821  1
  S2-  S219  1  0.73430033  0.37141989  0.94873354  1
  S2-  S220  1  0.75508922  0.63451709  0.45179192  1
  S2-  S221  1  0.73773152  0.63411128  0.95703562  1
  S2-  S222  1  0.75670923  0.87557791  0.45360797  1
  S2-  S223  1  0.73722706  0.87596382  0.95681999  1
  S2-  S224  1  0.11372605  0.00309224  0.05003962  1
  S2-  S225  1  0.12282589  0.00673072  0.54549996  1
  S2-  S226  1  0.11377987  0.25071616  0.04291621  1
  S2-  S227  1  0.12729399  0.25650640  0.53303102  1
  S2-  S228  1  0.11165425  0.49813216  0.02745110  1
  S2-  S229  1  0.12736753  0.50903271  0.54600584  1
  S2-  S230  1  0.11142684  0.75443053  0.03839603  1
  S2-  S231  1  0.13073042  0.74685081  0.55878808  1
  S2-  S232  1  0.36007362  0.00434080  0.05372416  1
  S2-  S233  1  0.37990054  0.01077878  0.53869901  1
  S2-  S234  1  0.36211124  0.24973897  0.05169506  1
  S2-  S235  1  0.38082102  0.25321800  0.55259411  1
  S2-  S236  1  0.36407989  0.49956102  0.03719860  1
  S2-  S237  1  0.37687873  0.50511239  0.54047549  1
  S2-  S238  1  0.36837445  0.75411229  0.05999403  1
  S2-  S239  1  0.37206369  0.74993056  0.54529182  1
  S2-  S240  1  0.61549066  0.00208761  0.04714095  1
  S2-  S241  1  0.62817092  0.00152950  0.54153024  1
  S2-  S242  1  0.61378518  0.25154022  0.03653429  1
  S2-  S243  1  0.62659655  0.25529047  0.54424780  1
  S2-  S244  1  0.61591239  0.50255012  0.04190125  1
  S2-  S245  1  0.62708472  0.50629288  0.54406683  1
  S2-  S246  1  0.61193098  0.74561002  0.05965815  1
  S2-  S247  1  0.63226982  0.75145135  0.54018757  1
  S2-  S248  1  0.86044150  -0.00075885  0.05038161  1
  S2-  S249  1  0.88287257  -0.00059235  0.54306898  1
  S2-  S250  1  0.86095996  0.25265182  0.04807272  1
  S2-  S251  1  0.87565269  0.25674520  0.54644742  1
  S2-  S252  1  0.86228925  0.50052883  0.04303846  1
  S2-  S253  1  0.87505223  0.50241081  0.54216043  1
  S2-  S254  1  0.86224585  0.75219300  0.05300252  1
  S2-  S255  1  0.88440024  0.75200521  0.54021822  1
