# generated using pymatgen
data_La9Ce10Pr6Nd4Sm3(BiS2)32
_symmetry_space_group_name_H-M   'P 1'
_cell_length_a   16.05210034
_cell_length_b   16.19600229
_cell_length_c   27.14678877
_cell_angle_alpha   89.81104403
_cell_angle_beta   89.45256095
_cell_angle_gamma   89.95633151
_symmetry_Int_Tables_number   1
_chemical_formula_structural   La9Ce10Pr6Nd4Sm3(BiS2)32
_chemical_formula_sum   'La18 Ce20 Pr12 Nd8 Sm6 Bi64 S128'
_cell_volume   7057.25576956
_cell_formula_units_Z   2
loop_
 _symmetry_equiv_pos_site_id
 _symmetry_equiv_pos_as_xyz
  1  'x, y, z'
loop_
 _atom_type_symbol
 _atom_type_oxidation_number
  La3+  3.0
  Ce3+  3.0
  Pr3+  3.0
  Nd3+  3.0
  Sm3+  3.0
  Bi2+  2.0
  S2-  -2.0
loop_
 _atom_site_type_symbol
 _atom_site_label
 _atom_site_symmetry_multiplicity
 _atom_site_fract_x
 _atom_site_fract_y
 _atom_site_fract_z
 _atom_site_occupancy
  La3+  La0  1  0.41316588  0.75378037  0.43345064  1
  La3+  La1  1  0.51537461  0.88284558  0.58011609  1
  La3+  La2  1  0.28191533  0.12953951  0.56852289  1
  La3+  La3  1  0.40531162  0.01243532  0.42514110  1
  La3+  La4  1  0.00106268  0.88031355  0.08795040  1
  La3+  La5  1  0.25882940  0.62460645  0.07570139  1
  La3+  La6  1  0.89923883  0.76445573  0.41453184  1
  La3+  La7  1  0.77430003  0.12760668  0.56692866  1
  La3+  La8  1  0.77610448  0.62201927  0.58736026  1
  La3+  La9  1  0.77896685  0.88167932  0.60790861  1
  La3+  La10  1  0.15511012  0.00424341  0.43418896  1
  La3+  La11  1  0.38339645  0.24838717  0.90666805  1
  La3+  La12  1  0.52210375  0.63129998  0.58219931  1
  La3+  La13  1  0.89792603  0.50729793  0.43060002  1
  La3+  La14  1  0.49599378  0.36791049  0.06605030  1
  La3+  La15  1  0.52352230  0.37854456  0.56388094  1
  La3+  La16  1  0.75280775  0.13175136  0.06357129  1
  La3+  La17  1  0.02904159  0.12521748  0.56749216  1
  Ce3+  Ce18  1  0.38114142  0.50870511  0.92978613  1
  Ce3+  Ce19  1  0.50611267  0.12210415  0.03857350  1
  Ce3+  Ce20  1  0.15709029  0.75497822  0.42681837  1
  Ce3+  Ce21  1  0.90031708  0.25370232  0.44575090  1
  Ce3+  Ce22  1  0.12420438  0.74733394  0.94607492  1
  Ce3+  Ce23  1  0.00839666  0.37394986  0.05457060  1
  Ce3+  Ce24  1  0.65190278  0.25789186  0.43305288  1
  Ce3+  Ce25  1  0.90349195  0.01464101  0.42709931  1
  Ce3+  Ce26  1  0.51412166  0.87291484  0.04616996  1
  Ce3+  Ce27  1  0.77328534  0.37846059  0.56238235  1
  Ce3+  Ce28  1  0.26227261  0.36987532  0.04534000  1
  Ce3+  Ce29  1  0.38674165  -0.00383803  0.92420116  1
  Ce3+  Ce30  1  0.51233795  0.62560381  0.06460630  1
  Ce3+  Ce31  1  0.75835296  0.37186696  0.05749003  1
  Ce3+  Ce32  1  0.40790991  0.50284411  0.43214689  1
  Ce3+  Ce33  1  0.27236936  0.87639506  0.55924024  1
  Ce3+  Ce34  1  0.63147054  0.49886455  0.94567724  1
  Ce3+  Ce35  1  0.65245222  0.51158956  0.44131453  1
  Ce3+  Ce36  1  0.27611305  0.62905627  0.55540319  1
  Ce3+  Ce37  1  0.01729140  0.87712110  0.55168381  1
  Pr3+  Pr38  1  0.63435792  0.25120658  0.92545729  1
  Pr3+  Pr39  1  0.88525349  0.49442360  0.93247093  1
  Pr3+  Pr40  1  0.14614343  0.50760913  0.43466892  1
  Pr3+  Pr41  1  0.02087840  0.63311520  0.56426893  1
  Pr3+  Pr42  1  0.27412693  0.11537852  0.07020811  1
  Pr3+  Pr43  1  0.40435940  0.26214258  0.42424242  1
  Pr3+  Pr44  1  0.39231855  0.74823451  0.92902603  1
  Pr3+  Pr45  1  0.64087379  0.74088937  0.92362666  1
  Pr3+  Pr46  1  0.00253246  0.62220987  0.07365986  1
  Pr3+  Pr47  1  0.15338604  0.25667947  0.44374523  1
  Pr3+  Pr48  1  0.01064858  0.12436747  0.06146733  1
  Pr3+  Pr49  1  0.65525669  0.75852520  0.45991456  1
  Nd3+  Nd50  1  0.74755669  0.87930544  0.07484630  1
  Nd3+  Nd51  1  0.02765635  0.38095952  0.56725957  1
  Nd3+  Nd52  1  0.64823923  0.00462098  0.44591601  1
  Nd3+  Nd53  1  0.13335248  -0.00294198  0.94278635  1
  Nd3+  Nd54  1  0.28018565  0.38206494  0.56645342  1
  Nd3+  Nd55  1  0.88722670  0.24809612  0.93211742  1
  Nd3+  Nd56  1  0.13625996  0.24454110  0.93870550  1
  Nd3+  Nd57  1  0.65025196  -0.00389081  0.92105434  1
  Sm3+  Sm58  1  0.88319200  0.74871086  0.94261301  1
  Sm3+  Sm59  1  0.13521499  0.50277733  0.94886409  1
  Sm3+  Sm60  1  0.25916856  0.87267760  0.05022140  1
  Sm3+  Sm61  1  0.52106256  0.13126354  0.56079935  1
  Sm3+  Sm62  1  0.75743847  0.62591490  0.06777701  1
  Sm3+  Sm63  1  0.88378791  -0.00368758  0.94726229  1
  Bi2+  Bi64  1  -0.04698599  0.12121341  0.22980568  1
  Bi2+  Bi65  1  -0.08042826  0.19660464  0.80277777  1
  Bi2+  Bi66  1  -0.06313616  0.35024312  0.31836795  1
  Bi2+  Bi67  1  0.06010855  0.44076967  0.77944064  1
  Bi2+  Bi68  1  0.11608199  0.60719817  0.29799558  1
  Bi2+  Bi69  1  -0.00401672  0.62721720  0.80191607  1
  Bi2+  Bi70  1  0.01598266  0.90159497  0.29054348  1
  Bi2+  Bi71  1  0.00363508  0.88645569  0.79336796  1
  Bi2+  Bi72  1  0.21530721  0.10812461  0.30394608  1
  Bi2+  Bi73  1  0.19337792  0.13093882  0.80706265  1
  Bi2+  Bi74  1  0.25167903  0.35999006  0.28350116  1
  Bi2+  Bi75  1  0.25479204  0.43034667  0.80830373  1
  Bi2+  Bi76  1  0.30105332  0.54793128  0.31249089  1
  Bi2+  Bi77  1  0.22831897  0.69107582  0.77463421  1
  Bi2+  Bi78  1  0.21212626  0.85553209  0.29558714  1
  Bi2+  Bi79  1  0.23544194  0.88651377  0.79177678  1
  Bi2+  Bi80  1  0.51475702  0.12190920  0.29371951  1
  Bi2+  Bi81  1  0.51369649  0.13513038  0.77621092  1
  Bi2+  Bi82  1  0.52963792  0.40339509  0.24186807  1
  Bi2+  Bi83  1  0.54491637  0.32590861  0.74291002  1
  Bi2+  Bi84  1  0.48491416  0.58852202  0.26896304  1
  Bi2+  Bi85  1  0.48178198  0.60773821  0.80261628  1
  Bi2+  Bi86  1  0.45709144  0.81726159  0.30409957  1
  Bi2+  Bi87  1  0.42973783  0.94913966  0.79170379  1
  Bi2+  Bi88  1  0.74795981  0.14821903  0.29711087  1
  Bi2+  Bi89  1  0.72963179  0.15341823  0.81149585  1
  Bi2+  Bi90  1  0.68430190  0.35039331  0.30527302  1
  Bi2+  Bi91  1  0.71870466  0.35644480  0.79891220  1
  Bi2+  Bi92  1  0.67368810  0.61273947  0.31274688  1
  Bi2+  Bi93  1  0.73986303  0.63673750  0.78820322  1
  Bi2+  Bi94  1  0.73070531  0.82833306  0.30803448  1
  Bi2+  Bi95  1  0.74577553  0.88818569  0.79111132  1
  Bi2+  Bi96  1  0.16366780  -0.00899144  0.19140017  1
  Bi2+  Bi97  1  0.11653634  -0.08497854  0.69686454  1
  Bi2+  Bi98  1  0.07222909  0.27890303  0.24368255  1
  Bi2+  Bi99  1  0.08535731  0.24660480  0.70437702  1
  Bi2+  Bi100  1  0.10150479  0.47158873  0.21221244  1
  Bi2+  Bi101  1  0.11407116  0.56059740  0.69078781  1
  Bi2+  Bi102  1  0.20542547  0.72366662  0.21275918  1
  Bi2+  Bi103  1  0.17706830  0.73927415  0.65471123  1
  Bi2+  Bi104  1  0.38679550  -0.05333089  0.22909465  1
  Bi2+  Bi105  1  0.31853333  0.04521865  0.70651898  1
  Bi2+  Bi106  1  0.37318511  0.22011689  0.19185260  1
  Bi2+  Bi107  1  0.32848296  0.27379892  0.70122675  1
  Bi2+  Bi108  1  0.30191062  0.48750964  0.19973099  1
  Bi2+  Bi109  1  0.30586034  0.53264827  0.71878516  1
  Bi2+  Bi110  1  0.39817719  0.74755343  0.20281094  1
  Bi2+  Bi111  1  0.36535710  0.79482104  0.71710621  1
  Bi2+  Bi112  1  0.58409358  -0.05996971  0.23296619  1
  Bi2+  Bi113  1  0.65014886  0.07213400  0.70877307  1
  Bi2+  Bi114  1  0.64603909  0.17651705  0.19877143  1
  Bi2+  Bi115  1  0.64024718  0.24874206  0.64885273  1
  Bi2+  Bi116  1  0.69177347  0.50310821  0.21285557  1
  Bi2+  Bi117  1  0.64411097  0.48812460  0.71848850  1
  Bi2+  Bi118  1  0.64885343  0.75861131  0.20807568  1
  Bi2+  Bi119  1  0.61143733  0.78264245  0.72312103  1
  Bi2+  Bi120  1  0.80188655  -0.00735171  0.23172264  1
  Bi2+  Bi121  1  0.92110710  0.01930417  0.72411948  1
  Bi2+  Bi122  1  0.84447827  0.28704396  0.22463136  1
  Bi2+  Bi123  1  0.80168468  0.25152689  0.71495169  1
  Bi2+  Bi124  1  0.88523675  0.49305387  0.22146746  1
  Bi2+  Bi125  1  0.90191947  0.49002995  0.71535451  1
  Bi2+  Bi126  1  0.84335761  0.74019129  0.22174645  1
  Bi2+  Bi127  1  0.99229836  0.74454562  0.71195098  1
  S2-  S128  1  0.00749899  0.03683251  0.14855883  1
  S2-  S129  1  -0.02588184  0.14101579  0.66406610  1
  S2-  S130  1  -0.02547358  0.40346276  0.14886076  1
  S2-  S131  1  -0.02135707  0.36374080  0.66380189  1
  S2-  S132  1  -0.12649847  0.62220730  0.14752804  1
  S2-  S133  1  -0.08291848  0.62598651  0.65151890  1
  S2-  S134  1  0.09047123  0.84820733  0.17630043  1
  S2-  S135  1  -0.04192853  0.90051086  0.64527838  1
  S2-  S136  1  0.22622959  0.15859603  0.16805091  1
  S2-  S137  1  0.18589111  0.12525935  0.65754448  1
  S2-  S138  1  0.34103214  0.35906193  0.13162672  1
  S2-  S139  1  0.19949261  0.34821941  0.65851968  1
  S2-  S140  1  0.12530983  0.61795893  0.14814258  1
  S2-  S141  1  0.36793217  0.59887168  0.63802100  1
  S2-  S142  1  0.29438849  0.93899829  0.13922590  1
  S2-  S143  1  0.36027846  0.91836755  0.64216664  1
  S2-  S144  1  0.43122106  0.11568948  0.12819344  1
  S2-  S145  1  0.41250731  0.14372040  0.64391876  1
  S2-  S146  1  0.53713197  0.29863317  0.16110996  1
  S2-  S147  1  0.40685280  0.37295302  0.64258786  1
  S2-  S148  1  0.39778161  0.60551817  0.14079438  1
  S2-  S149  1  0.49471224  0.75585007  0.65602215  1
  S2-  S150  1  0.59574966  0.87291399  0.13291746  1
  S2-  S151  1  0.61682833  0.91853082  0.66448651  1
  S2-  S152  1  0.72973116  0.04107985  0.14937701  1
  S2-  S153  1  0.79449035  0.03663741  0.65559461  1
  S2-  S154  1  0.75361959  0.26594216  0.13584216  1
  S2-  S155  1  0.77555462  0.46203429  0.64884892  1
  S2-  S156  1  0.63261314  0.62599324  0.14053462  1
  S2-  S157  1  0.65152476  0.63082838  0.66712026  1
  S2-  S158  1  0.85760364  0.86143124  0.15541229  1
  S2-  S159  1  0.77934706  0.80638821  0.70604507  1
  S2-  S160  1  0.06515059  0.02834063  0.34400718  1
  S2-  S161  1  0.09042562  0.01152311  0.84617273  1
  S2-  S162  1  0.14340725  0.25099705  0.34221894  1
  S2-  S163  1  0.08350439  0.23470501  0.84324211  1
  S2-  S164  1  0.02708413  0.49221060  0.35639302  1
  S2-  S165  1  0.13040460  0.54402053  0.85368522  1
  S2-  S166  1  0.04655000  0.75494585  0.34722630  1
  S2-  S167  1  0.01202170  0.76044142  0.87065462  1
  S2-  S168  1  0.27605338  -0.01662168  0.35425472  1
  S2-  S169  1  0.35661031  0.09259685  0.84500265  1
  S2-  S170  1  0.36791933  0.15391617  0.34392882  1
  S2-  S171  1  0.29886016  0.27350458  0.80979689  1
  S2-  S172  1  0.36980065  0.39336838  0.35521902  1
  S2-  S173  1  0.41914257  0.45247264  0.83784597  1
  S2-  S174  1  0.29405087  0.75272839  0.35547154  1
  S2-  S175  1  0.34445217  0.63916227  0.85584174  1
  S2-  S176  1  0.55040464  0.00780993  0.35975155  1
  S2-  S177  1  0.59380967  -0.04040105  0.82614498  1
  S2-  S178  1  0.55313661  0.26225978  0.35158492  1
  S2-  S179  1  0.52551463  0.25949099  0.84434236  1
  S2-  S180  1  0.53752842  0.53579974  0.36461086  1
  S2-  S181  1  0.63151449  0.56116386  0.85263733  1
  S2-  S182  1  0.57423161  0.76309861  0.36663337  1
  S2-  S183  1  0.52281814  0.74496801  0.84392758  1
  S2-  S184  1  0.87830491  -0.08557991  0.34604327  1
  S2-  S185  1  0.80541991  -0.00119966  0.85880656  1
  S2-  S186  1  0.89524635  0.18573474  0.35607985  1
  S2-  S187  1  0.87617765  0.34880688  0.85053278  1
  S2-  S188  1  0.76137880  0.48914798  0.35991095  1
  S2-  S189  1  0.85098630  0.55583556  0.83809278  1
  S2-  S190  1  0.83225278  0.69425979  0.32740013  1
  S2-  S191  1  0.77839943  0.75740078  0.85700086  1
  S2-  S192  1  0.02795395  0.13269942  0.45841606  1
  S2-  S193  1  0.00712795  0.12156260  0.95464710  1
  S2-  S194  1  0.02476747  0.37788944  0.45963188  1
  S2-  S195  1  0.01555596  0.37437480  0.94895072  1
  S2-  S196  1  0.02221556  0.63563743  0.45565829  1
  S2-  S197  1  0.00595212  0.61854503  0.96494608  1
  S2-  S198  1  0.02452266  0.88309857  0.44852281  1
  S2-  S199  1  0.00571720  0.87991894  0.96838292  1
  S2-  S200  1  0.27563078  0.13313520  0.45761653  1
  S2-  S201  1  0.25762333  0.12084390  0.95237958  1
  S2-  S202  1  0.27007379  0.38552301  0.45830953  1
  S2-  S203  1  0.25632950  0.37505702  0.94007919  1
  S2-  S204  1  0.27699974  0.62438268  0.45097875  1
  S2-  S205  1  0.25181087  0.62954607  0.96450317  1
  S2-  S206  1  0.28024388  0.87739520  0.45631229  1
  S2-  S207  1  0.25725078  0.86944849  0.94423197  1
  S2-  S208  1  0.52711181  0.13724518  0.45769972  1
  S2-  S209  1  0.51585291  0.11586344  0.93533407  1
  S2-  S210  1  0.53190537  0.38199487  0.45616638  1
  S2-  S211  1  0.50677945  0.37621650  0.95118938  1
  S2-  S212  1  0.52856174  0.63253089  0.47183716  1
  S2-  S213  1  0.51003481  0.62399817  0.95712138  1
  S2-  S214  1  0.52506999  0.88283072  0.46720966  1
  S2-  S215  1  0.51638280  0.87548192  0.94226772  1
  S2-  S216  1  0.77189756  0.12983848  0.45637556  1
  S2-  S217  1  0.76161499  0.12928400  0.95349706  1
  S2-  S218  1  0.77610953  0.37643001  0.45800577  1
  S2-  S219  1  0.75716422  0.37318034  0.95210800  1
  S2-  S220  1  0.77994722  0.63662724  0.45873204  1
  S2-  S221  1  0.76276864  0.61906877  0.96101344  1
  S2-  S222  1  0.77513194  0.88574895  0.45070810  1
  S2-  S223  1  0.76250528  0.87317463  0.96167548  1
  S2-  S224  1  0.13923893  0.00004390  0.04820223  1
  S2-  S225  1  0.15022206  0.00001367  0.54637304  1
  S2-  S226  1  0.13666297  0.24677120  0.04693352  1
  S2-  S227  1  0.15090426  0.25597724  0.54955738  1
  S2-  S228  1  0.13586555  0.49327063  0.05167351  1
  S2-  S229  1  0.14862119  0.50583762  0.54647862  1
  S2-  S230  1  0.13055821  0.75528221  0.05156111  1
  S2-  S231  1  0.14695933  0.75446177  0.53609053  1
  S2-  S232  1  0.38652148  -0.00865710  0.02856681  1
  S2-  S233  1  0.40180376  0.00914740  0.53713219  1
  S2-  S234  1  0.38134811  0.24420509  0.02474645  1
  S2-  S235  1  0.40070538  0.25689476  0.53557278  1
  S2-  S236  1  0.38135878  0.49955909  0.03674777  1
  S2-  S237  1  0.40050934  0.50336318  0.53766159  1
  S2-  S238  1  0.38486823  0.75320722  0.04089870  1
  S2-  S239  1  0.39544074  0.75458913  0.54348851  1
  S2-  S240  1  0.63292704  0.00199339  0.03119729  1
  S2-  S241  1  0.64591636  0.00871681  0.55126436  1
  S2-  S242  1  0.62597085  0.25114118  0.03402131  1
  S2-  S243  1  0.64916402  0.25302289  0.53805304  1
  S2-  S244  1  0.63054035  0.49003217  0.05047100  1
  S2-  S245  1  0.64947424  0.50472420  0.55056864  1
  S2-  S246  1  0.63713695  0.74646516  0.03510453  1
  S2-  S247  1  0.65852148  0.76164050  0.56441357  1
  S2-  S248  1  0.87807668  0.00349238  0.04971037  1
  S2-  S249  1  0.89906245  0.00645023  0.53933004  1
  S2-  S250  1  0.88852419  0.24948582  0.03907612  1
  S2-  S251  1  0.90035562  0.25551219  0.55286154  1
  S2-  S252  1  0.88037511  0.49527426  0.04251003  1
  S2-  S253  1  0.90197686  0.50121092  0.54343529  1
  S2-  S254  1  0.88016684  0.75042009  0.04773776  1
  S2-  S255  1  0.89169808  0.75786137  0.55423001  1
