# generated using pymatgen
data_La9Ce10Pr6Nd4Sm3(BiS2)32
_symmetry_space_group_name_H-M   'P 1'
_cell_length_a   16.15839654
_cell_length_b   16.16747683
_cell_length_c   27.13323404
_cell_angle_alpha   89.91420732
_cell_angle_beta   90.09949337
_cell_angle_gamma   90.18311300
_symmetry_Int_Tables_number   1
_chemical_formula_structural   La9Ce10Pr6Nd4Sm3(BiS2)32
_chemical_formula_sum   'La18 Ce20 Pr12 Nd8 Sm6 Bi64 S128'
_cell_volume   7088.24489694
_cell_formula_units_Z   2
loop_
 _symmetry_equiv_pos_site_id
 _symmetry_equiv_pos_as_xyz
  1  'x, y, z'
loop_
 _atom_type_symbol
 _atom_type_oxidation_number
  La3+  3.0
  Ce3+  3.0
  Pr3+  3.0
  Nd3+  3.0
  Sm3+  3.0
  Bi2+  2.0
  S2-  -2.0
loop_
 _atom_site_type_symbol
 _atom_site_label
 _atom_site_symmetry_multiplicity
 _atom_site_fract_x
 _atom_site_fract_y
 _atom_site_fract_z
 _atom_site_occupancy
  La3+  La0  1  0.63473602  0.49120322  0.89827998  1
  La3+  La1  1  0.62840507  0.25063399  0.42909746  1
  La3+  La2  1  -0.00404055  0.86082363  0.57744360  1
  La3+  La3  1  0.38164819  0.00959811  0.39425794  1
  La3+  La4  1  0.37823202  0.23161860  0.92511096  1
  La3+  La5  1  0.88276264  0.73290513  0.92577054  1
  La3+  La6  1  0.11900404  0.23250525  0.92340102  1
  La3+  La7  1  0.88789092  0.24067121  0.42820725  1
  La3+  La8  1  0.01416773  0.12662232  0.59290626  1
  La3+  La9  1  0.51843353  0.36573834  0.58272402  1
  La3+  La10  1  0.13654337  0.49009611  0.42848880  1
  La3+  La11  1  0.25797964  0.85649202  0.06716678  1
  La3+  La12  1  0.52129556  0.63297383  0.58751057  1
  La3+  La13  1  0.49764304  0.11944545  0.07381850  1
  La3+  La14  1  0.62885306  0.23382895  0.93323213  1
  La3+  La15  1  0.88750500  0.73998619  0.41861021  1
  La3+  La16  1  0.52100176  0.86009805  0.10166122  1
  La3+  La17  1  0.25873049  0.62125528  0.56140389  1
  Ce3+  Ce18  1  0.25517609  0.11355153  0.05520787  1
  Ce3+  Ce19  1  0.13083115  0.75046988  0.43814776  1
  Ce3+  Ce20  1  0.50878792  0.11946955  0.56235676  1
  Ce3+  Ce21  1  0.00461404  0.60738890  0.05763324  1
  Ce3+  Ce22  1  0.50373387  0.36072366  0.05221260  1
  Ce3+  Ce23  1  0.88301397  0.48707797  0.43286248  1
  Ce3+  Ce24  1  0.25362766  0.36012581  0.05313232  1
  Ce3+  Ce25  1  0.89168504  -0.00123243  0.44269123  1
  Ce3+  Ce26  1  0.50918622  0.87252960  0.55158401  1
  Ce3+  Ce27  1  0.75381876  0.35485273  0.06393320  1
  Ce3+  Ce28  1  0.26071263  0.11874833  0.56859187  1
  Ce3+  Ce29  1  0.75937226  0.86772108  0.54970808  1
  Ce3+  Ce30  1  0.13115580  0.73417652  0.93684442  1
  Ce3+  Ce31  1  0.00906167  0.36838931  0.56134939  1
  Ce3+  Ce32  1  0.25709082  0.60701107  0.05154710  1
  Ce3+  Ce33  1  0.62986106  0.49296009  0.44100957  1
  Ce3+  Ce34  1  0.63229026  -0.00091761  0.44347026  1
  Ce3+  Ce35  1  0.87634784  0.48172202  0.94661398  1
  Ce3+  Ce36  1  0.38666543  0.49564756  0.45017499  1
  Ce3+  Ce37  1  0.00457452  0.11163453  0.06657939  1
  Pr3+  Pr38  1  0.00330447  0.85513293  0.06175151  1
  Pr3+  Pr39  1  0.38448536  0.74831110  0.43390055  1
  Pr3+  Pr40  1  0.75818959  0.84996467  0.06799182  1
  Pr3+  Pr41  1  0.37821633  0.48000550  0.91777187  1
  Pr3+  Pr42  1  0.63001606  -0.01366385  0.93846781  1
  Pr3+  Pr43  1  0.01375213  0.35440458  0.07698476  1
  Pr3+  Pr44  1  0.25983792  0.37305956  0.57222659  1
  Pr3+  Pr45  1  0.38266342  0.73264691  0.94187286  1
  Pr3+  Pr46  1  0.75047496  0.10426505  0.06578640  1
  Pr3+  Pr47  1  0.50470652  0.60659786  0.05968908  1
  Pr3+  Pr48  1  0.63738261  0.74865891  0.42040112  1
  Pr3+  Pr49  1  0.25810593  0.87085514  0.56272450  1
  Nd3+  Nd50  1  0.76289808  0.35970956  0.56418840  1
  Nd3+  Nd51  1  0.88082601  -0.01639327  0.94255126  1
  Nd3+  Nd52  1  0.62961588  0.73654115  0.94104290  1
  Nd3+  Nd53  1  0.38057559  -0.01390779  0.94184486  1
  Nd3+  Nd54  1  0.38276212  0.24692449  0.44866613  1
  Nd3+  Nd55  1  0.12629073  0.48256453  0.93783857  1
  Nd3+  Nd56  1  0.76036933  0.61963630  0.55155281  1
  Nd3+  Nd57  1  0.87982327  0.23268106  0.94177860  1
  Sm3+  Sm58  1  0.00670523  0.61729943  0.55257949  1
  Sm3+  Sm59  1  0.13851867  0.24456693  0.44304626  1
  Sm3+  Sm60  1  0.13770051  -0.00377256  0.45072944  1
  Sm3+  Sm61  1  0.76180304  0.12148238  0.55824730  1
  Sm3+  Sm62  1  0.75266865  0.60676554  0.06046594  1
  Sm3+  Sm63  1  0.12907219  -0.01729651  0.94754289  1
  Bi2+  Bi64  1  0.02357509  0.18801955  0.30714543  1
  Bi2+  Bi65  1  -0.00222360  0.10687208  0.79562483  1
  Bi2+  Bi66  1  -0.00008086  0.46289400  0.29844069  1
  Bi2+  Bi67  1  0.00290879  0.39432616  0.80425652  1
  Bi2+  Bi68  1  -0.11256162  0.70330784  0.27469628  1
  Bi2+  Bi69  1  -0.04451598  0.58872870  0.78329051  1
  Bi2+  Bi70  1  -0.05252186  0.95207704  0.31155081  1
  Bi2+  Bi71  1  -0.03563115  0.79939982  0.76889483  1
  Bi2+  Bi72  1  0.22542011  0.16591228  0.31053283  1
  Bi2+  Bi73  1  0.28504169  0.09825836  0.77637627  1
  Bi2+  Bi74  1  0.24771977  0.36397936  0.28520805  1
  Bi2+  Bi75  1  0.20574199  0.38542508  0.80226767  1
  Bi2+  Bi76  1  0.24885256  0.67191542  0.30780802  1
  Bi2+  Bi77  1  0.19987925  0.73155047  0.80426147  1
  Bi2+  Bi78  1  0.16003302  0.85472065  0.31116696  1
  Bi2+  Bi79  1  0.22557110  0.92241685  0.81478384  1
  Bi2+  Bi80  1  0.53414826  0.13724755  0.29857529  1
  Bi2+  Bi81  1  0.50774896  0.11384881  0.78355489  1
  Bi2+  Bi82  1  0.48596460  0.38004096  0.28539360  1
  Bi2+  Bi83  1  0.49617474  0.33896153  0.77896738  1
  Bi2+  Bi84  1  0.40850590  0.56372871  0.27959162  1
  Bi2+  Bi85  1  0.47657329  0.64645887  0.79431685  1
  Bi2+  Bi86  1  0.51381199  0.86599640  0.29745414  1
  Bi2+  Bi87  1  0.50313935  0.91359129  0.78953096  1
  Bi2+  Bi88  1  0.84824402  0.13059618  0.25606732  1
  Bi2+  Bi89  1  0.74946589  0.11585601  0.78620079  1
  Bi2+  Bi90  1  0.74635358  0.34494939  0.29669560  1
  Bi2+  Bi91  1  0.76672132  0.37218939  0.78775353  1
  Bi2+  Bi92  1  0.68174535  0.52833456  0.26092628  1
  Bi2+  Bi93  1  0.76831872  0.64686212  0.79501698  1
  Bi2+  Bi94  1  0.77319724  0.89098754  0.27821940  1
  Bi2+  Bi95  1  0.69503362  0.91001463  0.81209249  1
  Bi2+  Bi96  1  0.10345528  0.02569161  0.25323676  1
  Bi2+  Bi97  1  0.13323952  -0.01884227  0.71244180  1
  Bi2+  Bi98  1  0.12974672  0.24108614  0.21630688  1
  Bi2+  Bi99  1  0.14417566  0.25724562  0.71866366  1
  Bi2+  Bi100  1  0.15835585  0.56218493  0.20693230  1
  Bi2+  Bi101  1  0.06080524  0.48519579  0.70415116  1
  Bi2+  Bi102  1  0.08051525  0.74145663  0.22995822  1
  Bi2+  Bi103  1  0.09879571  0.68270013  0.70470248  1
  Bi2+  Bi104  1  0.37048474  0.00581848  0.19406584  1
  Bi2+  Bi105  1  0.45645796  -0.04945930  0.67408635  1
  Bi2+  Bi106  1  0.38296481  0.26792625  0.21113497  1
  Bi2+  Bi107  1  0.39758561  0.13536171  0.68689366  1
  Bi2+  Bi108  1  0.31244367  0.44673768  0.18030550  1
  Bi2+  Bi109  1  0.33762936  0.50876315  0.71586614  1
  Bi2+  Bi110  1  0.33466114  0.75391691  0.21780519  1
  Bi2+  Bi111  1  0.33689627  0.81775176  0.73777828  1
  Bi2+  Bi112  1  0.68855548  0.02338556  0.20638504  1
  Bi2+  Bi113  1  0.64866089  0.01050607  0.70234774  1
  Bi2+  Bi114  1  0.63918504  0.29827504  0.20512095  1
  Bi2+  Bi115  1  0.66619409  0.26017166  0.70946940  1
  Bi2+  Bi116  1  0.52115497  0.51573527  0.18941699  1
  Bi2+  Bi117  1  0.60137875  0.51143849  0.70366913  1
  Bi2+  Bi118  1  0.64597623  0.69919370  0.21818733  1
  Bi2+  Bi119  1  0.63105607  0.80590865  0.72322224  1
  Bi2+  Bi120  1  0.94168178  0.01316192  0.18454164  1
  Bi2+  Bi121  1  0.83885818  -0.02443783  0.72095738  1
  Bi2+  Bi122  1  0.88200512  0.30760040  0.20060150  1
  Bi2+  Bi123  1  0.88706068  0.27069335  0.71877348  1
  Bi2+  Bi124  1  0.86859127  0.52794979  0.22425744  1
  Bi2+  Bi125  1  0.86686378  0.46685341  0.70179342  1
  Bi2+  Bi126  1  0.87857583  0.82672212  0.18329956  1
  Bi2+  Bi127  1  0.81211602  0.71952411  0.69062662  1
  S2-  S128  1  0.00245431  0.21576330  0.14517795  1
  S2-  S129  1  -0.03035686  0.06077453  0.68850553  1
  S2-  S130  1  -0.02454849  0.43162185  0.16878527  1
  S2-  S131  1  0.01353203  0.27997138  0.64730230  1
  S2-  S132  1  0.03224665  0.63679965  0.15330570  1
  S2-  S133  1  -0.04689837  0.67340511  0.63920813  1
  S2-  S134  1  0.04508897  0.86807428  0.15995757  1
  S2-  S135  1  0.06098085  0.85406010  0.67407354  1
  S2-  S136  1  0.31279114  0.14810173  0.14577440  1
  S2-  S137  1  0.16874222  0.12796345  0.65292127  1
  S2-  S138  1  0.17443310  0.35556397  0.14013883  1
  S2-  S139  1  0.24416338  0.36512299  0.67414375  1
  S2-  S140  1  0.27630732  0.63665097  0.14757876  1
  S2-  S141  1  0.23962844  0.61736830  0.66177470  1
  S2-  S142  1  0.25919930  0.87928369  0.16755046  1
  S2-  S143  1  0.26846768  0.91061859  0.66233035  1
  S2-  S144  1  0.53168039  0.03687826  0.16027635  1
  S2-  S145  1  0.53828387  0.21107866  0.64399428  1
  S2-  S146  1  0.50674809  0.26944230  0.13832086  1
  S2-  S147  1  0.46036057  0.40587851  0.68144241  1
  S2-  S148  1  0.53080842  0.68652623  0.15085105  1
  S2-  S149  1  0.45561067  0.61145787  0.68539404  1
  S2-  S150  1  0.45882782  0.85570967  0.19748602  1
  S2-  S151  1  0.53174490  0.79652569  0.63861475  1
  S2-  S152  1  0.73444354  0.18143786  0.15632338  1
  S2-  S153  1  0.78479259  0.22084251  0.63847497  1
  S2-  S154  1  0.75060801  0.40722391  0.15809145  1
  S2-  S155  1  0.66396508  0.39648735  0.64516822  1
  S2-  S156  1  0.76781837  0.69697741  0.14410895  1
  S2-  S157  1  0.67833840  0.62543282  0.64102600  1
  S2-  S158  1  0.67313014  0.88550820  0.15530380  1
  S2-  S159  1  0.84006904  0.86529114  0.63666245  1
  S2-  S160  1  0.21157275  0.00769050  0.36005483  1
  S2-  S161  1  0.08603553  0.01193025  0.85275458  1
  S2-  S162  1  0.13809520  0.35051828  0.36261456  1
  S2-  S163  1  0.18995204  0.21725352  0.82875912  1
  S2-  S164  1  0.11988036  0.56125617  0.33328261  1
  S2-  S165  1  0.13057149  0.51567036  0.83880028  1
  S2-  S166  1  0.02758265  0.77751358  0.35886434  1
  S2-  S167  1  0.04035503  0.75242994  0.85417214  1
  S2-  S168  1  0.40482081  0.01593431  0.28679541  1
  S2-  S169  1  0.39016942  0.09153404  0.86019179  1
  S2-  S170  1  0.38980882  0.18343990  0.35525653  1
  S2-  S171  1  0.37675863  0.34313674  0.84439401  1
  S2-  S172  1  0.36341014  0.44457997  0.35619648  1
  S2-  S173  1  0.35569975  0.55024311  0.82153440  1
  S2-  S174  1  0.37853803  0.84530080  0.34963762  1
  S2-  S175  1  0.37862928  0.75886593  0.84178725  1
  S2-  S176  1  0.58723121  0.00351606  0.34836178  1
  S2-  S177  1  0.62751802  0.10466704  0.86023860  1
  S2-  S178  1  0.67273599  0.19418542  0.33485600  1
  S2-  S179  1  0.62923645  0.33023537  0.84745300  1
  S2-  S180  1  0.61026832  0.39723265  0.35962348  1
  S2-  S181  1  0.55386628  0.49467679  0.80348829  1
  S2-  S182  1  0.56117698  0.72351386  0.32680200  1
  S2-  S183  1  0.62695018  0.66431317  0.84989170  1
  S2-  S184  1  0.88460072  0.09954540  0.35995371  1
  S2-  S185  1  0.87643350  0.04458365  0.84810304  1
  S2-  S186  1  0.88681437  0.36374967  0.35412478  1
  S2-  S187  1  0.97494362  0.24499231  0.85714858  1
  S2-  S188  1  0.89828375  0.57772700  0.34794622  1
  S2-  S189  1  0.79856353  0.49853658  0.85748626  1
  S2-  S190  1  0.76684721  0.75670043  0.34379483  1
  S2-  S191  1  0.83073204  0.79946240  0.83627189  1
  S2-  S192  1  0.02015008  0.12111037  0.45613977  1
  S2-  S193  1  0.00370165  0.10602178  0.96086629  1
  S2-  S194  1  0.01128887  0.36711802  0.45803437  1
  S2-  S195  1  0.00286060  0.36180381  0.96164992  1
  S2-  S196  1  0.01312673  0.61567728  0.45098018  1
  S2-  S197  1  0.00307427  0.60616773  0.95007617  1
  S2-  S198  1  0.01182044  0.87725384  0.46421623  1
  S2-  S199  1  0.00447280  0.86148598  0.95503336  1
  S2-  S200  1  0.26019347  0.12159166  0.46240049  1
  S2-  S201  1  0.24812079  0.10726116  0.95053504  1
  S2-  S202  1  0.26163916  0.37072182  0.46497260  1
  S2-  S203  1  0.24860687  0.35845452  0.94641258  1
  S2-  S204  1  0.25907490  0.62146384  0.45249331  1
  S2-  S205  1  0.25479634  0.60730601  0.94522362  1
  S2-  S206  1  0.25772691  0.87019792  0.45701205  1
  S2-  S207  1  0.25520863  0.86017122  0.95604730  1
  S2-  S208  1  0.50512087  0.11867675  0.45544305  1
  S2-  S209  1  0.50360281  0.10916428  0.96351585  1
  S2-  S210  1  0.50438570  0.36966459  0.46615990  1
  S2-  S211  1  0.50687355  0.36687341  0.94785951  1
  S2-  S212  1  0.50820927  0.62046378  0.44312021  1
  S2-  S213  1  0.50522976  0.60365531  0.94940775  1
  S2-  S214  1  0.50998177  0.87362390  0.44781132  1
  S2-  S215  1  0.50497958  0.86149420  0.94395534  1
  S2-  S216  1  0.75673122  0.12103522  0.45520895  1
  S2-  S217  1  0.75927976  0.10836032  0.95876015  1
  S2-  S218  1  0.75716159  0.36881890  0.45730324  1
  S2-  S219  1  0.75618542  0.35726176  0.95588298  1
  S2-  S220  1  0.75561021  0.61452433  0.44530630  1
  S2-  S221  1  0.75239227  0.61117193  0.95670533  1
  S2-  S222  1  0.76221189  0.87901166  0.44528697  1
  S2-  S223  1  0.75531622  0.85936782  0.95692845  1
  S2-  S224  1  0.13043219  -0.01474667  0.05303311  1
  S2-  S225  1  0.12888775  -0.00676432  0.55566045  1
  S2-  S226  1  0.13021772  0.23140979  0.03738703  1
  S2-  S227  1  0.13813484  0.24744028  0.54708672  1
  S2-  S228  1  0.12947837  0.48687329  0.04481635  1
  S2-  S229  1  0.13188054  0.49498335  0.54830674  1
  S2-  S230  1  0.13108550  0.73276869  0.04458429  1
  S2-  S231  1  0.12981399  0.74451471  0.54859357  1
  S2-  S232  1  0.38237854  -0.01796487  0.04983237  1
  S2-  S233  1  0.38353924  -0.00451671  0.55081457  1
  S2-  S234  1  0.37529533  0.24024008  0.03418797  1
  S2-  S235  1  0.38180406  0.24709753  0.55571549  1
  S2-  S236  1  0.37921195  0.48407518  0.03712700  1
  S2-  S237  1  0.38988936  0.49982975  0.55811994  1
  S2-  S238  1  0.38791359  0.73900490  0.04880140  1
  S2-  S239  1  0.38563223  0.74473251  0.54509755  1
  S2-  S240  1  0.62870827  -0.02055952  0.04568373  1
  S2-  S241  1  0.63801306  -0.00318564  0.55091896  1
  S2-  S242  1  0.63145305  0.23389268  0.04169309  1
  S2-  S243  1  0.63801185  0.24165565  0.53876482  1
  S2-  S244  1  0.63113160  0.48386427  0.05276177  1
  S2-  S245  1  0.63051551  0.49916915  0.54333360  1
  S2-  S246  1  0.62872072  0.73384464  0.04487512  1
  S2-  S247  1  0.63692930  0.74603292  0.53083717  1
  S2-  S248  1  0.87900272  -0.01714527  0.05037573  1
  S2-  S249  1  0.88761714  0.00395881  0.54925331  1
  S2-  S250  1  0.87733600  0.23207863  0.04738828  1
  S2-  S251  1  0.89133282  0.24055190  0.53843123  1
  S2-  S252  1  0.87810929  0.48488687  0.05246883  1
  S2-  S253  1  0.88267499  0.49307696  0.54572113  1
  S2-  S254  1  0.88173295  0.72954428  0.03785418  1
  S2-  S255  1  0.88079207  0.74233348  0.52897186  1
