# generated using pymatgen
data_La9Ce10Pr6Nd4Sm3(BiS2)32
_symmetry_space_group_name_H-M   'P 1'
_cell_length_a   16.17129826
_cell_length_b   16.17561095
_cell_length_c   27.24858380
_cell_angle_alpha   90.27838454
_cell_angle_beta   89.81311353
_cell_angle_gamma   89.97913524
_symmetry_Int_Tables_number   1
_chemical_formula_structural   La9Ce10Pr6Nd4Sm3(BiS2)32
_chemical_formula_sum   'La18 Ce20 Pr12 Nd8 Sm6 Bi64 S128'
_cell_volume   7127.57913251
_cell_formula_units_Z   2
loop_
 _symmetry_equiv_pos_site_id
 _symmetry_equiv_pos_as_xyz
  1  'x, y, z'
loop_
 _atom_type_symbol
 _atom_type_oxidation_number
  La3+  3.0
  Ce3+  3.0
  Pr3+  3.0
  Nd3+  3.0
  Sm3+  3.0
  Bi2+  2.0
  S2-  -2.0
loop_
 _atom_site_type_symbol
 _atom_site_label
 _atom_site_symmetry_multiplicity
 _atom_site_fract_x
 _atom_site_fract_y
 _atom_site_fract_z
 _atom_site_occupancy
  La3+  La0  1  0.63013668  0.49583312  0.43339750  1
  La3+  La1  1  0.00356214  0.85996323  0.57973727  1
  La3+  La2  1  0.25587213  0.62501009  0.08594916  1
  La3+  La3  1  0.62197852  -0.01454489  0.40768199  1
  La3+  La4  1  0.88923665  0.24532132  0.92998040  1
  La3+  La5  1  0.87193407  0.23881693  0.42519471  1
  La3+  La6  1  0.01355004  0.60480999  0.57871040  1
  La3+  La7  1  0.14001194  -0.01519922  0.91343230  1
  La3+  La8  1  0.75028929  0.88208792  0.10627463  1
  La3+  La9  1  0.13666359  0.24463220  0.93100984  1
  La3+  La10  1  0.26212096  0.36909472  0.08038367  1
  La3+  La11  1  0.25153581  0.87067271  0.06614757  1
  La3+  La12  1  0.13303618  0.48609614  0.41515306  1
  La3+  La13  1  0.62697644  0.74189968  0.43282124  1
  La3+  La14  1  0.74996497  0.61815256  0.08066969  1
  La3+  La15  1  0.88980818  -0.02352606  0.42222231  1
  La3+  La16  1  0.63429426  0.74933504  0.88501719  1
  La3+  La17  1  0.00542308  0.62313181  0.07799093  1
  Ce3+  Ce18  1  0.00522130  0.86905064  0.05165906  1
  Ce3+  Ce19  1  0.50810561  0.11514374  0.55515386  1
  Ce3+  Ce20  1  0.12813070  -0.01156850  0.44204063  1
  Ce3+  Ce21  1  0.25275306  0.36762036  0.55761950  1
  Ce3+  Ce22  1  0.75193247  0.36626137  0.55729310  1
  Ce3+  Ce23  1  0.50917650  0.11871953  0.05981684  1
  Ce3+  Ce24  1  0.62981240  0.24008088  0.43113716  1
  Ce3+  Ce25  1  0.00863683  0.36348752  0.06522104  1
  Ce3+  Ce26  1  -0.00127891  0.11509572  0.55328875  1
  Ce3+  Ce27  1  0.63125812  -0.01193242  0.93928076  1
  Ce3+  Ce28  1  0.38179542  0.24173326  0.94141211  1
  Ce3+  Ce29  1  0.00314167  0.36712589  0.55204847  1
  Ce3+  Ce30  1  0.13099978  0.73503898  0.93425480  1
  Ce3+  Ce31  1  0.75067018  0.61767894  0.56468787  1
  Ce3+  Ce32  1  0.12798853  0.24048527  0.43639802  1
  Ce3+  Ce33  1  0.75900375  0.36884488  0.06849040  1
  Ce3+  Ce34  1  0.50494187  0.36510578  0.55396760  1
  Ce3+  Ce35  1  0.00609180  0.11774516  0.05269647  1
  Ce3+  Ce36  1  0.50035623  0.61854184  0.56081302  1
  Ce3+  Ce37  1  0.25310647  0.61306276  0.55705785  1
  Pr3+  Pr38  1  0.50701265  0.87589110  0.57512260  1
  Pr3+  Pr39  1  0.63579911  0.48821812  0.93625181  1
  Pr3+  Pr40  1  0.75817819  0.12116887  0.05952897  1
  Pr3+  Pr41  1  0.25078654  0.11644855  0.56191143  1
  Pr3+  Pr42  1  0.38415027  0.49385704  0.94995142  1
  Pr3+  Pr43  1  0.88179513  0.49550242  0.43989230  1
  Pr3+  Pr44  1  0.38058204  0.23893324  0.44221959  1
  Pr3+  Pr45  1  0.38522087  0.74012684  0.93802672  1
  Pr3+  Pr46  1  0.38292081  -0.00652683  0.94333856  1
  Pr3+  Pr47  1  0.87756164  -0.01281967  0.94114049  1
  Pr3+  Pr48  1  0.51069078  0.86851554  0.06205156  1
  Pr3+  Pr49  1  0.37785472  0.74283537  0.44286726  1
  Nd3+  Nd50  1  0.37884330  -0.01171874  0.43934520  1
  Nd3+  Nd51  1  0.51423180  0.62482991  0.05823994  1
  Nd3+  Nd52  1  0.75601267  0.87027323  0.56178013  1
  Nd3+  Nd53  1  0.25460838  0.12245496  0.06652803  1
  Nd3+  Nd54  1  0.88153693  0.49549522  0.95007785  1
  Nd3+  Nd55  1  0.87157534  0.73817318  0.94737669  1
  Nd3+  Nd56  1  0.88216192  0.74015564  0.44614395  1
  Nd3+  Nd57  1  0.50821504  0.36976334  0.06352839  1
  Sm3+  Sm58  1  0.25029720  0.86703071  0.56576572  1
  Sm3+  Sm59  1  0.75358730  0.11398060  0.54495884  1
  Sm3+  Sm60  1  0.12838310  0.73962904  0.44377122  1
  Sm3+  Sm61  1  0.13478413  0.49873663  0.94970097  1
  Sm3+  Sm62  1  0.37770065  0.48890058  0.43661633  1
  Sm3+  Sm63  1  0.63978649  0.24429617  0.93696243  1
  Bi2+  Bi64  1  0.06773347  0.13240235  0.25671165  1
  Bi2+  Bi65  1  -0.06660357  0.13214879  0.80067276  1
  Bi2+  Bi66  1  -0.00265330  0.36401759  0.29333718  1
  Bi2+  Bi67  1  -0.00634544  0.51146915  0.80174931  1
  Bi2+  Bi68  1  -0.02416554  0.66430670  0.31680593  1
  Bi2+  Bi69  1  -0.03049147  0.70091921  0.81122363  1
  Bi2+  Bi70  1  0.05046916  0.91194979  0.26937463  1
  Bi2+  Bi71  1  -0.01208305  0.87646223  0.76371206  1
  Bi2+  Bi72  1  0.25114801  0.09306383  0.28967848  1
  Bi2+  Bi73  1  0.22832456  0.12499259  0.79289979  1
  Bi2+  Bi74  1  0.33691935  0.36478348  0.29780664  1
  Bi2+  Bi75  1  0.23826692  0.39171618  0.80762338  1
  Bi2+  Bi76  1  0.30001703  0.63967521  0.29240531  1
  Bi2+  Bi77  1  0.24991443  0.59210622  0.79103657  1
  Bi2+  Bi78  1  0.30425781  0.90691841  0.31783850  1
  Bi2+  Bi79  1  0.26123471  0.78695339  0.78420749  1
  Bi2+  Bi80  1  0.51724451  0.24309719  0.30659852  1
  Bi2+  Bi81  1  0.51775158  0.21180813  0.82474715  1
  Bi2+  Bi82  1  0.51469680  0.43595490  0.32603998  1
  Bi2+  Bi83  1  0.44294538  0.38676577  0.78960152  1
  Bi2+  Bi84  1  0.54542720  0.59123429  0.25200469  1
  Bi2+  Bi85  1  0.49491725  0.62426381  0.78875525  1
  Bi2+  Bi86  1  0.48975456  0.84821517  0.29193590  1
  Bi2+  Bi87  1  0.45526046  1.02425693  0.81393771  1
  Bi2+  Bi88  1  0.80574663  0.15811734  0.27970200  1
  Bi2+  Bi89  1  0.67572671  0.13486474  0.75145079  1
  Bi2+  Bi90  1  0.70185676  0.39175871  0.28787512  1
  Bi2+  Bi91  1  0.75426072  0.34469974  0.79409789  1
  Bi2+  Bi92  1  0.74405151  0.58891261  0.28022923  1
  Bi2+  Bi93  1  0.75428557  0.60126819  0.78746921  1
  Bi2+  Bi94  1  0.77406200  0.89885935  0.29147437  1
  Bi2+  Bi95  1  0.74816301  0.95456914  0.77683611  1
  Bi2+  Bi96  1  0.19511084  0.02363090  0.18211726  1
  Bi2+  Bi97  1  0.11637135  -0.01130703  0.70719771  1
  Bi2+  Bi98  1  0.17031982  0.29762741  0.24754861  1
  Bi2+  Bi99  1  0.09051825  0.28976565  0.76205931  1
  Bi2+  Bi100  1  0.09114915  0.53423677  0.21205795  1
  Bi2+  Bi101  1  0.13802227  0.46876653  0.70317621  1
  Bi2+  Bi102  1  0.19385824  0.78527010  0.25018047  1
  Bi2+  Bi103  1  0.10546932  0.72845992  0.72316408  1
  Bi2+  Bi104  1  0.37346056  -0.01186280  0.21698985  1
  Bi2+  Bi105  1  0.37047103  -0.01224797  0.71132698  1
  Bi2+  Bi106  1  0.37103111  0.23066812  0.20596583  1
  Bi2+  Bi107  1  0.39186270  0.18979990  0.73677655  1
  Bi2+  Bi108  1  0.36912009  0.51759614  0.20945013  1
  Bi2+  Bi109  1  0.33647432  0.44697954  0.69968543  1
  Bi2+  Bi110  1  0.40112119  0.71522330  0.20285710  1
  Bi2+  Bi111  1  0.34720398  0.68351166  0.69762487  1
  Bi2+  Bi112  1  0.60380081  0.02704476  0.21683285  1
  Bi2+  Bi113  1  0.57456687  -0.02874794  0.72379128  1
  Bi2+  Bi114  1  0.63030939  0.23884064  0.21089335  1
  Bi2+  Bi115  1  0.56125238  0.23177491  0.68068702  1
  Bi2+  Bi116  1  0.59832951  0.41919062  0.18516328  1
  Bi2+  Bi117  1  0.61789712  0.40758154  0.72148348  1
  Bi2+  Bi118  1  0.63563793  0.75376978  0.21306645  1
  Bi2+  Bi119  1  0.59814847  0.73292901  0.68157617  1
  Bi2+  Bi120  1  0.98544083  0.01366347  0.17793063  1
  Bi2+  Bi121  1  0.86700096  0.06498088  0.69090745  1
  Bi2+  Bi122  1  0.81599145  0.22462480  0.17180083  1
  Bi2+  Bi123  1  0.90878017  0.27707035  0.72267951  1
  Bi2+  Bi124  1  0.86633902  0.39748173  0.21235667  1
  Bi2+  Bi125  1  0.87914595  0.46881374  0.71296003  1
  Bi2+  Bi126  1  0.92825815  0.75359137  0.20517703  1
  Bi2+  Bi127  1  0.84789292  0.77377146  0.70710125  1
  S2-  S128  1  -0.01571742  0.17933759  0.14319248  1
  S2-  S129  1  0.01990290  0.10351198  0.65070415  1
  S2-  S130  1  0.02243921  0.39846145  0.16233836  1
  S2-  S131  1  0.00447457  0.45394691  0.63810657  1
  S2-  S132  1  -0.06080307  0.60090517  0.17769938  1
  S2-  S133  1  -0.02514652  0.70951265  0.65720686  1
  S2-  S134  1  0.03735770  0.84954664  0.14695919  1
  S2-  S135  1  -0.13235617  0.89672635  0.64293212  1
  S2-  S136  1  0.23863574  0.23449219  0.14700078  1
  S2-  S137  1  0.24767250  0.06707495  0.65975235  1
  S2-  S138  1  0.23599006  0.48779793  0.15650948  1
  S2-  S139  1  0.23101413  0.33608374  0.65345780  1
  S2-  S140  1  0.12458370  0.64998730  0.15275734  1
  S2-  S141  1  0.17026031  0.60803181  0.64274326  1
  S2-  S142  1  0.27832160  0.78165799  0.15164771  1
  S2-  S143  1  0.14576601  0.86543204  0.64636252  1
  S2-  S144  1  0.47100817  0.10338913  0.15678592  1
  S2-  S145  1  0.49461425  0.03153975  0.63915020  1
  S2-  S146  1  0.42462684  0.36183539  0.15301083  1
  S2-  S147  1  0.48455045  0.37957029  0.65139810  1
  S2-  S148  1  0.58811370  0.62242727  0.14919560  1
  S2-  S149  1  0.48869528  0.59939125  0.65933736  1
  S2-  S150  1  0.58631202  0.88177719  0.15532213  1
  S2-  S151  1  0.42911410  0.81805225  0.66527353  1
  S2-  S152  1  0.72497502  0.05304424  0.15109953  1
  S2-  S153  1  0.73649868  0.12688609  0.64415744  1
  S2-  S154  1  0.74867387  0.47426800  0.14837075  1
  S2-  S155  1  0.74911681  0.39264331  0.65509164  1
  S2-  S156  1  0.77363197  0.73066647  0.16063414  1
  S2-  S157  1  0.74145917  0.64290051  0.66284538  1
  S2-  S158  1  0.83899141  0.90998832  0.20067397  1
  S2-  S159  1  0.64735179  0.87739311  0.64134986  1
  S2-  S160  1  0.04740577  -0.02879232  0.35809690  1
  S2-  S161  1  0.09031056  0.05491355  0.82142298  1
  S2-  S162  1  0.13714229  0.32597473  0.35175971  1
  S2-  S163  1  0.01737605  0.26273721  0.85389385  1
  S2-  S164  1  0.06563541  0.52753637  0.32096634  1
  S2-  S165  1  0.13052280  0.59672380  0.86712860  1
  S2-  S166  1  0.11463361  0.73639122  0.34438429  1
  S2-  S167  1  0.15135588  0.83460632  0.85415901  1
  S2-  S168  1  0.46332273  -0.01725088  0.35236131  1
  S2-  S169  1  0.29486781  0.00576955  0.85529370  1
  S2-  S170  1  0.36504740  0.19891291  0.34416692  1
  S2-  S171  1  0.27451270  0.24979151  0.86321447  1
  S2-  S172  1  0.27973617  0.49964603  0.35560538  1
  S2-  S173  1  0.39963893  0.52225846  0.84994420  1
  S2-  S174  1  0.42370551  0.71447821  0.34704741  1
  S2-  S175  1  0.46299836  0.74949642  0.84677103  1
  S2-  S176  1  0.65902732  0.04478431  0.30701145  1
  S2-  S177  1  0.63406368  -0.08192080  0.84824912  1
  S2-  S178  1  0.73560645  0.25737653  0.35351633  1
  S2-  S179  1  0.62791490  0.35708268  0.86248325  1
  S2-  S180  1  0.64497735  0.61680121  0.35895268  1
  S2-  S181  1  0.63140583  0.57863687  0.84841571  1
  S2-  S182  1  0.63474234  0.84047503  0.34797807  1
  S2-  S183  1  0.63685169  0.72731559  0.77444701  1
  S2-  S184  1  0.85578532  0.02688115  0.32698299  1
  S2-  S185  1  0.88170512  -0.02160095  0.83930533  1
  S2-  S186  1  0.94583891  0.22274048  0.33180111  1
  S2-  S187  1  0.78844704  0.21258039  0.85014059  1
  S2-  S188  1  0.85550923  0.53710501  0.34250780  1
  S2-  S189  1  0.84767244  0.47495668  0.85067254  1
  S2-  S190  1  0.87401570  0.80216790  0.35182465  1
  S2-  S191  1  0.80631834  0.72109757  0.85233348  1
  S2-  S192  1  0.00374872  0.11760453  0.44792743  1
  S2-  S193  1  0.00999058  0.10883937  0.94738772  1
  S2-  S194  1  0.00070132  0.36481211  0.44736832  1
  S2-  S195  1  0.01279800  0.37648015  0.95698606  1
  S2-  S196  1  0.00871772  0.61586174  0.45423909  1
  S2-  S197  1  0.00216029  0.61821072  0.96510367  1
  S2-  S198  1  0.00934749  0.85967596  0.46495082  1
  S2-  S199  1  0.00292507  0.86318070  0.94598196  1
  S2-  S200  1  0.25282088  0.11430104  0.45284911  1
  S2-  S201  1  0.25591192  0.11592630  0.96083038  1
  S2-  S202  1  0.25705633  0.36231544  0.45315974  1
  S2-  S203  1  0.25698167  0.37471591  0.96558044  1
  S2-  S204  1  0.25250291  0.61792078  0.45219056  1
  S2-  S205  1  0.26123265  0.61820171  0.96437832  1
  S2-  S206  1  0.25060208  0.86511765  0.45873071  1
  S2-  S207  1  0.26082577  0.86542945  0.95813213  1
  S2-  S208  1  0.50613334  0.11459677  0.44974999  1
  S2-  S209  1  0.51054930  0.12020921  0.95373122  1
  S2-  S210  1  0.50400073  0.36596221  0.44956197  1
  S2-  S211  1  0.50456218  0.36329726  0.95854779  1
  S2-  S212  1  0.49704023  0.61304304  0.45523420  1
  S2-  S213  1  0.51160612  0.61883373  0.95460598  1
  S2-  S214  1  0.50108993  0.86611446  0.45969300  1
  S2-  S215  1  0.50643241  0.86762526  0.95519472  1
  S2-  S216  1  0.75119231  0.10703892  0.44125491  1
  S2-  S217  1  0.75426403  0.11512225  0.95337276  1
  S2-  S218  1  0.75422096  0.37253871  0.45177554  1
  S2-  S219  1  0.76153100  0.36425210  0.96080688  1
  S2-  S220  1  0.75780950  0.61873606  0.45922229  1
  S2-  S221  1  0.75596771  0.61208878  0.96511013  1
  S2-  S222  1  0.75531126  0.86562043  0.45442187  1
  S2-  S223  1  0.75221965  0.86426116  0.94751742  1
  S2-  S224  1  0.13075927  -0.00370456  0.04378379  1
  S2-  S225  1  0.12695857  -0.00858199  0.54607954  1
  S2-  S226  1  0.13065827  0.24315124  0.04085818  1
  S2-  S227  1  0.12627542  0.24052710  0.54399183  1
  S2-  S228  1  0.12956980  0.49402728  0.05155288  1
  S2-  S229  1  0.13130073  0.48623138  0.53352652  1
  S2-  S230  1  0.13148970  0.74590574  0.04152394  1
  S2-  S231  1  0.13033436  0.73867518  0.54676264  1
  S2-  S232  1  0.38095301  -0.00523611  0.05133035  1
  S2-  S233  1  0.37179987  -0.01117254  0.54518132  1
  S2-  S234  1  0.38413050  0.24047954  0.04609896  1
  S2-  S235  1  0.37883260  0.23843449  0.55039106  1
  S2-  S236  1  0.38674606  0.50044335  0.05555121  1
  S2-  S237  1  0.37886526  0.48987597  0.54266939  1
  S2-  S238  1  0.38600190  0.74400978  0.04660265  1
  S2-  S239  1  0.37277424  0.74334232  0.54959029  1
  S2-  S240  1  0.63283192  -0.00588425  0.04432656  1
  S2-  S241  1  0.63144117  -0.00487009  0.53614520  1
  S2-  S242  1  0.63151138  0.24532770  0.04768069  1
  S2-  S243  1  0.63068158  0.24140731  0.53861739  1
  S2-  S244  1  0.62924784  0.49032795  0.04378249  1
  S2-  S245  1  0.62642362  0.49258333  0.54551730  1
  S2-  S246  1  0.63676446  0.75172899  0.05494718  1
  S2-  S247  1  0.62556556  0.73985993  0.54400121  1
  S2-  S248  1  0.87711517  -0.01012007  0.04911531  1
  S2-  S249  1  0.87883605  -0.00576719  0.53543294  1
  S2-  S250  1  0.88369958  0.24464636  0.03809255  1
  S2-  S251  1  0.87578252  0.24209047  0.54054742  1
  S2-  S252  1  0.88527066  0.49066647  0.05465308  1
  S2-  S253  1  0.87491275  0.49296002  0.54563344  1
  S2-  S254  1  0.87831222  0.74895940  0.05302639  1
  S2-  S255  1  0.87871198  0.73569934  0.54985044  1
