# generated using pymatgen
data_La9Ce10Pr6Nd4Sm3(BiS2)32
_symmetry_space_group_name_H-M   'P 1'
_cell_length_a   16.20518775
_cell_length_b   16.21962022
_cell_length_c   27.15888946
_cell_angle_alpha   89.72985810
_cell_angle_beta   89.84590737
_cell_angle_gamma   90.03901844
_symmetry_Int_Tables_number   1
_chemical_formula_structural   La9Ce10Pr6Nd4Sm3(BiS2)32
_chemical_formula_sum   'La18 Ce20 Pr12 Nd8 Sm6 Bi64 S128'
_cell_volume   7138.38969803
_cell_formula_units_Z   2
loop_
 _symmetry_equiv_pos_site_id
 _symmetry_equiv_pos_as_xyz
  1  'x, y, z'
loop_
 _atom_type_symbol
 _atom_type_oxidation_number
  La3+  3.0
  Ce3+  3.0
  Pr3+  3.0
  Nd3+  3.0
  Sm3+  3.0
  Bi2+  2.0
  S2-  -2.0
loop_
 _atom_site_type_symbol
 _atom_site_label
 _atom_site_symmetry_multiplicity
 _atom_site_fract_x
 _atom_site_fract_y
 _atom_site_fract_z
 _atom_site_occupancy
  La3+  La0  1  0.88941480  0.76323680  0.43143921  1
  La3+  La1  1  0.38809847  0.01022543  0.42817827  1
  La3+  La2  1  0.48631753  0.61713915  0.07597705  1
  La3+  La3  1  0.76189988  0.14386717  0.56978353  1
  La3+  La4  1  0.23857302  0.12007963  0.11328165  1
  La3+  La5  1  0.88044549  0.25046259  0.41751817  1
  La3+  La6  1  0.14002904  0.26244245  0.41003805  1
  La3+  La7  1  0.26340973  0.13634579  0.55513692  1
  La3+  La8  1  0.74867359  0.62131535  0.10571321  1
  La3+  La9  1  0.86183274  0.49656534  0.94519912  1
  La3+  La10  1  -0.01445628  0.11092467  0.08823920  1
  La3+  La11  1  -0.01249212  0.86219783  0.06702433  1
  La3+  La12  1  0.38939697  0.26865448  0.42396853  1
  La3+  La13  1  0.01165973  0.14087952  0.56087731  1
  La3+  La14  1  0.64098145  0.51287970  0.41552210  1
  La3+  La15  1  0.50811036  0.12695735  0.56602622  1
  La3+  La16  1  0.85469093  0.74786379  0.92760256  1
  La3+  La17  1  0.51161210  0.63389025  0.56219626  1
  Ce3+  Ce18  1  0.01058392  0.89175768  0.56654128  1
  Ce3+  Ce19  1  0.63497970  0.26216142  0.44276224  1
  Ce3+  Ce20  1  0.00813359  0.37961925  0.55542242  1
  Ce3+  Ce21  1  0.36646027  0.74178813  0.93627366  1
  Ce3+  Ce22  1  0.00710412  0.63630143  0.55728814  1
  Ce3+  Ce23  1  0.36124346  0.24069895  0.95136943  1
  Ce3+  Ce24  1  0.50244373  0.38966061  0.56529944  1
  Ce3+  Ce25  1  0.64138035  0.75883269  0.42708888  1
  Ce3+  Ce26  1  0.61305283  -0.00249364  0.94680797  1
  Ce3+  Ce27  1  0.88708259  0.01295344  0.44225680  1
  Ce3+  Ce28  1  0.11461915  -0.00414414  0.95259403  1
  Ce3+  Ce29  1  0.76188799  0.63484272  0.55521633  1
  Ce3+  Ce30  1  0.73930048  0.11618817  0.07352269  1
  Ce3+  Ce31  1  0.73917586  0.36698426  0.06573076  1
  Ce3+  Ce32  1  0.11572704  0.74689915  0.93691585  1
  Ce3+  Ce33  1  0.48740419  0.36499838  0.06451511  1
  Ce3+  Ce34  1  0.60831865  0.74309470  0.93818314  1
  Ce3+  Ce35  1  0.48578694  0.11543113  0.06803802  1
  Ce3+  Ce36  1  0.88553435  0.50574020  0.43699822  1
  Ce3+  Ce37  1  0.13096538  0.50534521  0.43673049  1
  Pr3+  Pr38  1  0.86560849  0.24159368  0.94736525  1
  Pr3+  Pr39  1  0.38582933  0.51208872  0.43105866  1
  Pr3+  Pr40  1  0.23839323  0.61703758  0.06665145  1
  Pr3+  Pr41  1  0.73449243  0.86454499  0.06661103  1
  Pr3+  Pr42  1  0.38538455  0.75959124  0.43494416  1
  Pr3+  Pr43  1  0.24240177  0.86855773  0.07125222  1
  Pr3+  Pr44  1  0.26018371  0.38628793  0.55867479  1
  Pr3+  Pr45  1  0.76375336  0.88470681  0.56479608  1
  Pr3+  Pr46  1  0.36326119  0.49240023  0.94275563  1
  Pr3+  Pr47  1  0.61276964  0.49585054  0.94824383  1
  Pr3+  Pr48  1  0.63665614  0.00939109  0.44450691  1
  Pr3+  Pr49  1  0.50932875  0.87701866  0.56259712  1
  Nd3+  Nd50  1  0.11266310  0.23977120  0.95018219  1
  Nd3+  Nd51  1  0.11524998  0.49686443  0.93673922  1
  Nd3+  Nd52  1  -0.00799421  0.37022269  0.06487932  1
  Nd3+  Nd53  1  0.86350285  -0.00303375  0.94406173  1
  Nd3+  Nd54  1  0.13072339  0.76163775  0.43384926  1
  Nd3+  Nd55  1  0.75655058  0.38620017  0.55753375  1
  Nd3+  Nd56  1  0.25873541  0.88306150  0.55017798  1
  Nd3+  Nd57  1  0.61372492  0.24122458  0.95039240  1
  Sm3+  Sm58  1  0.23452725  0.36696100  0.06071870  1
  Sm3+  Sm59  1  0.36020841  -0.00222251  0.94521889  1
  Sm3+  Sm60  1  0.48682827  0.86665468  0.05491427  1
  Sm3+  Sm61  1  -0.01193662  0.62041072  0.05408120  1
  Sm3+  Sm62  1  0.25558210  0.63388222  0.54914889  1
  Sm3+  Sm63  1  0.13432434  0.01338998  0.43678730  1
  Bi2+  Bi64  1  0.01432317  0.07986956  0.27539485  1
  Bi2+  Bi65  1  0.01097614  0.08991234  0.81182738  1
  Bi2+  Bi66  1  -0.00295833  0.47249281  0.31529370  1
  Bi2+  Bi67  1  -0.03194406  0.29663847  0.77007880  1
  Bi2+  Bi68  1  0.00861240  0.65269927  0.28403850  1
  Bi2+  Bi69  1  -0.00418944  0.57476035  0.79592338  1
  Bi2+  Bi70  1  -0.06686521  0.89730548  0.29643122  1
  Bi2+  Bi71  1  0.03478292  0.87247516  0.75091974  1
  Bi2+  Bi72  1  0.23551986  0.12472716  0.28547632  1
  Bi2+  Bi73  1  0.24868970  0.12299570  0.82159658  1
  Bi2+  Bi74  1  0.27700361  0.41444193  0.28246016  1
  Bi2+  Bi75  1  0.27830949  0.38146225  0.78631254  1
  Bi2+  Bi76  1  0.22288116  0.60513509  0.29238537  1
  Bi2+  Bi77  1  0.30409860  0.67805408  0.80189373  1
  Bi2+  Bi78  1  0.22526035  0.79831908  0.29769771  1
  Bi2+  Bi79  1  0.22640775  0.90130764  0.74814502  1
  Bi2+  Bi80  1  0.50122144  0.08649233  0.28596055  1
  Bi2+  Bi81  1  0.49093095  0.16084372  0.81001448  1
  Bi2+  Bi82  1  0.51889906  0.28687926  0.30850364  1
  Bi2+  Bi83  1  0.50996437  0.38901413  0.76639980  1
  Bi2+  Bi84  1  0.50284247  0.67979448  0.26489448  1
  Bi2+  Bi85  1  0.49200852  0.58118136  0.80893245  1
  Bi2+  Bi86  1  0.50921832  0.86564877  0.29617438  1
  Bi2+  Bi87  1  0.48639842  0.86985068  0.76519897  1
  Bi2+  Bi88  1  0.75960388  0.12343840  0.28937162  1
  Bi2+  Bi89  1  0.75654679  0.12300815  0.81346048  1
  Bi2+  Bi90  1  0.75842046  0.38224238  0.29623833  1
  Bi2+  Bi91  1  0.79260458  0.39882152  0.76469620  1
  Bi2+  Bi92  1  0.74444704  0.64544233  0.28755833  1
  Bi2+  Bi93  1  0.76250566  0.63113603  0.81234503  1
  Bi2+  Bi94  1  0.70853741  0.89182899  0.29076348  1
  Bi2+  Bi95  1  0.67966009  0.84943470  0.76223434  1
  Bi2+  Bi96  1  0.09316061  -0.11109309  0.22582854  1
  Bi2+  Bi97  1  0.11951084  0.07120483  0.71666404  1
  Bi2+  Bi98  1  0.10545265  0.29136635  0.21293538  1
  Bi2+  Bi99  1  0.13829879  0.27325847  0.71079067  1
  Bi2+  Bi100  1  0.12982777  0.55382873  0.19391196  1
  Bi2+  Bi101  1  0.13205050  0.46563901  0.72890716  1
  Bi2+  Bi102  1  0.12154480  0.73949583  0.15323948  1
  Bi2+  Bi103  1  0.15069666  0.71626025  0.73486235  1
  Bi2+  Bi104  1  0.37224812  -0.04137559  0.21519738  1
  Bi2+  Bi105  1  0.38649522  0.04526351  0.68909859  1
  Bi2+  Bi106  1  0.43022885  0.24706925  0.20982287  1
  Bi2+  Bi107  1  0.37582769  0.25733562  0.71709745  1
  Bi2+  Bi108  1  0.39834373  0.52698883  0.23105067  1
  Bi2+  Bi109  1  0.38115215  0.50728000  0.69812649  1
  Bi2+  Bi110  1  0.30639214  0.75219269  0.19928329  1
  Bi2+  Bi111  1  0.34065818  0.75779849  0.69581236  1
  Bi2+  Bi112  1  0.63271858  0.03879040  0.18470427  1
  Bi2+  Bi113  1  0.59561804  0.02811146  0.74987668  1
  Bi2+  Bi114  1  0.63128662  0.22793710  0.21522169  1
  Bi2+  Bi115  1  0.65429410  0.29294617  0.71451168  1
  Bi2+  Bi116  1  0.60991739  0.47664345  0.20731347  1
  Bi2+  Bi117  1  0.65448711  0.48854453  0.70371769  1
  Bi2+  Bi118  1  0.60660067  0.84485354  0.19411625  1
  Bi2+  Bi119  1  0.56395570  0.70384546  0.72704994  1
  Bi2+  Bi120  1  0.82524907  -0.01669983  0.20214875  1
  Bi2+  Bi121  1  0.88241709  -0.03678614  0.70172278  1
  Bi2+  Bi122  1  0.85676003  0.25834586  0.22497591  1
  Bi2+  Bi123  1  0.88929529  0.18141252  0.69227102  1
  Bi2+  Bi124  1  0.93638817  0.50537771  0.20969546  1
  Bi2+  Bi125  1  0.93992158  0.45529262  0.69611027  1
  Bi2+  Bi126  1  0.90964916  0.77421428  0.20702927  1
  Bi2+  Bi127  1  0.86394304  0.71168263  0.69297234  1
  S2-  S128  1  0.08683394  0.14241306  0.16977345  1
  S2-  S129  1  0.01764869  0.02401955  0.63993005  1
  S2-  S130  1  -0.03705061  0.34415148  0.16287165  1
  S2-  S131  1  0.01492608  0.26846401  0.63384346  1
  S2-  S132  1  -0.08163962  0.63681128  0.14382986  1
  S2-  S133  1  -0.01585683  0.60590088  0.65405456  1
  S2-  S134  1  -0.02180784  0.95505206  0.15320923  1
  S2-  S135  1  -0.01118087  0.81653234  0.65540925  1
  S2-  S136  1  0.26306949  0.22356759  0.19801608  1
  S2-  S137  1  0.24861684  0.14881521  0.65573979  1
  S2-  S138  1  0.18909569  0.40563453  0.15335921  1
  S2-  S139  1  0.36810627  0.37275840  0.63694885  1
  S2-  S140  1  0.35298678  0.61364669  0.14533687  1
  S2-  S141  1  0.27526654  0.60724725  0.64586761  1
  S2-  S142  1  0.23843306  0.96326137  0.16040750  1
  S2-  S143  1  0.28265858  0.90820843  0.64838508  1
  S2-  S144  1  0.40819021  0.09717550  0.15512050  1
  S2-  S145  1  0.48668890  0.18368723  0.66144990  1
  S2-  S146  1  0.46625177  0.40384269  0.16009517  1
  S2-  S147  1  0.52150508  0.51235664  0.63797267  1
  S2-  S148  1  0.59278363  0.61543552  0.15667910  1
  S2-  S149  1  0.50436613  0.75267636  0.63795370  1
  S2-  S150  1  0.44223569  0.84046661  0.14957461  1
  S2-  S151  1  0.51228322  0.98674965  0.64207646  1
  S2-  S152  1  0.84485135  0.13584296  0.15239451  1
  S2-  S153  1  0.77396218  0.06212889  0.66151457  1
  S2-  S154  1  0.72257575  0.35313863  0.16418033  1
  S2-  S155  1  0.77622534  0.28271769  0.63965698  1
  S2-  S156  1  0.76158150  0.54818557  0.20492199  1
  S2-  S157  1  0.74831401  0.61865570  0.65387134  1
  S2-  S158  1  0.75777779  0.77792132  0.15427146  1
  S2-  S159  1  0.76273611  0.84575130  0.66495473  1
  S2-  S160  1  0.13122413  0.01024400  0.33732250  1
  S2-  S161  1  0.13472218  -0.00252807  0.85423554  1
  S2-  S162  1  0.08805012  0.21101741  0.31075223  1
  S2-  S163  1  0.10459276  0.21933809  0.85115748  1
  S2-  S164  1  0.14754353  0.41491439  0.35214211  1
  S2-  S165  1  0.09384333  0.47004668  0.83879990  1
  S2-  S166  1  0.01737094  0.77697798  0.35790920  1
  S2-  S167  1  0.14903047  0.71242396  0.84319200  1
  S2-  S168  1  0.35897479  0.02319146  0.32864835  1
  S2-  S169  1  0.37580140  0.03432533  0.84689608  1
  S2-  S170  1  0.28109261  0.23676314  0.34523397  1
  S2-  S171  1  0.34812563  0.25347858  0.85304192  1
  S2-  S172  1  0.39906058  0.40754894  0.35090369  1
  S2-  S173  1  0.32499425  0.51471944  0.84462817  1
  S2-  S174  1  0.39075669  0.74844223  0.33467051  1
  S2-  S175  1  0.48566804  0.72926769  0.86516629  1
  S2-  S176  1  0.63874309  0.03083860  0.34400298  1
  S2-  S177  1  0.63780011  0.00231550  0.85044549  1
  S2-  S178  1  0.72642210  0.24793767  0.35926967  1
  S2-  S179  1  0.62307045  0.22907344  0.85010205  1
  S2-  S180  1  0.60679621  0.43727096  0.31894829  1
  S2-  S181  1  0.63200093  0.52112147  0.84829358  1
  S2-  S182  1  0.60799582  0.64820088  0.34665898  1
  S2-  S183  1  0.70898917  0.76469878  0.85726328  1
  S2-  S184  1  0.89016011  0.09073580  0.35370883  1
  S2-  S185  1  0.86609956  0.00280016  0.84321028  1
  S2-  S186  1  0.91329267  0.32052539  0.32391751  1
  S2-  S187  1  0.85278731  0.23795861  0.84674798  1
  S2-  S188  1  0.79702623  0.52400093  0.35149810  1
  S2-  S189  1  0.86335654  0.49421699  0.84445216  1
  S2-  S190  1  0.77208998  0.77072800  0.35487516  1
  S2-  S191  1  0.90233646  0.71583418  0.82966351  1
  S2-  S192  1  0.01687879  0.13755542  0.44991225  1
  S2-  S193  1  -0.01190567  0.11715566  0.96594809  1
  S2-  S194  1  0.00813525  0.38010521  0.44933709  1
  S2-  S195  1  -0.00911121  0.36963059  0.95587985  1
  S2-  S196  1  0.01054536  0.63063098  0.45044445  1
  S2-  S197  1  -0.00965865  0.62160202  0.94939227  1
  S2-  S198  1  0.01285593  0.89254389  0.45806935  1
  S2-  S199  1  -0.01281852  0.86949138  0.95343536  1
  S2-  S200  1  0.26034601  0.13188379  0.44724417  1
  S2-  S201  1  0.23843690  0.11884861  0.95923151  1
  S2-  S202  1  0.26156116  0.38845859  0.45313966  1
  S2-  S203  1  0.23417720  0.36829832  0.95491899  1
  S2-  S204  1  0.25497216  0.63577381  0.44347029  1
  S2-  S205  1  0.23917164  0.61863126  0.95703756  1
  S2-  S206  1  0.25684947  0.88500948  0.44279452  1
  S2-  S207  1  0.24228942  0.86945614  0.95553218  1
  S2-  S208  1  0.51110660  0.13549243  0.45023329  1
  S2-  S209  1  0.48657524  0.11876227  0.96046454  1
  S2-  S210  1  0.51612327  0.39222323  0.45456536  1
  S2-  S211  1  0.48865873  0.36618234  0.95558545  1
  S2-  S212  1  0.50855517  0.63594446  0.45106615  1
  S2-  S213  1  0.48528395  0.61351753  0.96574653  1
  S2-  S214  1  0.51102929  0.88206726  0.45022692  1
  S2-  S215  1  0.48544288  0.87679467  0.95150821  1
  S2-  S216  1  0.75804583  0.13257338  0.46107764  1
  S2-  S217  1  0.73917558  0.11963620  0.96415233  1
  S2-  S218  1  0.75957873  0.38553746  0.45224967  1
  S2-  S219  1  0.73762169  0.36639339  0.95642553  1
  S2-  S220  1  0.76396719  0.63504068  0.45239219  1
  S2-  S221  1  0.73646265  0.61883338  0.95446557  1
  S2-  S222  1  0.76344337  0.88986790  0.45601658  1
  S2-  S223  1  0.73636293  0.87595825  0.95934600  1
  S2-  S224  1  0.11622048  -0.00784460  0.05670110  1
  S2-  S225  1  0.14006688  0.01089181  0.54154380  1
  S2-  S226  1  0.11433199  0.24277819  0.05687376  1
  S2-  S227  1  0.14113143  0.26220157  0.53516344  1
  S2-  S228  1  0.11126767  0.49650832  0.04434774  1
  S2-  S229  1  0.13244959  0.50863386  0.54603824  1
  S2-  S230  1  0.11504991  0.74258286  0.04105570  1
  S2-  S231  1  0.13384187  0.75936337  0.54243563  1
  S2-  S232  1  0.36407721  -0.00867855  0.04880178  1
  S2-  S233  1  0.38404487  0.00447225  0.53672632  1
  S2-  S234  1  0.35644730  0.24289456  0.05855022  1
  S2-  S235  1  0.38768008  0.25837967  0.53521996  1
  S2-  S236  1  0.35920313  0.48550202  0.04893824  1
  S2-  S237  1  0.37936347  0.51517331  0.53649854  1
  S2-  S238  1  0.36152593  0.74518847  0.04235749  1
  S2-  S239  1  0.37732691  0.75651844  0.54006081  1
  S2-  S240  1  0.60983813  -0.00850601  0.05297802  1
  S2-  S241  1  0.63949154  0.00790423  0.54967921  1
  S2-  S242  1  0.61268297  0.24022327  0.05770942  1
  S2-  S243  1  0.62689044  0.26270068  0.54879500  1
  S2-  S244  1  0.61580018  0.48900432  0.05487623  1
  S2-  S245  1  0.63997246  0.51085596  0.53749149  1
  S2-  S246  1  0.60931475  0.74400528  0.04754258  1
  S2-  S247  1  0.64110803  0.76123073  0.53834370  1
  S2-  S248  1  0.85879596  -0.01063240  0.05051513  1
  S2-  S249  1  0.88331280  0.01329805  0.54616161  1
  S2-  S250  1  0.86614612  0.24668202  0.05265463  1
  S2-  S251  1  0.88404764  0.26343647  0.53171123  1
  S2-  S252  1  0.86340230  0.49427576  0.05373066  1
  S2-  S253  1  0.88446215  0.50589854  0.54479353  1
  S2-  S254  1  0.86252584  0.74172294  0.04068105  1
  S2-  S255  1  0.88652608  0.76043015  0.54217926  1
