# generated using pymatgen
data_La9Ce10Pr6Nd4Sm3(BiS2)32
_symmetry_space_group_name_H-M   'P 1'
_cell_length_a   16.22162993
_cell_length_b   16.21388398
_cell_length_c   27.19738367
_cell_angle_alpha   90.11587885
_cell_angle_beta   90.02240656
_cell_angle_gamma   89.95138121
_symmetry_Int_Tables_number   1
_chemical_formula_structural   La9Ce10Pr6Nd4Sm3(BiS2)32
_chemical_formula_sum   'La18 Ce20 Pr12 Nd8 Sm6 Bi64 S128'
_cell_volume   7153.31913294
_cell_formula_units_Z   2
loop_
 _symmetry_equiv_pos_site_id
 _symmetry_equiv_pos_as_xyz
  1  'x, y, z'
loop_
 _atom_type_symbol
 _atom_type_oxidation_number
  La3+  3.0
  Ce3+  3.0
  Pr3+  3.0
  Nd3+  3.0
  Sm3+  3.0
  Bi2+  2.0
  S2-  -2.0
loop_
 _atom_site_type_symbol
 _atom_site_label
 _atom_site_symmetry_multiplicity
 _atom_site_fract_x
 _atom_site_fract_y
 _atom_site_fract_z
 _atom_site_occupancy
  La3+  La0  1  0.62471119  0.01299041  0.92943883  1
  La3+  La1  1  0.74739661  0.39060296  0.06767076  1
  La3+  La2  1  0.25715308  0.38814334  0.08341289  1
  La3+  La3  1  0.88317501  0.76862625  0.87793462  1
  La3+  La4  1  0.62551899  0.25945996  0.93146504  1
  La3+  La5  1  0.35992815  -0.00304809  0.42380318  1
  La3+  La6  1  0.12698095  0.75708270  0.92925333  1
  La3+  La7  1  0.73260703  0.86985246  0.58955507  1
  La3+  La8  1  -0.00553685  0.36947928  0.57298414  1
  La3+  La9  1  0.10607964  0.25772480  0.42019325  1
  La3+  La10  1  0.11450904  0.50225466  0.43828612  1
  La3+  La11  1  0.12000914  0.00667342  0.93847262  1
  La3+  La12  1  0.85562987  -0.00327473  0.44126365  1
  La3+  La13  1  0.22415905  0.63245143  0.58057032  1
  La3+  La14  1  0.74612262  0.14012206  0.07574366  1
  La3+  La15  1  0.24798821  0.36960827  0.60807199  1
  La3+  La16  1  0.12704313  0.26018891  0.94906034  1
  La3+  La17  1  0.48302139  0.62169885  0.56771242  1
  Ce3+  Ce18  1  0.87352082  0.25994173  0.94798790  1
  Ce3+  Ce19  1  0.87538311  0.51400330  0.93448461  1
  Ce3+  Ce20  1  0.49141200  0.38160153  0.04945983  1
  Ce3+  Ce21  1  -0.00029611  0.13481661  0.06280489  1
  Ce3+  Ce22  1  0.86228077  0.49761738  0.45014851  1
  Ce3+  Ce23  1  0.73446611  0.37324116  0.56579022  1
  Ce3+  Ce24  1  0.73851310  0.12249119  0.56318613  1
  Ce3+  Ce25  1  0.48682288  0.87772373  0.56244899  1
  Ce3+  Ce26  1  0.49504734  0.13494193  0.05980410  1
  Ce3+  Ce27  1  0.11277087  0.74405395  0.43341569  1
  Ce3+  Ce28  1  0.50046003  0.88153979  0.05139206  1
  Ce3+  Ce29  1  0.86427255  0.25043737  0.44447321  1
  Ce3+  Ce30  1  0.61446770  0.49899079  0.44281218  1
  Ce3+  Ce31  1  0.49807588  0.63473371  0.04711409  1
  Ce3+  Ce32  1  -0.00876312  0.12590571  0.55476742  1
  Ce3+  Ce33  1  -0.00596746  0.87895275  0.05403102  1
  Ce3+  Ce34  1  0.23831136  0.12900071  0.55626917  1
  Ce3+  Ce35  1  0.62892102  0.75769671  0.92950079  1
  Ce3+  Ce36  1  0.61038471  -0.00141704  0.44335388  1
  Ce3+  Ce37  1  0.25127135  0.63399868  0.06341132  1
  Pr3+  Pr38  1  0.11419029  -0.00146182  0.43302137  1
  Pr3+  Pr39  1  0.61219253  0.74709849  0.44431460  1
  Pr3+  Pr40  1  0.48440087  0.12205836  0.55595291  1
  Pr3+  Pr41  1  0.61271573  0.24807839  0.43719142  1
  Pr3+  Pr42  1  -0.01131741  0.87674050  0.55792505  1
  Pr3+  Pr43  1  0.85718057  0.74900684  0.44071301  1
  Pr3+  Pr44  1  0.37451455  0.75754111  0.92891110  1
  Pr3+  Pr45  1  0.36415685  0.24717836  0.92505220  1
  Pr3+  Pr46  1  0.49240391  0.37111135  0.56562431  1
  Pr3+  Pr47  1  0.36947705  0.50633767  0.93099289  1
  Pr3+  Pr48  1  0.12376277  0.50808132  0.93893034  1
  Pr3+  Pr49  1  0.24462760  0.12371771  0.07528616  1
  Nd3+  Nd50  1  -0.01375383  0.62489290  0.56152559  1
  Nd3+  Nd51  1  0.86918664  0.01498526  0.93907962  1
  Nd3+  Nd52  1  0.36010794  0.25103087  0.43775819  1
  Nd3+  Nd53  1  0.35941954  0.49584169  0.45127052  1
  Nd3+  Nd54  1  0.36192770  0.74592921  0.44556690  1
  Nd3+  Nd55  1  0.00123048  0.39573926  0.07164057  1
  Nd3+  Nd56  1  0.23795869  0.87747356  0.55883434  1
  Nd3+  Nd57  1  0.74836636  0.88323686  0.05247145  1
  Sm3+  Sm58  1  0.24895897  0.88142269  0.05790320  1
  Sm3+  Sm59  1  -0.00132510  0.63705517  0.05595635  1
  Sm3+  Sm60  1  0.62319023  0.50334248  0.93192359  1
  Sm3+  Sm61  1  0.37251851  0.00802956  0.94509829  1
  Sm3+  Sm62  1  0.73693032  0.62548382  0.56716555  1
  Sm3+  Sm63  1  0.74689207  0.63105730  0.05412316  1
  Bi2+  Bi64  1  -0.02926540  0.12802440  0.29025344  1
  Bi2+  Bi65  1  -0.02050492  0.17904143  0.79700711  1
  Bi2+  Bi66  1  -0.03266099  0.40159309  0.29650523  1
  Bi2+  Bi67  1  -0.01180322  0.37838713  0.79828620  1
  Bi2+  Bi68  1  0.01249472  0.64958534  0.24266138  1
  Bi2+  Bi69  1  0.03420366  0.56670411  0.80326928  1
  Bi2+  Bi70  1  0.06040701  0.81034735  0.30703570  1
  Bi2+  Bi71  1  0.01564983  0.90750902  0.78995806  1
  Bi2+  Bi72  1  0.31027446  0.12875447  0.30461807  1
  Bi2+  Bi73  1  0.25607274  0.13134786  0.78723616  1
  Bi2+  Bi74  1  0.25505151  0.37205259  0.30728731  1
  Bi2+  Bi75  1  0.29082313  0.38592756  0.81910582  1
  Bi2+  Bi76  1  0.26311087  0.63888650  0.30631360  1
  Bi2+  Bi77  1  0.31065683  0.71198566  0.76078181  1
  Bi2+  Bi78  1  0.25425457  0.85306506  0.28469048  1
  Bi2+  Bi79  1  0.26936612  0.89781084  0.78673658  1
  Bi2+  Bi80  1  0.53673557  0.10974428  0.27254102  1
  Bi2+  Bi81  1  0.49275030  0.10180234  0.78576261  1
  Bi2+  Bi82  1  0.49017308  0.40349450  0.24118558  1
  Bi2+  Bi83  1  0.54675704  0.44106992  0.78574581  1
  Bi2+  Bi84  1  0.54139800  0.65299002  0.30156090  1
  Bi2+  Bi85  1  0.48522731  0.72109574  0.81488498  1
  Bi2+  Bi86  1  0.51282056  0.82906185  0.24962226  1
  Bi2+  Bi87  1  0.48617068  0.91181848  0.78302229  1
  Bi2+  Bi88  1  0.75748252  0.11649753  0.31564201  1
  Bi2+  Bi89  1  0.75159011  0.07016466  0.80840285  1
  Bi2+  Bi90  1  0.78947101  0.35655762  0.26433338  1
  Bi2+  Bi91  1  0.79273375  0.39736964  0.79352878  1
  Bi2+  Bi92  1  0.74008023  0.58586048  0.30234604  1
  Bi2+  Bi93  1  0.64808767  0.61007234  0.79196681  1
  Bi2+  Bi94  1  0.78416750  0.86033761  0.30828384  1
  Bi2+  Bi95  1  0.74396462  0.85531817  0.76262498  1
  Bi2+  Bi96  1  0.10582650  -0.01247880  0.26870791  1
  Bi2+  Bi97  1  0.17879801  0.00814657  0.70202453  1
  Bi2+  Bi98  1  0.10496230  0.22237418  0.21162580  1
  Bi2+  Bi99  1  0.11850802  0.20782941  0.71957861  1
  Bi2+  Bi100  1  0.11367239  0.46910716  0.20115017  1
  Bi2+  Bi101  1  0.14654941  0.52277834  0.71541739  1
  Bi2+  Bi102  1  0.17381852  0.73616532  0.20409222  1
  Bi2+  Bi103  1  0.09728115  0.77050001  0.70753276  1
  Bi2+  Bi104  1  0.36683059  0.00304384  0.19070865  1
  Bi2+  Bi105  1  0.35983524  0.04266505  0.66484753  1
  Bi2+  Bi106  1  0.37774121  0.25307777  0.20044053  1
  Bi2+  Bi107  1  0.40617234  0.23412608  0.72604761  1
  Bi2+  Bi108  1  0.37138578  0.55907989  0.22291635  1
  Bi2+  Bi109  1  0.40679377  0.49565619  0.71429760  1
  Bi2+  Bi110  1  0.36914546  0.74486204  0.18575501  1
  Bi2+  Bi111  1  0.37629614  0.85284303  0.68611907  1
  Bi2+  Bi112  1  0.66107858  -0.04679076  0.22607527  1
  Bi2+  Bi113  1  0.62989967  0.03036502  0.69252314  1
  Bi2+  Bi114  1  0.62696288  0.26693382  0.22500542  1
  Bi2+  Bi115  1  0.65705663  0.29318634  0.73144603  1
  Bi2+  Bi116  1  0.61247595  0.53627450  0.20181917  1
  Bi2+  Bi117  1  0.71133604  0.49099726  0.68723632  1
  Bi2+  Bi118  1  0.66128924  0.72446049  0.20472673  1
  Bi2+  Bi119  1  0.56943261  0.73433614  0.71201434  1
  Bi2+  Bi120  1  0.94005241  -0.06844400  0.22033319  1
  Bi2+  Bi121  1  0.98332021  0.04069970  0.70614650  1
  Bi2+  Bi122  1  0.83130765  0.17776516  0.21465227  1
  Bi2+  Bi123  1  0.84422367  0.24331221  0.71684518  1
  Bi2+  Bi124  1  0.86148585  0.52305401  0.21575121  1
  Bi2+  Bi125  1  0.89989952  0.43054900  0.69254879  1
  Bi2+  Bi126  1  0.86186559  0.75669778  0.20382502  1
  Bi2+  Bi127  1  0.83589596  0.62720828  0.71609251  1
  S2-  S128  1  0.03409642  0.11147436  0.15707169  1
  S2-  S129  1  -0.01070358  0.18688503  0.64573545  1
  S2-  S130  1  0.01064159  0.33920213  0.16934594  1
  S2-  S131  1  0.09345429  0.39936538  0.65423641  1
  S2-  S132  1  -0.00215065  0.54308552  0.13900384  1
  S2-  S133  1  0.06215216  0.63910413  0.65168273  1
  S2-  S134  1  -0.00089301  0.83139749  0.14831952  1
  S2-  S135  1  -0.00297886  0.87784952  0.65878101  1
  S2-  S136  1  0.26015138  0.13934860  0.17696210  1
  S2-  S137  1  0.23473112  0.20701181  0.64402468  1
  S2-  S138  1  0.22450134  0.34314320  0.18431542  1
  S2-  S139  1  0.25655794  0.40068692  0.72358041  1
  S2-  S140  1  0.24559310  0.53735493  0.14585558  1
  S2-  S141  1  0.29529688  0.58863577  0.67039856  1
  S2-  S142  1  0.23859919  0.94416828  0.14841082  1
  S2-  S143  1  0.21514020  0.78667279  0.64287396  1
  S2-  S144  1  0.48387230  0.12695258  0.15937644  1
  S2-  S145  1  0.50374317  0.14190102  0.65635135  1
  S2-  S146  1  0.42161716  0.37971198  0.13836560  1
  S2-  S147  1  0.40920388  0.35371878  0.65441566  1
  S2-  S148  1  0.47800141  0.62085530  0.14416869  1
  S2-  S149  1  0.52124988  0.59459055  0.66499672  1
  S2-  S150  1  0.47401472  0.88418172  0.14892280  1
  S2-  S151  1  0.57745509  0.88070892  0.64697436  1
  S2-  S152  1  0.73418134  0.05923467  0.16569849  1
  S2-  S153  1  0.72483378  0.16337716  0.65880245  1
  S2-  S154  1  0.73485527  0.27980509  0.14530092  1
  S2-  S155  1  0.62035789  0.36393530  0.64101541  1
  S2-  S156  1  0.74674335  0.52744440  0.13597916  1
  S2-  S157  1  0.75387886  0.72014805  0.65021159  1
  S2-  S158  1  0.73395597  0.85035787  0.15101280  1
  S2-  S159  1  0.77120990  0.95317761  0.67837658  1
  S2-  S160  1  0.22514645  -0.00136233  0.35403828  1
  S2-  S161  1  0.13746163  -0.01279361  0.83895888  1
  S2-  S162  1  0.17897494  0.21585569  0.32527083  1
  S2-  S163  1  0.20950244  0.25096670  0.86042594  1
  S2-  S164  1  0.11077644  0.40345303  0.35182194  1
  S2-  S165  1  0.18425737  0.52242682  0.84457724  1
  S2-  S166  1  0.12666865  0.62593085  0.36228012  1
  S2-  S167  1  0.04511420  0.76579315  0.83953795  1
  S2-  S168  1  0.44878128  0.02069116  0.33309558  1
  S2-  S169  1  0.36871353  0.08851352  0.85924219  1
  S2-  S170  1  0.38517357  0.26494404  0.33726210  1
  S2-  S171  1  0.42768417  0.29399359  0.83106842  1
  S2-  S172  1  0.33404292  0.49565475  0.35146489  1
  S2-  S173  1  0.40546877  0.51891841  0.83121743  1
  S2-  S174  1  0.36392347  0.77195831  0.34699884  1
  S2-  S175  1  0.25866304  0.75634577  0.85271085  1
  S2-  S176  1  0.67535517  -0.01641490  0.35455061  1
  S2-  S177  1  0.64018451  -0.05885693  0.83380506  1
  S2-  S178  1  0.62422537  0.22413742  0.33736959  1
  S2-  S179  1  0.62122985  0.14430486  0.85385347  1
  S2-  S180  1  0.60362736  0.50470895  0.34509255  1
  S2-  S181  1  0.64824171  0.38626893  0.85912161  1
  S2-  S182  1  0.67332184  0.74233405  0.34941126  1
  S2-  S183  1  0.71716913  0.74762191  0.84476052  1
  S2-  S184  1  0.88850067  0.00301313  0.34169801  1
  S2-  S185  1  0.87015849  -0.05190138  0.84560081  1
  S2-  S186  1  0.94700816  0.26173320  0.35853895  1
  S2-  S187  1  0.84004315  0.18028189  0.86221119  1
  S2-  S188  1  0.88047473  0.52407255  0.35401983  1
  S2-  S189  1  0.88298510  0.59496728  0.84833730  1
  S2-  S190  1  0.89848389  0.76154384  0.34285204  1
  S2-  S191  1  0.87993345  0.77326450  0.76362823  1
  S2-  S192  1  -0.01165836  0.12054949  0.45050089  1
  S2-  S193  1  -0.00140006  0.13449910  0.95510576  1
  S2-  S194  1  -0.01503362  0.37669908  0.46318401  1
  S2-  S195  1  -0.00115518  0.38490716  0.95576538  1
  S2-  S196  1  -0.01810308  0.62630439  0.45717085  1
  S2-  S197  1  0.00069265  0.63530995  0.95240294  1
  S2-  S198  1  -0.01198476  0.87496694  0.45022818  1
  S2-  S199  1  -0.00731691  0.88162309  0.94862622  1
  S2-  S200  1  0.23614196  0.12826143  0.45034959  1
  S2-  S201  1  0.24561467  0.12590189  0.96524503  1
  S2-  S202  1  0.23912585  0.37195169  0.45079221  1
  S2-  S203  1  0.25124624  0.38409030  0.96023119  1
  S2-  S204  1  0.24288735  0.62523987  0.46667377  1
  S2-  S205  1  0.25112098  0.63240723  0.95536909  1
  S2-  S206  1  0.23592468  0.86908548  0.45322568  1
  S2-  S207  1  0.25128993  0.88623443  0.95272093  1
  S2-  S208  1  0.48706809  0.12450044  0.44857824  1
  S2-  S209  1  0.49546389  0.13308419  0.95537142  1
  S2-  S210  1  0.48888835  0.37356649  0.45456063  1
  S2-  S211  1  0.49319393  0.38086354  0.94680938  1
  S2-  S212  1  0.48660787  0.62191493  0.45757351  1
  S2-  S213  1  0.50220772  0.62963446  0.94225194  1
  S2-  S214  1  0.48775493  0.87245420  0.45268352  1
  S2-  S215  1  0.49754274  0.88465180  0.94443498  1
  S2-  S216  1  0.73775270  0.12639264  0.45604005  1
  S2-  S217  1  0.74757075  0.13590685  0.96695116  1
  S2-  S218  1  0.73727067  0.37246784  0.45459335  1
  S2-  S219  1  0.75422236  0.38571624  0.95939511  1
  S2-  S220  1  0.73783626  0.62294385  0.46116793  1
  S2-  S221  1  0.74126502  0.62509110  0.95121525  1
  S2-  S222  1  0.73413109  0.87235450  0.46424261  1
  S2-  S223  1  0.74996155  0.88400458  0.94863921  1
  S2-  S224  1  0.12037467  0.00262436  0.04658808  1
  S2-  S225  1  0.11466551  0.00048275  0.54386821  1
  S2-  S226  1  0.12606357  0.26143406  0.05705397  1
  S2-  S227  1  0.11380148  0.24874556  0.53992803  1
  S2-  S228  1  0.12682742  0.51053210  0.04450757  1
  S2-  S229  1  0.11295056  0.50258854  0.54809990  1
  S2-  S230  1  0.12561612  0.75843753  0.04342437  1
  S2-  S231  1  0.10733538  0.75223101  0.53919681  1
  S2-  S232  1  0.37343601  0.00528343  0.04800136  1
  S2-  S233  1  0.36070437  -0.00252272  0.53606339  1
  S2-  S234  1  0.36629550  0.25170004  0.04393571  1
  S2-  S235  1  0.36370360  0.25033436  0.54429562  1
  S2-  S236  1  0.37407064  0.51235359  0.03879951  1
  S2-  S237  1  0.35816018  0.49440330  0.55703499  1
  S2-  S238  1  0.37305022  0.76020367  0.03839068  1
  S2-  S239  1  0.36354891  0.75120117  0.55176998  1
  S2-  S240  1  0.62191820  0.00752426  0.04531427  1
  S2-  S241  1  0.61441993  0.00084854  0.54832580  1
  S2-  S242  1  0.61691275  0.26077106  0.04372301  1
  S2-  S243  1  0.61290689  0.24379147  0.54303023  1
  S2-  S244  1  0.61695222  0.50665773  0.03697228  1
  S2-  S245  1  0.61476961  0.50281542  0.54761938  1
  S2-  S246  1  0.62557860  0.75619202  0.03961281  1
  S2-  S247  1  0.61041524  0.74477475  0.55043304  1
  S2-  S248  1  0.87322392  0.00855642  0.04947658  1
  S2-  S249  1  0.86238155  -0.00020620  0.55150809  1
  S2-  S250  1  0.88145796  0.26428148  0.05354083  1
  S2-  S251  1  0.86083426  0.25016515  0.54990556  1
  S2-  S252  1  0.87613350  0.51285269  0.03984893  1
  S2-  S253  1  0.86087398  0.50031618  0.55704856  1
  S2-  S254  1  0.86922767  0.75127248  0.04909670  1
  S2-  S255  1  0.86389516  0.75134248  0.54881210  1
