# generated using pymatgen
data_La9Ce10Pr6Nd4Sm3(BiS2)32
_symmetry_space_group_name_H-M   'P 1'
_cell_length_a   16.17361605
_cell_length_b   16.12358541
_cell_length_c   27.12517116
_cell_angle_alpha   90.37349907
_cell_angle_beta   89.84517715
_cell_angle_gamma   90.00314851
_symmetry_Int_Tables_number   1
_chemical_formula_structural   La9Ce10Pr6Nd4Sm3(BiS2)32
_chemical_formula_sum   'La18 Ce20 Pr12 Nd8 Sm6 Bi64 S128'
_cell_volume   7073.43595357
_cell_formula_units_Z   2
loop_
 _symmetry_equiv_pos_site_id
 _symmetry_equiv_pos_as_xyz
  1  'x, y, z'
loop_
 _atom_type_symbol
 _atom_type_oxidation_number
  La3+  3.0
  Ce3+  3.0
  Pr3+  3.0
  Nd3+  3.0
  Sm3+  3.0
  Bi2+  2.0
  S2-  -2.0
loop_
 _atom_site_type_symbol
 _atom_site_label
 _atom_site_symmetry_multiplicity
 _atom_site_fract_x
 _atom_site_fract_y
 _atom_site_fract_z
 _atom_site_occupancy
  La3+  La0  1  0.00641522  0.13765940  0.57330983  1
  La3+  La1  1  0.61515372  0.22051644  0.90407514  1
  La3+  La2  1  0.62273869  0.71850955  0.93782485  1
  La3+  La3  1  0.36881933  0.72120339  0.93569445  1
  La3+  La4  1  0.38445202  0.01175422  0.43046207  1
  La3+  La5  1  0.74077207  0.60085398  0.08927886  1
  La3+  La6  1  0.25323219  0.10106326  0.08301600  1
  La3+  La7  1  -0.00701804  0.59212003  0.07610877  1
  La3+  La8  1  0.88086493  0.01301514  0.42929219  1
  La3+  La9  1  0.62863815  0.01134231  0.42593465  1
  La3+  La10  1  0.36793328  -0.03078487  0.92498839  1
  La3+  La11  1  0.24197785  0.59478206  0.07760355  1
  La3+  La12  1  0.87177458  0.50739725  0.42108845  1
  La3+  La13  1  0.11889962  0.71397601  0.92929474  1
  La3+  La14  1  0.87378556  0.76197025  0.39142780  1
  La3+  La15  1  0.87104019  0.22348583  0.92591490  1
  La3+  La16  1  0.87037411  0.71947397  0.93625856  1
  La3+  La17  1  0.49763124  0.38319759  0.58613288  1
  Ce3+  Ce18  1  0.12017402  -0.02381270  0.94390879  1
  Ce3+  Ce19  1  0.49191403  0.85066445  0.06121026  1
  Ce3+  Ce20  1  0.25561073  0.63126537  0.56070941  1
  Ce3+  Ce21  1  0.24360573  0.84806260  0.05589554  1
  Ce3+  Ce22  1  0.12635332  0.50909037  0.44459786  1
  Ce3+  Ce23  1  0.63163588  0.75945751  0.44521345  1
  Ce3+  Ce24  1  0.25689517  0.13228827  0.55811098  1
  Ce3+  Ce25  1  0.11973034  0.47215028  0.94353401  1
  Ce3+  Ce26  1  0.86898887  0.47277006  0.93699498  1
  Ce3+  Ce27  1  0.63130779  0.50636731  0.44786969  1
  Ce3+  Ce28  1  0.00379925  0.88221288  0.55638211  1
  Ce3+  Ce29  1  0.62902329  0.25763844  0.44478672  1
  Ce3+  Ce30  1  0.87235592  -0.02966366  0.92980004  1
  Ce3+  Ce31  1  0.50297083  0.63278618  0.55229694  1
  Ce3+  Ce32  1  -0.00862848  0.34537962  0.05994649  1
  Ce3+  Ce33  1  0.50051960  0.88456786  0.56775490  1
  Ce3+  Ce34  1  0.25666621  0.38278884  0.55646618  1
  Ce3+  Ce35  1  0.00042390  0.63464008  0.55440918  1
  Ce3+  Ce36  1  0.13923145  0.00578826  0.44237711  1
  Ce3+  Ce37  1  0.00166176  0.38221473  0.55950283  1
  Pr3+  Pr38  1  0.74038210  0.34753582  0.05936249  1
  Pr3+  Pr39  1  0.74494599  0.09716191  0.05922033  1
  Pr3+  Pr40  1  0.36842038  0.47711308  0.93342701  1
  Pr3+  Pr41  1  0.62307351  -0.03016814  0.93183328  1
  Pr3+  Pr42  1  0.13022186  0.75756808  0.43371562  1
  Pr3+  Pr43  1  0.49448273  0.09913981  0.05239013  1
  Pr3+  Pr44  1  0.24893343  0.34602097  0.06718271  1
  Pr3+  Pr45  1  0.38128559  0.50556826  0.43015323  1
  Pr3+  Pr46  1  0.36726647  0.22233927  0.92536912  1
  Pr3+  Pr47  1  0.12757862  0.25131241  0.43261334  1
  Pr3+  Pr48  1  0.38361029  0.26354177  0.43346634  1
  Pr3+  Pr49  1  0.50515670  0.13298417  0.56974313  1
  Nd3+  Nd50  1  0.88018169  0.25627706  0.43613334  1
  Nd3+  Nd51  1  0.37743556  0.75915399  0.43615308  1
  Nd3+  Nd52  1  0.74639201  0.85089211  0.06561192  1
  Nd3+  Nd53  1  0.49058285  0.59909991  0.06925776  1
  Nd3+  Nd54  1  -0.00848808  0.09746962  0.06176624  1
  Nd3+  Nd55  1  -0.00433096  0.84761456  0.05870093  1
  Nd3+  Nd56  1  0.75420503  0.13254596  0.56291439  1
  Nd3+  Nd57  1  0.25546107  0.87478431  0.57898051  1
  Sm3+  Sm58  1  0.75446136  0.38433643  0.56217958  1
  Sm3+  Sm59  1  0.12262296  0.22171348  0.94536515  1
  Sm3+  Sm60  1  0.75674013  0.63502529  0.55820316  1
  Sm3+  Sm61  1  0.49200665  0.34694627  0.04654917  1
  Sm3+  Sm62  1  0.62286566  0.47799091  0.94292197  1
  Sm3+  Sm63  1  0.75524376  0.88342377  0.55530803  1
  Bi2+  Bi64  1  0.01208347  0.10683868  0.27919279  1
  Bi2+  Bi65  1  0.00462106  0.10494721  0.79283329  1
  Bi2+  Bi66  1  -0.09124763  0.36539748  0.31491416  1
  Bi2+  Bi67  1  0.01231124  0.37482405  0.79183597  1
  Bi2+  Bi68  1  0.03005398  0.63419353  0.28484458  1
  Bi2+  Bi69  1  -0.00912742  0.59350326  0.78791470  1
  Bi2+  Bi70  1  0.07662569  0.91283157  0.27871953  1
  Bi2+  Bi71  1  -0.06547293  0.87795880  0.75796870  1
  Bi2+  Bi72  1  0.24846968  0.12906892  0.30590062  1
  Bi2+  Bi73  1  0.24632406  0.23076689  0.80570291  1
  Bi2+  Bi74  1  0.30079779  0.40582884  0.29128791  1
  Bi2+  Bi75  1  0.28119645  0.41911323  0.81616911  1
  Bi2+  Bi76  1  0.26710169  0.60217900  0.30053339  1
  Bi2+  Bi77  1  0.23396097  0.63181234  0.79537443  1
  Bi2+  Bi78  1  0.27127246  0.86921291  0.28642431  1
  Bi2+  Bi79  1  0.23938964  0.90222169  0.80211953  1
  Bi2+  Bi80  1  0.51373701  0.08551885  0.28984899  1
  Bi2+  Bi81  1  0.51995842  0.11992498  0.77501695  1
  Bi2+  Bi82  1  0.54596777  0.29836608  0.23944454  1
  Bi2+  Bi83  1  0.45376980  0.43126396  0.76549196  1
  Bi2+  Bi84  1  0.45715682  0.57259732  0.30791080  1
  Bi2+  Bi85  1  0.50530083  0.61208391  0.78991506  1
  Bi2+  Bi86  1  0.47547374  0.76764274  0.30855175  1
  Bi2+  Bi87  1  0.49883227  0.88232185  0.79025411  1
  Bi2+  Bi88  1  0.75881957  0.13091796  0.29477212  1
  Bi2+  Bi89  1  0.75490748  0.15720447  0.78748606  1
  Bi2+  Bi90  1  0.71218594  0.34355866  0.30226200  1
  Bi2+  Bi91  1  0.82216756  0.41077951  0.76172848  1
  Bi2+  Bi92  1  0.72813857  0.61567610  0.28690870  1
  Bi2+  Bi93  1  0.74980448  0.67482730  0.80105074  1
  Bi2+  Bi94  1  0.69780529  0.88096214  0.28379242  1
  Bi2+  Bi95  1  0.75061920  0.88855011  0.80109858  1
  Bi2+  Bi96  1  0.16603761  0.04666682  0.20957606  1
  Bi2+  Bi97  1  0.13715369  0.06372298  0.71573870  1
  Bi2+  Bi98  1  0.06800224  0.30556973  0.26191915  1
  Bi2+  Bi99  1  0.14200294  0.27606609  0.70990688  1
  Bi2+  Bi100  1  0.12444155  0.47745531  0.21410967  1
  Bi2+  Bi101  1  0.15910567  0.47732231  0.72350256  1
  Bi2+  Bi102  1  0.12786895  0.75331548  0.21690155  1
  Bi2+  Bi103  1  0.11489797  0.77181872  0.70081143  1
  Bi2+  Bi104  1  0.35236441  -0.01914993  0.20180199  1
  Bi2+  Bi105  1  0.38104137  0.01099288  0.72627151  1
  Bi2+  Bi106  1  0.36644285  0.23915504  0.20483312  1
  Bi2+  Bi107  1  0.36748517  0.27635462  0.71584082  1
  Bi2+  Bi108  1  0.39225577  0.49147729  0.20506331  1
  Bi2+  Bi109  1  0.32667915  0.56297560  0.68927860  1
  Bi2+  Bi110  1  0.39713031  0.76884992  0.20323099  1
  Bi2+  Bi111  1  0.43997687  0.74626914  0.71207270  1
  Bi2+  Bi112  1  0.63799933  0.03857203  0.20777212  1
  Bi2+  Bi113  1  0.56425446  -0.01633045  0.68925694  1
  Bi2+  Bi114  1  0.66208559  0.21404368  0.15931748  1
  Bi2+  Bi115  1  0.64508872  0.29174446  0.70474019  1
  Bi2+  Bi116  1  0.63276661  0.47427824  0.22240917  1
  Bi2+  Bi117  1  0.67951409  0.54036156  0.73389123  1
  Bi2+  Bi118  1  0.60659632  0.72357023  0.22318822  1
  Bi2+  Bi119  1  0.63474865  0.79243884  0.71444445  1
  Bi2+  Bi120  1  0.88663561  0.00449561  0.20222970  1
  Bi2+  Bi121  1  0.79241401  0.00244326  0.71120780  1
  Bi2+  Bi122  1  0.82707911  0.25715146  0.21449186  1
  Bi2+  Bi123  1  0.90438616  0.19691239  0.70784748  1
  Bi2+  Bi124  1  0.87524813  0.46987375  0.21472661  1
  Bi2+  Bi125  1  0.96089998  0.48742741  0.69325147  1
  Bi2+  Bi126  1  0.87123044  0.75857273  0.20637379  1
  Bi2+  Bi127  1  0.86989156  0.72275705  0.69877134  1
  S2-  S128  1  -0.06299299  0.13944220  0.15499173  1
  S2-  S129  1  -0.00998423  0.06487170  0.66551922  1
  S2-  S130  1  -0.00424370  0.41348649  0.15052550  1
  S2-  S131  1  0.00650892  0.28152425  0.64136991  1
  S2-  S132  1  0.11362055  0.62214665  0.15298925  1
  S2-  S133  1  0.02041896  0.63943869  0.65374556  1
  S2-  S134  1  -0.02675291  0.87365957  0.15784692  1
  S2-  S135  1  -0.01821685  0.84786468  0.65362289  1
  S2-  S136  1  0.23414745  0.23583488  0.14946691  1
  S2-  S137  1  0.24937862  0.16192491  0.65554307  1
  S2-  S138  1  0.24625848  0.45614589  0.14941337  1
  S2-  S139  1  0.34076625  0.39968324  0.64256273  1
  S2-  S140  1  0.37282715  0.62385546  0.14657892  1
  S2-  S141  1  0.24143704  0.71550657  0.64660073  1
  S2-  S142  1  0.24412635  0.83329425  0.15429767  1
  S2-  S143  1  0.18277776  0.91192519  0.67386898  1
  S2-  S144  1  0.40632795  0.10779094  0.14193361  1
  S2-  S145  1  0.50270050  0.23483068  0.65321245  1
  S2-  S146  1  0.45575850  0.35414541  0.14403960  1
  S2-  S147  1  0.57255440  0.42893038  0.67809124  1
  S2-  S148  1  0.59333830  0.59553661  0.15203791  1
  S2-  S149  1  0.47593379  0.61422525  0.64794542  1
  S2-  S150  1  0.49087611  0.89336356  0.15815912  1
  S2-  S151  1  0.39368294  0.88290978  0.64602127  1
  S2-  S152  1  0.75641887  -0.01920974  0.13900943  1
  S2-  S153  1  0.73986532  0.15256718  0.66317392  1
  S2-  S154  1  0.74634561  0.44409622  0.14700085  1
  S2-  S155  1  0.77905917  0.36586496  0.65937520  1
  S2-  S156  1  0.88149123  0.60739474  0.15632326  1
  S2-  S157  1  0.76693055  0.61276034  0.65700877  1
  S2-  S158  1  0.73621146  0.75856171  0.15242907  1
  S2-  S159  1  0.75975828  0.85822672  0.65423787  1
  S2-  S160  1  0.10575764  0.11217708  0.36496659  1
  S2-  S161  1  0.11503794  -0.01131509  0.84417596  1
  S2-  S162  1  0.18198335  0.29830601  0.33657283  1
  S2-  S163  1  0.08150929  0.23419364  0.84884387  1
  S2-  S164  1  0.12383260  0.53454318  0.34692468  1
  S2-  S165  1  0.10994926  0.56824298  0.86058658  1
  S2-  S166  1  0.03644737  0.77295272  0.34552698  1
  S2-  S167  1  0.14981189  0.76771469  0.82982484  1
  S2-  S168  1  0.25599166  -0.01860872  0.36186569  1
  S2-  S169  1  0.33945189  0.03820948  0.82913506  1
  S2-  S170  1  0.39141431  0.15220589  0.35175327  1
  S2-  S171  1  0.46954100  0.22848305  0.84207268  1
  S2-  S172  1  0.42210079  0.38481117  0.35762572  1
  S2-  S173  1  0.37218862  0.60212412  0.85857386  1
  S2-  S174  1  0.25950796  0.74792614  0.36049385  1
  S2-  S175  1  0.37099239  0.83202816  0.85381373  1
  S2-  S176  1  0.50587886  -0.03532993  0.35379211  1
  S2-  S177  1  0.63187606  0.07113687  0.84506789  1
  S2-  S178  1  0.62255732  0.16592728  0.35944715  1
  S2-  S179  1  0.67057543  0.29278222  0.81247832  1
  S2-  S180  1  0.70508895  0.49634673  0.35877812  1
  S2-  S181  1  0.62908259  0.58550268  0.86332002  1
  S2-  S182  1  0.69788982  0.75096292  0.35414191  1
  S2-  S183  1  0.61620850  0.83647497  0.85998240  1
  S2-  S184  1  0.75392345  -0.00978795  0.35337414  1
  S2-  S185  1  0.87430474  0.08950079  0.85510701  1
  S2-  S186  1  0.89453184  0.14630139  0.35672243  1
  S2-  S187  1  0.87639394  0.35868673  0.85648902  1
  S2-  S188  1  0.88339254  0.61161345  0.33792628  1
  S2-  S189  1  0.86967732  0.59420242  0.85981465  1
  S2-  S190  1  0.85579860  0.84262237  0.29389696  1
  S2-  S191  1  0.89141831  0.84177119  0.85646856  1
  S2-  S192  1  0.00316859  0.13240839  0.46584069  1
  S2-  S193  1  -0.00190357  0.10046937  0.95554484  1
  S2-  S194  1  0.00267051  0.38239685  0.45077365  1
  S2-  S195  1  -0.00130104  0.34625957  0.95568316  1
  S2-  S196  1  -0.00134061  0.63345190  0.44915586  1
  S2-  S197  1  -0.00544752  0.59397256  0.96475901  1
  S2-  S198  1  0.00368374  0.88784910  0.44881060  1
  S2-  S199  1  0.00200186  0.84668949  0.95380325  1
  S2-  S200  1  0.25992146  0.13807222  0.45554154  1
  S2-  S201  1  0.24429174  0.10008781  0.95205332  1
  S2-  S202  1  0.25170253  0.38529882  0.45143576  1
  S2-  S203  1  0.24463509  0.34696593  0.95312628  1
  S2-  S204  1  0.25492693  0.62782243  0.45644091  1
  S2-  S205  1  0.24264488  0.59565890  0.96301767  1
  S2-  S206  1  0.25907594  0.87864055  0.46749971  1
  S2-  S207  1  0.23844619  0.84723620  0.95143566  1
  S2-  S208  1  0.50665501  0.13633823  0.46311448  1
  S2-  S209  1  0.49226057  0.09586781  0.94579142  1
  S2-  S210  1  0.51103983  0.38499275  0.46593164  1
  S2-  S211  1  0.49715550  0.35484646  0.94171979  1
  S2-  S212  1  0.50627065  0.63303954  0.44617437  1
  S2-  S213  1  0.49539038  0.59578500  0.96216622  1
  S2-  S214  1  0.50531063  0.87745988  0.46156104  1
  S2-  S215  1  0.49416218  0.84849713  0.95677923  1
  S2-  S216  1  0.75424815  0.13510347  0.45865734  1
  S2-  S217  1  0.74363855  0.09949022  0.95260423  1
  S2-  S218  1  0.75611048  0.37898622  0.45670863  1
  S2-  S219  1  0.73598644  0.34705637  0.94984075  1
  S2-  S220  1  0.75536910  0.63439964  0.45484612  1
  S2-  S221  1  0.74566832  0.59511367  0.96836157  1
  S2-  S222  1  0.76031770  0.87900335  0.45253406  1
  S2-  S223  1  0.74834711  0.84747822  0.95824030  1
  S2-  S224  1  0.12113061  -0.02159348  0.05347628  1
  S2-  S225  1  0.13243169  0.00573158  0.55104982  1
  S2-  S226  1  0.11757786  0.21981530  0.04939590  1
  S2-  S227  1  0.13349475  0.26033223  0.54204560  1
  S2-  S228  1  0.11885480  0.46613016  0.04712062  1
  S2-  S229  1  0.12781877  0.50658169  0.55249796  1
  S2-  S230  1  0.11901606  0.72468197  0.04371471  1
  S2-  S231  1  0.12650825  0.75676840  0.54259759  1
  S2-  S232  1  0.36593738  -0.02599390  0.03981314  1
  S2-  S233  1  0.38129886  0.01087937  0.54771632  1
  S2-  S234  1  0.36973348  0.22368941  0.03406497  1
  S2-  S235  1  0.37969433  0.25813055  0.54365129  1
  S2-  S236  1  0.37133749  0.47129182  0.04045099  1
  S2-  S237  1  0.37984759  0.50920153  0.53847550  1
  S2-  S238  1  0.36875169  0.72779197  0.04397076  1
  S2-  S239  1  0.38010212  0.75419475  0.54321997  1
  S2-  S240  1  0.61720351  -0.02614623  0.04136355  1
  S2-  S241  1  0.63068005  0.00727876  0.54753688  1
  S2-  S242  1  0.61553055  0.22427667  0.03507278  1
  S2-  S243  1  0.63197534  0.26133202  0.55179169  1
  S2-  S244  1  0.61280984  0.46993979  0.04561356  1
  S2-  S245  1  0.63217040  0.50891713  0.55384808  1
  S2-  S246  1  0.61547524  0.72749642  0.04762036  1
  S2-  S247  1  0.63020291  0.75797842  0.55262380  1
  S2-  S248  1  0.87387515  -0.02638312  0.03810650  1
  S2-  S249  1  0.87641153  0.00751440  0.54752467  1
  S2-  S250  1  0.86709290  0.22328521  0.04037023  1
  S2-  S251  1  0.87425668  0.25923219  0.54422936  1
  S2-  S252  1  0.86874746  0.46796584  0.04393579  1
  S2-  S253  1  0.87656026  0.50701541  0.54297570  1
  S2-  S254  1  0.87160604  0.72651137  0.04747306  1
  S2-  S255  1  0.87612102  0.75845419  0.54815025  1
