# generated using pymatgen
data_La9Ce10Pr6Nd4Sm3(BiS2)32
_symmetry_space_group_name_H-M   'P 1'
_cell_length_a   16.15876713
_cell_length_b   16.10343873
_cell_length_c   27.31487787
_cell_angle_alpha   90.20479190
_cell_angle_beta   89.93515682
_cell_angle_gamma   89.83045623
_symmetry_Int_Tables_number   1
_chemical_formula_structural   La9Ce10Pr6Nd4Sm3(BiS2)32
_chemical_formula_sum   'La18 Ce20 Pr12 Nd8 Sm6 Bi64 S128'
_cell_volume   7107.57009755
_cell_formula_units_Z   2
loop_
 _symmetry_equiv_pos_site_id
 _symmetry_equiv_pos_as_xyz
  1  'x, y, z'
loop_
 _atom_type_symbol
 _atom_type_oxidation_number
  La3+  3.0
  Ce3+  3.0
  Pr3+  3.0
  Nd3+  3.0
  Sm3+  3.0
  Bi2+  2.0
  S2-  -2.0
loop_
 _atom_site_type_symbol
 _atom_site_label
 _atom_site_symmetry_multiplicity
 _atom_site_fract_x
 _atom_site_fract_y
 _atom_site_fract_z
 _atom_site_occupancy
  La3+  La0  1  0.64242528  0.25209649  0.42953828  1
  La3+  La1  1  0.00364136  0.08326289  0.06847149  1
  La3+  La2  1  0.75861848  0.33885627  0.07777225  1
  La3+  La3  1  0.12531177  -0.03412912  0.92564361  1
  La3+  La4  1  0.01774942  0.88081438  0.60742018  1
  La3+  La5  1  0.12948039  0.71185685  0.91509629  1
  La3+  La6  1  0.89201628  0.51366162  0.41891035  1
  La3+  La7  1  0.75845230  0.58990628  0.07304113  1
  La3+  La8  1  0.49093793  0.09154003  0.07386417  1
  La3+  La9  1  0.25645838  0.62640304  0.57409625  1
  La3+  La10  1  0.24871462  0.59395128  0.06476454  1
  La3+  La11  1  0.38229581  0.21461557  0.91872735  1
  La3+  La12  1  0.87084876  0.46426155  0.92538471  1
  La3+  La13  1  0.49880820  0.83828651  0.05654322  1
  La3+  La14  1  0.39094153  0.25225546  0.42398562  1
  La3+  La15  1  0.49059213  0.34095681  0.07390959  1
  La3+  La16  1  0.74505442  0.88859173  0.60995664  1
  La3+  La17  1  0.75891149  0.62817941  0.56855100  1
  Ce3+  Ce18  1  0.00061793  0.84145914  0.04741294  1
  Ce3+  Ce19  1  0.38409048  0.00587192  0.44522663  1
  Ce3+  Ce20  1  0.24746537  0.83804284  0.05733488  1
  Ce3+  Ce21  1  0.00533658  0.38668757  0.56091028  1
  Ce3+  Ce22  1  0.00411194  0.13082194  0.56668920  1
  Ce3+  Ce23  1  0.38119176  0.50574059  0.43907191  1
  Ce3+  Ce24  1  0.12954647  0.25353606  0.44593313  1
  Ce3+  Ce25  1  0.51065380  0.88064775  0.55756295  1
  Ce3+  Ce26  1  -0.00375046  0.59033812  0.05220000  1
  Ce3+  Ce27  1  0.12870857  0.21580418  0.93728158  1
  Ce3+  Ce28  1  0.76212379  0.38334284  0.55615400  1
  Ce3+  Ce29  1  0.13406036  0.75473517  0.44905163  1
  Ce3+  Ce30  1  0.50990521  0.62961039  0.55154882  1
  Ce3+  Ce31  1  0.25932311  0.37737760  0.55605813  1
  Ce3+  Ce32  1  0.75067913  0.09453167  0.06484588  1
  Ce3+  Ce33  1  0.51177690  0.13091849  0.55963342  1
  Ce3+  Ce34  1  0.25276370  0.33725369  0.05396453  1
  Ce3+  Ce35  1  0.50866409  0.37835899  0.55060160  1
  Ce3+  Ce36  1  0.37556295  0.70654643  0.92836732  1
  Ce3+  Ce37  1  0.37678429  -0.03386999  0.93243396  1
  Pr3+  Pr38  1  0.75056834  0.84357685  0.05933075  1
  Pr3+  Pr39  1  0.13162310  0.00309424  0.44365432  1
  Pr3+  Pr40  1  0.14038245  0.50563113  0.43105529  1
  Pr3+  Pr41  1  0.86696076  0.71608004  0.92224327  1
  Pr3+  Pr42  1  0.62296461  -0.03033001  0.93786683  1
  Pr3+  Pr43  1  0.12375087  0.46542708  0.93372258  1
  Pr3+  Pr44  1  0.76197479  0.13213940  0.56509661  1
  Pr3+  Pr45  1  0.86788947  -0.03448654  0.92722777  1
  Pr3+  Pr46  1  0.88447312  0.75413686  0.44901590  1
  Pr3+  Pr47  1  0.64022352  0.50347347  0.42853681  1
  Pr3+  Pr48  1  0.63909002  0.00188754  0.43677439  1
  Pr3+  Pr49  1  0.89003814  0.25428608  0.42662978  1
  Nd3+  Nd50  1  0.62573302  0.71193014  0.94024727  1
  Nd3+  Nd51  1  0.25726543  0.13083757  0.56085582  1
  Nd3+  Nd52  1  0.00335461  0.33355805  0.06427134  1
  Nd3+  Nd53  1  0.38246446  0.75481044  0.44333841  1
  Nd3+  Nd54  1  0.87857685  0.20893382  0.93420134  1
  Nd3+  Nd55  1  0.50284866  0.58995386  0.05869020  1
  Nd3+  Nd56  1  0.63687373  0.75321894  0.44000872  1
  Nd3+  Nd57  1  0.63174574  0.46118409  0.94841549  1
  Sm3+  Sm58  1  0.62913630  0.21864298  0.94919016  1
  Sm3+  Sm59  1  0.25608998  0.88150593  0.56283657  1
  Sm3+  Sm60  1  0.25255682  0.08214697  0.05677457  1
  Sm3+  Sm61  1  0.00567720  0.62919819  0.56553804  1
  Sm3+  Sm62  1  0.88286997  -0.00081008  0.45571586  1
  Sm3+  Sm63  1  0.37914237  0.46061409  0.93531054  1
  Bi2+  Bi64  1  -0.00236177  0.13361044  0.29783321  1
  Bi2+  Bi65  1  -0.00645441  0.17613974  0.78378969  1
  Bi2+  Bi66  1  0.01694513  0.36026366  0.27768872  1
  Bi2+  Bi67  1  0.01281894  0.36153376  0.83162553  1
  Bi2+  Bi68  1  0.00155280  0.59469083  0.25516189  1
  Bi2+  Bi69  1  0.01505741  0.54243604  0.78126812  1
  Bi2+  Bi70  1  -0.01104818  0.92520642  0.30653024  1
  Bi2+  Bi71  1  -0.00493777  0.93015908  0.80612018  1
  Bi2+  Bi72  1  0.21770651  0.12896744  0.28203488  1
  Bi2+  Bi73  1  0.28369893  0.12281300  0.78357766  1
  Bi2+  Bi74  1  0.21920509  0.39098858  0.27210149  1
  Bi2+  Bi75  1  0.19176892  0.36080643  0.78336010  1
  Bi2+  Bi76  1  0.17299711  0.62131861  0.30682194  1
  Bi2+  Bi77  1  0.26408227  0.61511652  0.78363977  1
  Bi2+  Bi78  1  0.24854350  0.81608313  0.29217720  1
  Bi2+  Bi79  1  0.29926795  0.89243585  0.80104012  1
  Bi2+  Bi80  1  0.46815803  0.13424766  0.30834298  1
  Bi2+  Bi81  1  0.46895257  0.26566344  0.77979149  1
  Bi2+  Bi82  1  0.39236415  0.48676719  0.27640850  1
  Bi2+  Bi83  1  0.57663890  0.42486562  0.81362680  1
  Bi2+  Bi84  1  0.41700044  0.67685756  0.25075145  1
  Bi2+  Bi85  1  0.51057260  0.71100678  0.80850047  1
  Bi2+  Bi86  1  0.58703348  0.93151603  0.26374918  1
  Bi2+  Bi87  1  0.50759012  0.91555287  0.80927267  1
  Bi2+  Bi88  1  0.78576782  0.11623663  0.28591972  1
  Bi2+  Bi89  1  0.69581846  0.14607252  0.80061104  1
  Bi2+  Bi90  1  0.67764697  0.37066389  0.30156858  1
  Bi2+  Bi91  1  0.82306333  0.32881594  0.75964278  1
  Bi2+  Bi92  1  0.73563398  0.62085768  0.30817966  1
  Bi2+  Bi93  1  0.75289489  0.58578798  0.79002014  1
  Bi2+  Bi94  1  0.76268810  0.86731667  0.29875813  1
  Bi2+  Bi95  1  0.71824046  0.86090145  0.79912088  1
  Bi2+  Bi96  1  0.12899738  -0.05085410  0.20824185  1
  Bi2+  Bi97  1  0.15771674  0.02880147  0.70623675  1
  Bi2+  Bi98  1  0.14696758  0.24917695  0.20226060  1
  Bi2+  Bi99  1  0.05805206  0.30165295  0.70685380  1
  Bi2+  Bi100  1  0.09904392  0.45238240  0.18388786  1
  Bi2+  Bi101  1  0.14883152  0.49078533  0.69816852  1
  Bi2+  Bi102  1  0.09890718  0.75223893  0.20616291  1
  Bi2+  Bi103  1  0.12160926  0.76444363  0.72527215  1
  Bi2+  Bi104  1  0.32933322  -0.01989492  0.24672670  1
  Bi2+  Bi105  1  0.38741804  -0.00744286  0.71270507  1
  Bi2+  Bi106  1  0.40074814  0.23113095  0.19712436  1
  Bi2+  Bi107  1  0.37508920  0.27170700  0.67897501  1
  Bi2+  Bi108  1  0.26305894  0.55279235  0.19863663  1
  Bi2+  Bi109  1  0.43954901  0.53308265  0.76168156  1
  Bi2+  Bi110  1  0.36086524  0.82350030  0.18042644  1
  Bi2+  Bi111  1  0.40586271  0.79406179  0.72253279  1
  Bi2+  Bi112  1  0.74146653  -0.01635159  0.19785407  1
  Bi2+  Bi113  1  0.58012129  0.02096993  0.71772650  1
  Bi2+  Bi114  1  0.64168019  0.22417197  0.21783931  1
  Bi2+  Bi115  1  0.63590100  0.30840942  0.71897869  1
  Bi2+  Bi116  1  0.57879264  0.50780237  0.20293341  1
  Bi2+  Bi117  1  0.61106062  0.50582520  0.70377462  1
  Bi2+  Bi118  1  0.63276607  0.77374996  0.20203526  1
  Bi2+  Bi119  1  0.59828784  0.73382556  0.70602115  1
  Bi2+  Bi120  1  0.93374102  0.03437574  0.20523640  1
  Bi2+  Bi121  1  0.83849566  0.12533547  0.71651770  1
  Bi2+  Bi122  1  0.89020739  0.25480324  0.21211052  1
  Bi2+  Bi123  1  0.88252604  0.26814444  0.64580579  1
  Bi2+  Bi124  1  0.84340981  0.50091593  0.20575710  1
  Bi2+  Bi125  1  0.87070081  0.49935357  0.70888949  1
  Bi2+  Bi126  1  0.91597069  0.77410958  0.24988097  1
  Bi2+  Bi127  1  0.87633246  0.75078693  0.71951154  1
  S2-  S128  1  0.01661640  0.20536783  0.14391958  1
  S2-  S129  1  0.02554020  0.05098584  0.65237768  1
  S2-  S130  1  -0.09920790  0.37680503  0.14222636  1
  S2-  S131  1  0.00319841  0.50162858  0.63680854  1
  S2-  S132  1  -0.09789347  0.60026954  0.13508862  1
  S2-  S133  1  0.00723263  0.71672603  0.65359701  1
  S2-  S134  1  0.00450674  0.93482023  0.13208064  1
  S2-  S135  1  -0.00364523  0.87904930  0.71451037  1
  S2-  S136  1  0.34974167  0.12116896  0.13697540  1
  S2-  S137  1  0.24047285  0.15340398  0.65988442  1
  S2-  S138  1  0.33736986  0.34480483  0.13857027  1
  S2-  S139  1  0.28743442  0.41071086  0.65066234  1
  S2-  S140  1  0.22949235  0.72416474  0.13573926  1
  S2-  S141  1  0.23065167  0.64571334  0.67424010  1
  S2-  S142  1  0.23853448  0.95332810  0.13219454  1
  S2-  S143  1  0.18709262  0.88174280  0.65413980  1
  S2-  S144  1  0.54022383  0.12277148  0.17602189  1
  S2-  S145  1  0.48218764  0.12842177  0.65647992  1
  S2-  S146  1  0.53247023  0.34422992  0.17513077  1
  S2-  S147  1  0.50892329  0.36497548  0.64827885  1
  S2-  S148  1  0.45765885  0.60068345  0.15455207  1
  S2-  S149  1  0.50517983  0.61793399  0.64888429  1
  S2-  S150  1  0.51320469  0.88533839  0.15358840  1
  S2-  S151  1  0.57925173  0.88177560  0.64804882  1
  S2-  S152  1  0.76101658  0.19764246  0.14581615  1
  S2-  S153  1  0.71741156  0.06003779  0.65346059  1
  S2-  S154  1  0.71271360  0.42601209  0.16895378  1
  S2-  S155  1  0.74799201  0.48859130  0.63598215  1
  S2-  S156  1  0.67744952  0.62975129  0.16570302  1
  S2-  S157  1  0.75284774  0.72253005  0.65523767  1
  S2-  S158  1  0.77748336  0.82336263  0.15828911  1
  S2-  S159  1  0.79612533  0.89218744  0.71233158  1
  S2-  S160  1  0.12057896  0.01995978  0.34392451  1
  S2-  S161  1  0.15730912  -0.00349995  0.82540925  1
  S2-  S162  1  0.03306464  0.26301223  0.36326886  1
  S2-  S163  1  0.21213909  0.22280011  0.84946701  1
  S2-  S164  1  0.03450468  0.51125074  0.35011082  1
  S2-  S165  1  0.14131107  0.56721855  0.85007935  1
  S2-  S166  1  0.11347557  0.76108533  0.35215000  1
  S2-  S167  1  0.07213291  0.78250301  0.82108167  1
  S2-  S168  1  0.37362724  0.00488638  0.34893045  1
  S2-  S169  1  0.38658815  0.07192733  0.85364542  1
  S2-  S170  1  0.32249097  0.23295535  0.33069049  1
  S2-  S171  1  0.39370848  0.35084491  0.85435913  1
  S2-  S172  1  0.28426063  0.50564837  0.35806250  1
  S2-  S173  1  0.37823771  0.57004271  0.85723131  1
  S2-  S174  1  0.37964519  0.74708239  0.34355438  1
  S2-  S175  1  0.27287420  0.74410017  0.84962998  1
  S2-  S176  1  0.60626284  0.04395351  0.33956709  1
  S2-  S177  1  0.72368453  -0.00660626  0.85592944  1
  S2-  S178  1  0.53699033  0.26748843  0.34663201  1
  S2-  S179  1  0.56569577  0.19457578  0.85811318  1
  S2-  S180  1  0.59580478  0.51119464  0.32912007  1
  S2-  S181  1  0.72382287  0.46464071  0.86168084  1
  S2-  S182  1  0.64398922  0.75287528  0.33972584  1
  S2-  S183  1  0.70880390  0.70762202  0.85252470  1
  S2-  S184  1  0.84625209  -0.00513141  0.35769109  1
  S2-  S185  1  0.92846984  0.08153030  0.85528207  1
  S2-  S186  1  0.76769700  0.24313331  0.35237555  1
  S2-  S187  1  0.78345176  0.25114125  0.85238920  1
  S2-  S188  1  0.79970229  0.46260339  0.33341417  1
  S2-  S189  1  0.89160803  0.59102981  0.84923455  1
  S2-  S190  1  0.86392808  0.66830284  0.35929094  1
  S2-  S191  1  0.87007680  0.84290217  0.84753393  1
  S2-  S192  1  0.00491657  0.12417979  0.45968102  1
  S2-  S193  1  0.00760601  0.09165651  0.95922079  1
  S2-  S194  1  0.01139246  0.38584958  0.45703476  1
  S2-  S195  1  0.00092189  0.33721912  0.95535835  1
  S2-  S196  1  0.01392862  0.63075367  0.46039881  1
  S2-  S197  1  -0.00043144  0.59177862  0.94928902  1
  S2-  S198  1  0.00757070  0.87965872  0.45370774  1
  S2-  S199  1  0.00059221  0.84041722  0.94404194  1
  S2-  S200  1  0.25727534  0.13033978  0.45352992  1
  S2-  S201  1  0.25088583  0.08869153  0.95179130  1
  S2-  S202  1  0.25916237  0.37235951  0.45034719  1
  S2-  S203  1  0.24950098  0.34494325  0.95061438  1
  S2-  S204  1  0.26025182  0.63218156  0.46209567  1
  S2-  S205  1  0.25105190  0.58611198  0.95684796  1
  S2-  S206  1  0.25972030  0.88017987  0.45705155  1
  S2-  S207  1  0.25241987  0.84209483  0.95080760  1
  S2-  S208  1  0.51204697  0.12724202  0.45378464  1
  S2-  S209  1  0.50278178  0.09037643  0.96183513  1
  S2-  S210  1  0.50915847  0.38404556  0.44578051  1
  S2-  S211  1  0.50530284  0.34265103  0.96193741  1
  S2-  S212  1  0.50791739  0.62914654  0.44479297  1
  S2-  S213  1  0.50686963  0.58531111  0.95292806  1
  S2-  S214  1  0.50917038  0.87849929  0.44995991  1
  S2-  S215  1  0.50119630  0.83828302  0.94794046  1
  S2-  S216  1  0.76310400  0.12530293  0.45798869  1
  S2-  S217  1  0.74851173  0.09486560  0.95993504  1
  S2-  S218  1  0.76494428  0.38133878  0.45106808  1
  S2-  S219  1  0.75332522  0.33581395  0.96549556  1
  S2-  S220  1  0.75579703  0.62812076  0.45900249  1
  S2-  S221  1  0.75030444  0.59143933  0.96246559  1
  S2-  S222  1  0.75879094  0.87638694  0.45398216  1
  S2-  S223  1  0.74415294  0.84114022  0.95432573  1
  S2-  S224  1  0.12691106  -0.03723598  0.03218601  1
  S2-  S225  1  0.13391085  0.00412316  0.54892679  1
  S2-  S226  1  0.13349722  0.21118436  0.04283043  1
  S2-  S227  1  0.13071026  0.25519136  0.55214317  1
  S2-  S228  1  0.12450488  0.46437815  0.04446288  1
  S2-  S229  1  0.13769714  0.50492860  0.54186730  1
  S2-  S230  1  0.11890374  0.71423044  0.03284121  1
  S2-  S231  1  0.13398171  0.75637427  0.55353168  1
  S2-  S232  1  0.37655242  -0.03807454  0.03777320  1
  S2-  S233  1  0.38096964  0.00432796  0.55251370  1
  S2-  S234  1  0.37316629  0.21612482  0.03257011  1
  S2-  S235  1  0.38374319  0.25172772  0.53835542  1
  S2-  S236  1  0.37510839  0.47091067  0.04133724  1
  S2-  S237  1  0.38318277  0.50487864  0.54438821  1
  S2-  S238  1  0.37764997  0.71213041  0.03776097  1
  S2-  S239  1  0.38043111  0.75678157  0.55246869  1
  S2-  S240  1  0.62460266  -0.03043660  0.04782130  1
  S2-  S241  1  0.63406311  0.00408019  0.54393638  1
  S2-  S242  1  0.61947438  0.21683442  0.05335416  1
  S2-  S243  1  0.63669471  0.25539401  0.54366683  1
  S2-  S244  1  0.62573548  0.46466368  0.05346080  1
  S2-  S245  1  0.62893118  0.50335236  0.53632210  1
  S2-  S246  1  0.62685106  0.71479061  0.04693633  1
  S2-  S247  1  0.63248295  0.75579482  0.54612595  1
  S2-  S248  1  0.87136452  -0.03264048  0.03835562  1
  S2-  S249  1  0.88007924  -0.00366692  0.56013498  1
  S2-  S250  1  0.88011222  0.21073107  0.04200684  1
  S2-  S251  1  0.88511235  0.25683943  0.53379377  1
  S2-  S252  1  0.87984196  0.46371908  0.03521345  1
  S2-  S253  1  0.88382566  0.50679238  0.53519848  1
  S2-  S254  1  0.87532034  0.72144897  0.03622971  1
  S2-  S255  1  0.88541576  0.75867842  0.55426322  1
