# generated using pymatgen
data_La9Ce10Pr6Nd4Sm3(BiS2)32
_symmetry_space_group_name_H-M   'P 1'
_cell_length_a   16.14732156
_cell_length_b   16.17835260
_cell_length_c   27.14490116
_cell_angle_alpha   90.20192571
_cell_angle_beta   90.25703756
_cell_angle_gamma   90.11306864
_symmetry_Int_Tables_number   1
_chemical_formula_structural   La9Ce10Pr6Nd4Sm3(BiS2)32
_chemical_formula_sum   'La18 Ce20 Pr12 Nd8 Sm6 Bi64 S128'
_cell_volume   7091.12479543
_cell_formula_units_Z   2
loop_
 _symmetry_equiv_pos_site_id
 _symmetry_equiv_pos_as_xyz
  1  'x, y, z'
loop_
 _atom_type_symbol
 _atom_type_oxidation_number
  La3+  3.0
  Ce3+  3.0
  Pr3+  3.0
  Nd3+  3.0
  Sm3+  3.0
  Bi2+  2.0
  S2-  -2.0
loop_
 _atom_site_type_symbol
 _atom_site_label
 _atom_site_symmetry_multiplicity
 _atom_site_fract_x
 _atom_site_fract_y
 _atom_site_fract_z
 _atom_site_occupancy
  La3+  La0  1  0.76249148  0.85923597  0.56498061  1
  La3+  La1  1  0.12512597  0.73366689  0.89303455  1
  La3+  La2  1  0.36770103  0.26052282  0.90274676  1
  La3+  La3  1  0.37406796  -0.00070755  0.92328271  1
  La3+  La4  1  0.39088893  0.22963572  0.41488638  1
  La3+  La5  1  0.00974835  0.61798883  0.08149654  1
  La3+  La6  1  0.74365937  0.87307299  0.07960673  1
  La3+  La7  1  0.50285104  0.62018294  0.07267408  1
  La3+  La8  1  -0.00572370  0.13669550  0.10208075  1
  La3+  La9  1  0.26132488  0.61615506  0.58101712  1
  La3+  La10  1  0.01025971  0.87138078  0.08711844  1
  La3+  La11  1  0.75209092  0.36523745  0.06050746  1
  La3+  La12  1  0.12405828  0.23781433  0.42198340  1
  La3+  La13  1  0.76139616  0.10828705  0.57579923  1
  La3+  La14  1  0.63828248  -0.01228293  0.92433421  1
  La3+  La15  1  0.13808910  0.73107149  0.42415282  1
  La3+  La16  1  0.87574269  -0.01743094  0.41830996  1
  La3+  La17  1  0.01519794  0.61213671  0.56497660  1
  Ce3+  Ce18  1  0.87789391  0.23814588  0.43758712  1
  Ce3+  Ce19  1  0.00943075  0.36101112  0.55238655  1
  Ce3+  Ce20  1  0.50149999  0.87554952  0.05391376  1
  Ce3+  Ce21  1  0.88585707  0.74435851  0.95539728  1
  Ce3+  Ce22  1  0.74858680  0.61942131  0.06745144  1
  Ce3+  Ce23  1  0.51112574  0.86230446  0.55407137  1
  Ce3+  Ce24  1  0.62858067  0.74509068  0.93820758  1
  Ce3+  Ce25  1  0.63463293  0.49227546  0.44095616  1
  Ce3+  Ce26  1  0.25008607  0.12057222  0.05245569  1
  Ce3+  Ce27  1  0.26801425  0.11784054  0.55990906  1
  Ce3+  Ce28  1  0.87951888  0.50080711  0.94645141  1
  Ce3+  Ce29  1  0.74464382  0.12246370  0.06592083  1
  Ce3+  Ce30  1  0.38112186  -0.01125261  0.43923089  1
  Ce3+  Ce31  1  0.76650913  0.61742208  0.57733636  1
  Ce3+  Ce32  1  0.37315636  0.74405520  0.94339222  1
  Ce3+  Ce33  1  0.50775568  0.36106114  0.55218701  1
  Ce3+  Ce34  1  0.87536257  -0.00606840  0.95925283  1
  Ce3+  Ce35  1  0.87143001  0.24237369  0.93457916  1
  Ce3+  Ce36  1  0.37973219  0.48495945  0.44155772  1
  Ce3+  Ce37  1  0.37180044  0.49970360  0.94598986  1
  Pr3+  Pr38  1  0.12411479  0.24589456  0.93415898  1
  Pr3+  Pr39  1  0.25648659  0.62055802  0.07660492  1
  Pr3+  Pr40  1  0.12059470  -0.01101646  0.94395048  1
  Pr3+  Pr41  1  0.25929841  0.35474072  0.56458285  1
  Pr3+  Pr42  1  0.00748115  0.11388659  0.55963693  1
  Pr3+  Pr43  1  0.63426883  -0.02049483  0.43040761  1
  Pr3+  Pr44  1  0.63743246  0.23676943  0.43750409  1
  Pr3+  Pr45  1  0.50045806  0.36511064  0.05090063  1
  Pr3+  Pr46  1  0.25902914  0.86458193  0.56445381  1
  Pr3+  Pr47  1  0.25080619  0.35437706  0.07531651  1
  Pr3+  Pr48  1  0.87911107  0.49328212  0.43829229  1
  Pr3+  Pr49  1  0.13059140  0.49573484  0.94923026  1
  Nd3+  Nd50  1  0.62715269  0.49763843  0.93845188  1
  Nd3+  Nd51  1  0.25319154  0.87351073  0.06131397  1
  Nd3+  Nd52  1  0.13151413  -0.01213658  0.44128719  1
  Nd3+  Nd53  1  0.62500066  0.24010713  0.91559299  1
  Nd3+  Nd54  1  0.75693476  0.36615006  0.56952486  1
  Nd3+  Nd55  1  0.63163291  0.73123671  0.43614377  1
  Nd3+  Nd56  1  0.13613628  0.48608316  0.44113671  1
  Nd3+  Nd57  1  0.51361732  0.11345775  0.56196092  1
  Sm3+  Sm58  1  0.88228661  0.73422233  0.43333565  1
  Sm3+  Sm59  1  0.50590573  0.12015870  0.04796476  1
  Sm3+  Sm60  1  0.37932875  0.73290971  0.44069185  1
  Sm3+  Sm61  1  0.00254138  0.36822833  0.05288220  1
  Sm3+  Sm62  1  0.00981309  0.86291671  0.54898525  1
  Sm3+  Sm63  1  0.50697886  0.61161218  0.56552037  1
  Bi2+  Bi64  1  0.06830210  0.12827701  0.30597045  1
  Bi2+  Bi65  1  0.00313485  0.17190327  0.83165014  1
  Bi2+  Bi66  1  -0.09083792  0.42121988  0.28224536  1
  Bi2+  Bi67  1  0.00111367  0.35002883  0.78263694  1
  Bi2+  Bi68  1  0.01112922  0.60256964  0.29138763  1
  Bi2+  Bi69  1  -0.01477557  0.61305530  0.79862346  1
  Bi2+  Bi70  1  0.02246366  0.88799479  0.28495023  1
  Bi2+  Bi71  1  0.01252958  0.98423226  0.79800740  1
  Bi2+  Bi72  1  0.30904342  0.14748568  0.27452846  1
  Bi2+  Bi73  1  0.18724038  0.13995769  0.78822267  1
  Bi2+  Bi74  1  0.24312102  0.42391834  0.30003970  1
  Bi2+  Bi75  1  0.28156396  0.37736408  0.76949893  1
  Bi2+  Bi76  1  0.29182617  0.66439199  0.26773132  1
  Bi2+  Bi77  1  0.25510706  0.60391794  0.79621380  1
  Bi2+  Bi78  1  0.29100173  0.86692105  0.28375287  1
  Bi2+  Bi79  1  0.27029901  0.92850773  0.79104811  1
  Bi2+  Bi80  1  0.49577219  0.06245915  0.26696766  1
  Bi2+  Bi81  1  0.47762822  0.11262576  0.78904387  1
  Bi2+  Bi82  1  0.57978941  0.37817438  0.29995673  1
  Bi2+  Bi83  1  0.55611079  0.39569397  0.77206951  1
  Bi2+  Bi84  1  0.48802046  0.67031088  0.31143096  1
  Bi2+  Bi85  1  0.50484754  0.65958430  0.81249611  1
  Bi2+  Bi86  1  0.48767619  0.86829333  0.29134191  1
  Bi2+  Bi87  1  0.52441486  0.84431408  0.77290150  1
  Bi2+  Bi88  1  0.70342956  0.18331955  0.30770693  1
  Bi2+  Bi89  1  0.75779741  0.10739885  0.79328871  1
  Bi2+  Bi90  1  0.75693954  0.36789805  0.35005148  1
  Bi2+  Bi91  1  0.80376021  0.38302439  0.78920514  1
  Bi2+  Bi92  1  0.74563833  0.61569749  0.28879788  1
  Bi2+  Bi93  1  0.69351340  0.63666933  0.81908180  1
  Bi2+  Bi94  1  0.74792684  0.87980039  0.29123806  1
  Bi2+  Bi95  1  0.75084277  0.89678125  0.78318943  1
  Bi2+  Bi96  1  0.22368407  0.00473099  0.21396526  1
  Bi2+  Bi97  1  0.13367741  -0.00073245  0.70621286  1
  Bi2+  Bi98  1  0.14517700  0.27421590  0.20345779  1
  Bi2+  Bi99  1  0.08888312  0.20270742  0.69429130  1
  Bi2+  Bi100  1  0.02868734  0.47298968  0.19566026  1
  Bi2+  Bi101  1  0.12583326  0.44832063  0.71196594  1
  Bi2+  Bi102  1  0.14383693  0.73826129  0.20492442  1
  Bi2+  Bi103  1  0.07210647  0.73390766  0.68775612  1
  Bi2+  Bi104  1  0.40454544  -0.02819955  0.17762952  1
  Bi2+  Bi105  1  0.32974168  -0.01391259  0.68808876  1
  Bi2+  Bi106  1  0.39124027  0.29509479  0.21310643  1
  Bi2+  Bi107  1  0.36488705  0.26206259  0.69458656  1
  Bi2+  Bi108  1  0.44257901  0.52655955  0.24041404  1
  Bi2+  Bi109  1  0.45965542  0.53945138  0.72365739  1
  Bi2+  Bi110  1  0.36904260  0.77617370  0.18132655  1
  Bi2+  Bi111  1  0.35030408  0.80115119  0.71777090  1
  Bi2+  Bi112  1  0.64521990  -0.00066828  0.19847430  1
  Bi2+  Bi113  1  0.62064834  -0.01414547  0.70501737  1
  Bi2+  Bi114  1  0.58254606  0.24004766  0.21284176  1
  Bi2+  Bi115  1  0.63357867  0.26138386  0.70732765  1
  Bi2+  Bi116  1  0.64081658  0.50076149  0.21784700  1
  Bi2+  Bi117  1  0.65249358  0.50747872  0.68172739  1
  Bi2+  Bi118  1  0.56779527  0.74491945  0.21318965  1
  Bi2+  Bi119  1  0.61263100  0.69381398  0.70592281  1
  Bi2+  Bi120  1  0.88323158  0.04762097  0.22218980  1
  Bi2+  Bi121  1  0.89727879  -0.02687294  0.70587656  1
  Bi2+  Bi122  1  0.80804259  0.27692342  0.23065290  1
  Bi2+  Bi123  1  0.89346071  0.20535952  0.72996753  1
  Bi2+  Bi124  1  0.84838866  0.53637387  0.18064310  1
  Bi2+  Bi125  1  0.83822955  0.52084264  0.71044979  1
  Bi2+  Bi126  1  0.87310767  0.70865517  0.22902257  1
  Bi2+  Bi127  1  0.80894294  0.72341116  0.74309252  1
  S2-  S128  1  0.03495834  0.13611373  0.20455610  1
  S2-  S129  1  -0.09524905  0.11414710  0.64255490  1
  S2-  S130  1  0.00666449  0.31444363  0.14575688  1
  S2-  S131  1  0.02194709  0.35115309  0.64986917  1
  S2-  S132  1  -0.01021775  0.73749127  0.15940268  1
  S2-  S133  1  -0.08742624  0.62512700  0.64778300  1
  S2-  S134  1  -0.01527499  0.94632880  0.18412298  1
  S2-  S135  1  -0.02283625  0.86062473  0.64692311  1
  S2-  S136  1  0.23871203  0.19578706  0.14052047  1
  S2-  S137  1  0.22507693  0.22460503  0.63501358  1
  S2-  S138  1  0.26077767  0.39359527  0.17700396  1
  S2-  S139  1  0.27129716  0.42190063  0.66298270  1
  S2-  S140  1  0.14442637  0.59532831  0.15595755  1
  S2-  S141  1  0.12811607  0.59143944  0.64868738  1
  S2-  S142  1  0.17051243  0.88534487  0.15036090  1
  S2-  S143  1  0.23153997  0.76976674  0.64870176  1
  S2-  S144  1  0.60747833  0.13175358  0.13144519  1
  S2-  S145  1  0.39412197  0.11901886  0.63665353  1
  S2-  S146  1  0.50491703  0.36405014  0.15249041  1
  S2-  S147  1  0.49527555  0.33143950  0.64941971  1
  S2-  S148  1  0.38886452  0.60492381  0.15105614  1
  S2-  S149  1  0.40332524  0.62062870  0.64512089  1
  S2-  S150  1  0.58973166  0.86858986  0.13992826  1
  S2-  S151  1  0.51659079  0.88113398  0.65115815  1
  S2-  S152  1  0.83411104  0.15821198  0.15072500  1
  S2-  S153  1  0.62289970  0.12580938  0.64458452  1
  S2-  S154  1  0.74692004  0.38673147  0.16152762  1
  S2-  S155  1  0.76960149  0.30707530  0.66367110  1
  S2-  S156  1  0.63692661  0.63193279  0.14499827  1
  S2-  S157  1  0.74469435  0.74556363  0.64466573  1
  S2-  S158  1  0.77842958  0.90649278  0.18263227  1
  S2-  S159  1  0.75698548  0.96808984  0.64585805  1
  S2-  S160  1  0.14062907  -0.02200884  0.34062624  1
  S2-  S161  1  0.13168870  -0.09962655  0.85537557  1
  S2-  S162  1  0.14760093  0.30367451  0.32236551  1
  S2-  S163  1  0.21411284  0.29097565  0.84886784  1
  S2-  S164  1  0.14167139  0.54217107  0.34637959  1
  S2-  S165  1  0.12390486  0.56233683  0.85551939  1
  S2-  S166  1  0.06152948  0.75234129  0.33085859  1
  S2-  S167  1  0.12218991  0.71803093  0.77898892  1
  S2-  S168  1  0.38477803  0.07275453  0.35395526  1
  S2-  S169  1  0.44765023  -0.04436314  0.83082153  1
  S2-  S170  1  0.35192112  0.29971483  0.32100300  1
  S2-  S171  1  0.34322327  0.11944212  0.84244231  1
  S2-  S172  1  0.38248534  0.51042560  0.34343156  1
  S2-  S173  1  0.34681366  0.47877165  0.84885222  1
  S2-  S174  1  0.27875388  0.74143968  0.35919202  1
  S2-  S175  1  0.29610863  0.72483163  0.85537246  1
  S2-  S176  1  0.73248981  0.02514126  0.34892006  1
  S2-  S177  1  0.61785981  0.09930067  0.84632771  1
  S2-  S178  1  0.54457197  0.23121904  0.35126293  1
  S2-  S179  1  0.50454148  0.26686842  0.83713292  1
  S2-  S180  1  0.62882066  0.60280334  0.36383747  1
  S2-  S181  1  0.66395970  0.46932630  0.84127858  1
  S2-  S182  1  0.63335757  0.84291008  0.35526894  1
  S2-  S183  1  0.64586453  0.84607000  0.85844606  1
  S2-  S184  1  0.93947571  0.02758357  0.32215082  1
  S2-  S185  1  0.81415018  -0.00924178  0.86560713  1
  S2-  S186  1  0.97003431  0.22645138  0.35541616  1
  S2-  S187  1  0.76741502  0.25125961  0.85373545  1
  S2-  S188  1  0.87281332  0.61056396  0.36139637  1
  S2-  S189  1  0.89822541  0.49474329  0.84872945  1
  S2-  S190  1  0.86669716  0.83805414  0.35087707  1
  S2-  S191  1  0.95240502  0.73401120  0.86345116  1
  S2-  S192  1  0.00385192  0.10701794  0.45285758  1
  S2-  S193  1  -0.00201656  0.11787727  0.94987055  1
  S2-  S194  1  0.00386230  0.36929142  0.44652704  1
  S2-  S195  1  0.00017393  0.37147946  0.94768183  1
  S2-  S196  1  0.01256053  0.61085825  0.45570049  1
  S2-  S197  1  0.00742472  0.61853462  0.96905280  1
  S2-  S198  1  0.01051489  0.86025813  0.44582389  1
  S2-  S199  1  -0.00059136  0.87124110  0.97074609  1
  S2-  S200  1  0.25422645  0.11400472  0.44989803  1
  S2-  S201  1  0.24446979  0.12012178  0.94830984  1
  S2-  S202  1  0.25816674  0.35829108  0.44789749  1
  S2-  S203  1  0.25441109  0.36752756  0.96300696  1
  S2-  S204  1  0.26059662  0.60926044  0.46223835  1
  S2-  S205  1  0.25032938  0.62186673  0.96553568  1
  S2-  S206  1  0.25806038  0.86587227  0.45618350  1
  S2-  S207  1  0.25391288  0.87145825  0.95591357  1
  S2-  S208  1  0.51384218  0.10619903  0.45454988  1
  S2-  S209  1  0.49521991  0.12663270  0.94582107  1
  S2-  S210  1  0.50999463  0.36692946  0.44705023  1
  S2-  S211  1  0.49966231  0.37559126  0.94499156  1
  S2-  S212  1  0.50028910  0.61145341  0.46079129  1
  S2-  S213  1  0.50100402  0.61965971  0.95756099  1
  S2-  S214  1  0.49998151  0.85817919  0.44837638  1
  S2-  S215  1  0.49869542  0.86866672  0.94934410  1
  S2-  S216  1  0.75977652  0.11334055  0.45862169  1
  S2-  S217  1  0.75161573  0.12114246  0.95863827  1
  S2-  S218  1  0.75702207  0.36694970  0.46252121  1
  S2-  S219  1  0.75318370  0.37639368  0.95305236  1
  S2-  S220  1  0.75647862  0.61419119  0.46713437  1
  S2-  S221  1  0.75314583  0.62127538  0.95901147  1
  S2-  S222  1  0.75695879  0.85469317  0.45671585  1
  S2-  S223  1  0.75762314  0.86294497  0.96789311  1
  S2-  S224  1  0.12039937  0.00641696  0.05260060  1
  S2-  S225  1  0.13467525  -0.00942988  0.54928697  1
  S2-  S226  1  0.11827234  0.24040520  0.04135725  1
  S2-  S227  1  0.12827622  0.23674959  0.53153646  1
  S2-  S228  1  0.13124045  0.48359666  0.05426480  1
  S2-  S229  1  0.13833483  0.48040116  0.54600534  1
  S2-  S230  1  0.13447253  0.74584143  0.05859448  1
  S2-  S231  1  0.13416817  0.74119348  0.53827171  1
  S2-  S232  1  0.37769429  -0.00005197  0.03811059  1
  S2-  S233  1  0.38591057  -0.01559952  0.54271861  1
  S2-  S234  1  0.38105203  0.23829666  0.04728443  1
  S2-  S235  1  0.38769823  0.23916094  0.53105999  1
  S2-  S236  1  0.37403823  0.48756285  0.05164632  1
  S2-  S237  1  0.38328563  0.48399426  0.54771173  1
  S2-  S238  1  0.37851083  0.75028969  0.04888680  1
  S2-  S239  1  0.38415500  0.74098977  0.54444673  1
  S2-  S240  1  0.62648188  -0.00549854  0.03474362  1
  S2-  S241  1  0.63268400  -0.01538974  0.53892590  1
  S2-  S242  1  0.62604610  0.24682127  0.03095623  1
  S2-  S243  1  0.63670160  0.24207423  0.54419447  1
  S2-  S244  1  0.62607027  0.49216689  0.04620608  1
  S2-  S245  1  0.63192249  0.49043433  0.54940603  1
  S2-  S246  1  0.62457978  0.74562745  0.04225259  1
  S2-  S247  1  0.62698727  0.73239271  0.54402259  1
  S2-  S248  1  0.87721055  -0.00059510  0.06380615  1
  S2-  S249  1  0.88810338  -0.01570753  0.53642274  1
  S2-  S250  1  0.87938550  0.24441641  0.04166149  1
  S2-  S251  1  0.88034840  0.24241424  0.54441851  1
  S2-  S252  1  0.87939321  0.49389161  0.05252042  1
  S2-  S253  1  0.88332900  0.48516270  0.54807771  1
  S2-  S254  1  0.87047506  0.74475182  0.06120506  1
  S2-  S255  1  0.88964749  0.73864206  0.53867151  1
