# generated using pymatgen
data_La9Ce10Pr6Nd4Sm3(BiS2)32
_symmetry_space_group_name_H-M   'P 1'
_cell_length_a   16.20505278
_cell_length_b   16.13721985
_cell_length_c   27.19872976
_cell_angle_alpha   89.91129005
_cell_angle_beta   89.91751213
_cell_angle_gamma   90.05427671
_symmetry_Int_Tables_number   1
_chemical_formula_structural   La9Ce10Pr6Nd4Sm3(BiS2)32
_chemical_formula_sum   'La18 Ce20 Pr12 Nd8 Sm6 Bi64 S128'
_cell_volume   7112.57110522
_cell_formula_units_Z   2
loop_
 _symmetry_equiv_pos_site_id
 _symmetry_equiv_pos_as_xyz
  1  'x, y, z'
loop_
 _atom_type_symbol
 _atom_type_oxidation_number
  La3+  3.0
  Ce3+  3.0
  Pr3+  3.0
  Nd3+  3.0
  Sm3+  3.0
  Bi2+  2.0
  S2-  -2.0
loop_
 _atom_site_type_symbol
 _atom_site_label
 _atom_site_symmetry_multiplicity
 _atom_site_fract_x
 _atom_site_fract_y
 _atom_site_fract_z
 _atom_site_occupancy
  La3+  La0  1  0.24567915  0.37325138  0.55833499  1
  La3+  La1  1  0.50081726  0.11966723  0.56691136  1
  La3+  La2  1  0.37103240  0.50175345  0.93059300  1
  La3+  La3  1  0.36675082  0.50568999  0.41937312  1
  La3+  La4  1  0.00037885  0.87702439  0.07699552  1
  La3+  La5  1  0.62181450  0.00245040  0.92629893  1
  La3+  La6  1  0.49378646  0.62893061  0.05820786  1
  La3+  La7  1  0.62395656  0.75614030  0.91616673  1
  La3+  La8  1  0.24773861  0.11976010  0.07053406  1
  La3+  La9  1  0.26710187  0.84553973  0.12216424  1
  La3+  La10  1  0.86975803  0.49571053  0.92248800  1
  La3+  La11  1  0.75197984  0.61029751  0.59230025  1
  La3+  La12  1  0.50202605  0.37756178  0.56080741  1
  La3+  La13  1  0.61967187  0.49379441  0.42044255  1
  La3+  La14  1  0.49735341  0.12274548  0.06151821  1
  La3+  La15  1  0.88159738  0.23920927  0.90582568  1
  La3+  La16  1  0.24037270  0.87074560  0.57182176  1
  La3+  La17  1  0.87526459  0.24633837  0.39134203  1
  Ce3+  Ce18  1  0.37368293  -0.00582176  0.44505459  1
  Ce3+  Ce19  1  0.37345146  0.25106776  0.93116396  1
  Ce3+  Ce20  1  0.12587197  0.75151454  0.94732179  1
  Ce3+  Ce21  1  0.86754570  0.74440656  0.43272708  1
  Ce3+  Ce22  1  0.62217195  0.74249791  0.45246160  1
  Ce3+  Ce23  1  0.37404943  0.24619305  0.44589561  1
  Ce3+  Ce24  1  -0.00617498  0.12417182  0.55595477  1
  Ce3+  Ce25  1  0.62250285  0.24276192  0.43130865  1
  Ce3+  Ce26  1  0.12142203  0.50017721  0.94199503  1
  Ce3+  Ce27  1  0.74844043  0.38372602  0.06327480  1
  Ce3+  Ce28  1  0.49849732  0.37684732  0.05257407  1
  Ce3+  Ce29  1  -0.00286771  0.86947089  0.55401882  1
  Ce3+  Ce30  1  0.87074225  -0.00228174  0.43731766  1
  Ce3+  Ce31  1  0.87639946  0.74817513  0.92708087  1
  Ce3+  Ce32  1  0.36873458  -0.00181862  0.93869826  1
  Ce3+  Ce33  1  0.24884648  0.37145242  0.05765759  1
  Ce3+  Ce34  1  0.11841855  0.24725925  0.43727711  1
  Ce3+  Ce35  1  0.74553316  0.87074960  0.05755973  1
  Ce3+  Ce36  1  -0.00741248  0.62242373  0.55490619  1
  Ce3+  Ce37  1  0.74810576  0.37505078  0.54679876  1
  Pr3+  Pr38  1  0.35777353  0.75757164  0.89430334  1
  Pr3+  Pr39  1  0.62444362  -0.00237662  0.43364700  1
  Pr3+  Pr40  1  0.49019966  0.61696839  0.57320566  1
  Pr3+  Pr41  1  0.24312436  0.61942788  0.06829501  1
  Pr3+  Pr42  1  -0.00260159  0.62440856  0.06497909  1
  Pr3+  Pr43  1  0.74866060  0.12233666  0.55398343  1
  Pr3+  Pr44  1  0.12205031  0.50026082  0.43454814  1
  Pr3+  Pr45  1  0.62163941  0.50835494  0.92843066  1
  Pr3+  Pr46  1  0.12652229  0.74918536  0.43520569  1
  Pr3+  Pr47  1  -0.00772109  0.37555260  0.55626383  1
  Pr3+  Pr48  1  0.24799506  0.62177088  0.55912321  1
  Pr3+  Pr49  1  0.50128843  0.87223521  0.05543309  1
  Nd3+  Nd50  1  0.74721606  0.86983894  0.56640951  1
  Nd3+  Nd51  1  0.62956180  0.25162104  0.93775231  1
  Nd3+  Nd52  1  -0.00725635  0.12853229  0.06903552  1
  Nd3+  Nd53  1  0.38551217  0.75674310  0.42773341  1
  Nd3+  Nd54  1  0.24541399  0.12239913  0.55503064  1
  Nd3+  Nd55  1  0.12193521  0.24563208  0.94246364  1
  Nd3+  Nd56  1  0.74673556  0.12757268  0.06106585  1
  Nd3+  Nd57  1  0.49805099  0.86606009  0.56937252  1
  Sm3+  Sm58  1  -0.00552677  0.37072216  0.05689982  1
  Sm3+  Sm59  1  0.87241877  0.50408944  0.42758802  1
  Sm3+  Sm60  1  0.87507173  -0.00272945  0.94593371  1
  Sm3+  Sm61  1  0.75048122  0.62396367  0.05212456  1
  Sm3+  Sm62  1  0.12312367  -0.00382891  0.95023229  1
  Sm3+  Sm63  1  0.12214759  -0.00316255  0.44095086  1
  Bi2+  Bi64  1  0.01527611  0.11144128  0.28297745  1
  Bi2+  Bi65  1  0.00653403  0.09927501  0.79097345  1
  Bi2+  Bi66  1  0.02008672  0.37960514  0.28029655  1
  Bi2+  Bi67  1  0.03911199  0.36365147  0.78606626  1
  Bi2+  Bi68  1  0.04571759  0.56963414  0.30718304  1
  Bi2+  Bi69  1  -0.00134738  0.62761228  0.76863815  1
  Bi2+  Bi70  1  -0.08297442  0.83699272  0.28598992  1
  Bi2+  Bi71  1  0.01417600  0.83977008  0.82595149  1
  Bi2+  Bi72  1  0.23353375  0.15207423  0.27880733  1
  Bi2+  Bi73  1  0.31685973  0.13327275  0.82247726  1
  Bi2+  Bi74  1  0.21940189  0.35110693  0.27984920  1
  Bi2+  Bi75  1  0.25838185  0.30756397  0.78833677  1
  Bi2+  Bi76  1  0.24356063  0.66043262  0.28710624  1
  Bi2+  Bi77  1  0.21255196  0.59908022  0.78357651  1
  Bi2+  Bi78  1  0.25502992  0.92031434  0.30604575  1
  Bi2+  Bi79  1  0.19734633  0.87287804  0.78672440  1
  Bi2+  Bi80  1  0.42590167  0.14109241  0.29957575  1
  Bi2+  Bi81  1  0.51146691  0.14521186  0.83812009  1
  Bi2+  Bi82  1  0.41421327  0.39342673  0.26770876  1
  Bi2+  Bi83  1  0.52477574  0.35367901  0.80099477  1
  Bi2+  Bi84  1  0.52717873  0.62440359  0.29710110  1
  Bi2+  Bi85  1  0.48269478  0.60772409  0.77532216  1
  Bi2+  Bi86  1  0.56674457  0.89952518  0.30211658  1
  Bi2+  Bi87  1  0.48312577  0.95251102  0.79328058  1
  Bi2+  Bi88  1  0.73037974  0.05227696  0.29895147  1
  Bi2+  Bi89  1  0.69068118  0.10071301  0.79778206  1
  Bi2+  Bi90  1  0.75088395  0.40674551  0.28246960  1
  Bi2+  Bi91  1  0.77341783  0.35867919  0.77872589  1
  Bi2+  Bi92  1  0.78659983  0.65809416  0.27485082  1
  Bi2+  Bi93  1  0.75486345  0.62018973  0.79750949  1
  Bi2+  Bi94  1  0.75115715  0.87316411  0.34619380  1
  Bi2+  Bi95  1  0.83726413  0.91614154  0.80349475  1
  Bi2+  Bi96  1  0.11621101  -0.00558079  0.21128486  1
  Bi2+  Bi97  1  0.10339785  0.00344230  0.70682328  1
  Bi2+  Bi98  1  0.09747700  0.20215040  0.18659123  1
  Bi2+  Bi99  1  0.13643215  0.20688511  0.71980675  1
  Bi2+  Bi100  1  0.13188065  0.48836086  0.21230605  1
  Bi2+  Bi101  1  0.10379686  0.49305550  0.70388178  1
  Bi2+  Bi102  1  0.03264386  0.71997742  0.22002221  1
  Bi2+  Bi103  1  0.13134529  0.73589119  0.70975373  1
  Bi2+  Bi104  1  0.41356026  0.03036431  0.20727030  1
  Bi2+  Bi105  1  0.33482419  0.05358004  0.71778733  1
  Bi2+  Bi106  1  0.28171471  0.25694739  0.18152199  1
  Bi2+  Bi107  1  0.42182997  0.24725239  0.72633969  1
  Bi2+  Bi108  1  0.39961233  0.53090265  0.18592751  1
  Bi2+  Bi109  1  0.34850573  0.49003987  0.70675334  1
  Bi2+  Bi110  1  0.43637501  0.75680837  0.21409288  1
  Bi2+  Bi111  1  0.38474705  0.77366371  0.69849562  1
  Bi2+  Bi112  1  0.61447417  0.01112568  0.20736231  1
  Bi2+  Bi113  1  0.62489757  0.01772769  0.70118603  1
  Bi2+  Bi114  1  0.56182521  0.27067151  0.26853815  1
  Bi2+  Bi115  1  0.62359717  0.26348844  0.71118167  1
  Bi2+  Bi116  1  0.63848942  0.45323388  0.19878730  1
  Bi2+  Bi117  1  0.61182943  0.45622336  0.71621620  1
  Bi2+  Bi118  1  0.67294416  0.79803025  0.22652086  1
  Bi2+  Bi119  1  0.62983419  0.77906690  0.71746924  1
  Bi2+  Bi120  1  0.85973999  -0.02741377  0.21220249  1
  Bi2+  Bi121  1  0.90316333  0.00236894  0.70453102  1
  Bi2+  Bi122  1  0.85296723  0.23219898  0.19989566  1
  Bi2+  Bi123  1  0.83167140  0.18497718  0.73033712  1
  Bi2+  Bi124  1  0.89288483  0.59138167  0.18692946  1
  Bi2+  Bi125  1  0.87579034  0.48347075  0.70034849  1
  Bi2+  Bi126  1  0.85296615  0.78571020  0.16745856  1
  Bi2+  Bi127  1  0.93441411  0.80259252  0.72313617  1
  S2-  S128  1  -0.01671122  0.01809177  0.14833853  1
  S2-  S129  1  0.01615214  0.13203714  0.65294503  1
  S2-  S130  1  -0.01324051  0.32376709  0.15339228  1
  S2-  S131  1  -0.00774076  0.38089353  0.65843840  1
  S2-  S132  1  0.10572563  0.61710843  0.14591109  1
  S2-  S133  1  -0.08715697  0.61017949  0.64048969  1
  S2-  S134  1  0.10327178  0.84913635  0.16138643  1
  S2-  S135  1  0.09162218  0.86739779  0.63793445  1
  S2-  S136  1  0.26150958  0.01826504  0.15479670  1
  S2-  S137  1  0.25490633  0.15491623  0.65278192  1
  S2-  S138  1  0.26191154  0.43520887  0.14795947  1
  S2-  S139  1  0.23941552  0.40372493  0.65776125  1
  S2-  S140  1  0.31317275  0.66843483  0.15849555  1
  S2-  S141  1  0.32273669  0.62794803  0.65052724  1
  S2-  S142  1  0.28433627  0.81904763  0.23146653  1
  S2-  S143  1  0.30608525  0.90148678  0.66380045  1
  S2-  S144  1  0.52569055  0.13622700  0.16114810  1
  S2-  S145  1  0.48359446  0.10617730  0.66711963  1
  S2-  S146  1  0.50514070  0.39305457  0.15049804  1
  S2-  S147  1  0.48995899  0.47538991  0.64378328  1
  S2-  S148  1  0.52994339  0.63236796  0.15972399  1
  S2-  S149  1  0.52680365  0.68457996  0.66832053  1
  S2-  S150  1  0.43473879  0.88122328  0.15096210  1
  S2-  S151  1  0.51376642  0.88727811  0.66934776  1
  S2-  S152  1  0.77082998  0.10060019  0.16059918  1
  S2-  S153  1  0.71810833  0.14142371  0.65293052  1
  S2-  S154  1  0.73388178  0.31862220  0.15741571  1
  S2-  S155  1  0.74137818  0.44471610  0.63845541  1
  S2-  S156  1  0.75224391  0.52754432  0.13559294  1
  S2-  S157  1  0.72906481  0.66166157  0.69381989  1
  S2-  S158  1  0.64213750  0.87972615  0.13585284  1
  S2-  S159  1  0.72842550  0.89258174  0.66472054  1
  S2-  S160  1  0.11387609  0.00622688  0.34271493  1
  S2-  S161  1  0.10888930  -0.01343661  0.84982211  1
  S2-  S162  1  0.03868494  0.24635401  0.34926888  1
  S2-  S163  1  0.04229758  0.23120876  0.85369580  1
  S2-  S164  1  0.21381219  0.52222329  0.34899977  1
  S2-  S165  1  0.13473789  0.47847580  0.84396250  1
  S2-  S166  1  0.16603600  0.77707053  0.33814821  1
  S2-  S167  1  0.19399843  0.74045285  0.85463975  1
  S2-  S168  1  0.38434218  -0.09920428  0.36235360  1
  S2-  S169  1  0.34602726  -0.07737635  0.84938875  1
  S2-  S170  1  0.37957087  0.28678185  0.35208124  1
  S2-  S171  1  0.37242629  0.37123078  0.85596237  1
  S2-  S172  1  0.48492117  0.49144776  0.34638842  1
  S2-  S173  1  0.35537353  0.59570522  0.84498977  1
  S2-  S174  1  0.37179552  0.65885958  0.34447265  1
  S2-  S175  1  0.43669684  0.76132787  0.79677708  1
  S2-  S176  1  0.61488316  0.11862583  0.35856388  1
  S2-  S177  1  0.60507747  -0.10404838  0.84449663  1
  S2-  S178  1  0.62593743  0.34122434  0.34901147  1
  S2-  S179  1  0.72730744  0.24494384  0.85373978  1
  S2-  S180  1  0.67882734  0.55763245  0.32709321  1
  S2-  S181  1  0.72913147  0.48191623  0.84814046  1
  S2-  S182  1  0.55248450  0.75275715  0.36264585  1
  S2-  S183  1  0.59813528  0.62878770  0.84377142  1
  S2-  S184  1  0.88547457  0.07760883  0.35017253  1
  S2-  S185  1  0.87552641  0.07345914  0.85702180  1
  S2-  S186  1  0.80271516  0.24553943  0.29146985  1
  S2-  S187  1  0.90766123  0.38347931  0.84235787  1
  S2-  S188  1  0.88096142  0.40899249  0.34448276  1
  S2-  S189  1  0.90389922  0.62286842  0.85234414  1
  S2-  S190  1  0.89288535  0.63293155  0.35510068  1
  S2-  S191  1  0.76750941  0.76849973  0.84740253  1
  S2-  S192  1  -0.00198319  0.12101787  0.45230788  1
  S2-  S193  1  -0.00216398  0.12180149  0.96226432  1
  S2-  S194  1  -0.00283274  0.37475796  0.44985361  1
  S2-  S195  1  -0.00081956  0.37067670  0.95374891  1
  S2-  S196  1  0.00054195  0.62541918  0.45209807  1
  S2-  S197  1  0.00297524  0.62545888  0.95784460  1
  S2-  S198  1  -0.00312773  0.87201276  0.44632478  1
  S2-  S199  1  -0.00270360  0.87542832  0.96152874  1
  S2-  S200  1  0.24634695  0.12065774  0.44779397  1
  S2-  S201  1  0.24570304  0.12352604  0.95779214  1
  S2-  S202  1  0.24519961  0.37109253  0.44963748  1
  S2-  S203  1  0.24324412  0.37180316  0.95300290  1
  S2-  S204  1  0.25019802  0.62963181  0.45359106  1
  S2-  S205  1  0.24524354  0.62367830  0.95898092  1
  S2-  S206  1  0.24578063  0.87460204  0.45990275  1
  S2-  S207  1  0.24537015  0.87573437  0.95196431  1
  S2-  S208  1  0.49492723  0.12015695  0.45882806  1
  S2-  S209  1  0.49705289  0.12711127  0.95306348  1
  S2-  S210  1  0.49609824  0.37025540  0.45454819  1
  S2-  S211  1  0.50453010  0.37477556  0.94878693  1
  S2-  S212  1  0.49551276  0.62220094  0.45960792  1
  S2-  S213  1  0.49179272  0.63101081  0.94942160  1
  S2-  S214  1  0.50433813  0.87639645  0.46410754  1
  S2-  S215  1  0.49059378  0.87189578  0.94792313  1
  S2-  S216  1  0.75487093  0.12704805  0.44955457  1
  S2-  S217  1  0.75043394  0.12193827  0.95527925  1
  S2-  S218  1  0.75489464  0.36902217  0.44432266  1
  S2-  S219  1  0.74991314  0.37326861  0.95597438  1
  S2-  S220  1  0.74626675  0.62242881  0.44921069  1
  S2-  S221  1  0.75022201  0.62690748  0.95039165  1
  S2-  S222  1  0.74614688  0.87199280  0.46020620  1
  S2-  S223  1  0.75022988  0.87886220  0.95204858  1
  S2-  S224  1  0.11907588  0.00343840  0.05156349  1
  S2-  S225  1  0.12007639  0.00127029  0.54475619  1
  S2-  S226  1  0.12145229  0.24790264  0.04827849  1
  S2-  S227  1  0.11992696  0.24817529  0.54521523  1
  S2-  S228  1  0.11883909  0.49115532  0.04684346  1
  S2-  S229  1  0.11986763  0.49982630  0.54372892  1
  S2-  S230  1  0.12635322  0.75228834  0.05173529  1
  S2-  S231  1  0.11999212  0.74216459  0.54242280  1
  S2-  S232  1  0.37493223  -0.00078385  0.04465785  1
  S2-  S233  1  0.37175266  -0.00334757  0.55149974  1
  S2-  S234  1  0.37294321  0.24899828  0.04341511  1
  S2-  S235  1  0.37391772  0.24789939  0.55342631  1
  S2-  S236  1  0.37202981  0.49787028  0.04100585  1
  S2-  S237  1  0.36839951  0.49606634  0.53712702  1
  S2-  S238  1  0.37016527  0.75167082  0.05320672  1
  S2-  S239  1  0.37257593  0.75025236  0.54637750  1
  S2-  S240  1  0.62283890  0.00378764  0.03669910  1
  S2-  S241  1  0.62391481  -0.00626423  0.54686634  1
  S2-  S242  1  0.62304593  0.25114590  0.04491284  1
  S2-  S243  1  0.62351842  0.24792578  0.54427795  1
  S2-  S244  1  0.62127331  0.50355898  0.03756354  1
  S2-  S245  1  0.62511095  0.50251364  0.53967440  1
  S2-  S246  1  0.62756241  0.74451090  0.03589743  1
  S2-  S247  1  0.62656309  0.74183154  0.55839244  1
  S2-  S248  1  0.86751805  -0.00124795  0.04868065  1
  S2-  S249  1  0.87227588  -0.00572924  0.54733348  1
  S2-  S250  1  0.87011589  0.25003562  0.05030771  1
  S2-  S251  1  0.87021568  0.24934279  0.55641034  1
  S2-  S252  1  0.87918198  0.49831672  0.03875692  1
  S2-  S253  1  0.87056557  0.49950286  0.53448223  1
  S2-  S254  1  0.87332070  0.74799881  0.04134658  1
  S2-  S255  1  0.86853619  0.74730565  0.54389054  1
