# generated using pymatgen
data_La9Ce10Pr6Nd4Sm3(BiS2)32
_symmetry_space_group_name_H-M   'P 1'
_cell_length_a   16.22742484
_cell_length_b   16.25662996
_cell_length_c   27.02581992
_cell_angle_alpha   89.65566913
_cell_angle_beta   89.67490809
_cell_angle_gamma   90.00781340
_symmetry_Int_Tables_number   1
_chemical_formula_structural   La9Ce10Pr6Nd4Sm3(BiS2)32
_chemical_formula_sum   'La18 Ce20 Pr12 Nd8 Sm6 Bi64 S128'
_cell_volume   7129.25527546
_cell_formula_units_Z   2
loop_
 _symmetry_equiv_pos_site_id
 _symmetry_equiv_pos_as_xyz
  1  'x, y, z'
loop_
 _atom_type_symbol
 _atom_type_oxidation_number
  La3+  3.0
  Ce3+  3.0
  Pr3+  3.0
  Nd3+  3.0
  Sm3+  3.0
  Bi2+  2.0
  S2-  -2.0
loop_
 _atom_site_type_symbol
 _atom_site_label
 _atom_site_symmetry_multiplicity
 _atom_site_fract_x
 _atom_site_fract_y
 _atom_site_fract_z
 _atom_site_occupancy
  La3+  La0  1  0.48498417  0.37782243  0.07385862  1
  La3+  La1  1  0.25574027  0.10727436  0.57593351  1
  La3+  La2  1  0.48556361  0.87915323  0.07917189  1
  La3+  La3  1  0.86691086  0.50296025  0.93835464  1
  La3+  La4  1  0.38575674  0.48917296  0.42281530  1
  La3+  La5  1  0.36880359  0.00113756  0.92953583  1
  La3+  La6  1  0.50662556  0.61377753  0.55548468  1
  La3+  La7  1  0.37546708  0.50991720  0.92154306  1
  La3+  La8  1  0.11853650  0.50352117  0.93342624  1
  La3+  La9  1  0.63007819  0.23725344  0.44140164  1
  La3+  La10  1  0.86466078  0.01300902  0.92707698  1
  La3+  La11  1  0.37550528  -0.01322318  0.43433516  1
  La3+  La12  1  0.24049800  0.38044980  0.06441900  1
  La3+  La13  1  0.63812421  0.74079720  0.41459006  1
  La3+  La14  1  0.62665735  -0.01052240  0.43172040  1
  La3+  La15  1  0.63518158  0.48478513  0.42531095  1
  La3+  La16  1  0.37833592  0.23495225  0.44395715  1
  La3+  La17  1  -0.00786023  0.12698377  0.06869822  1
  Ce3+  Ce18  1  0.74258528  0.87786652  0.05937905  1
  Ce3+  Ce19  1  -0.00843016  0.62867757  0.05963886  1
  Ce3+  Ce20  1  0.00571395  0.10890696  0.55680021  1
  Ce3+  Ce21  1  0.25516992  0.61160950  0.54918058  1
  Ce3+  Ce22  1  0.75586311  0.10167514  0.57217748  1
  Ce3+  Ce23  1  0.24208329  0.62743705  0.05772690  1
  Ce3+  Ce24  1  0.74223980  0.37765555  0.05959072  1
  Ce3+  Ce25  1  0.11807938  0.25422459  0.93782905  1
  Ce3+  Ce26  1  0.61658237  0.75655605  0.95090627  1
  Ce3+  Ce27  1  0.50693837  0.86406590  0.55849351  1
  Ce3+  Ce28  1  0.75421558  0.36479620  0.56865136  1
  Ce3+  Ce29  1  0.74252691  0.62596962  0.05917051  1
  Ce3+  Ce30  1  0.12907505  0.48649502  0.44474669  1
  Ce3+  Ce31  1  -0.00993494  0.88256270  0.06773987  1
  Ce3+  Ce32  1  0.48885034  0.62459798  0.06768974  1
  Ce3+  Ce33  1  0.25493665  0.86329249  0.56390254  1
  Ce3+  Ce34  1  0.74190416  0.12870370  0.05890422  1
  Ce3+  Ce35  1  0.12635236  0.73742463  0.44466627  1
  Ce3+  Ce36  1  0.37072246  0.75130993  0.94173063  1
  Ce3+  Ce37  1  0.25732880  0.36271789  0.56188575  1
  Pr3+  Pr38  1  0.61174421  0.25426803  0.93976173  1
  Pr3+  Pr39  1  0.12976786  0.24021299  0.44289987  1
  Pr3+  Pr40  1  0.86895631  0.25576527  0.93793776  1
  Pr3+  Pr41  1  0.61705671  0.50415349  0.94257958  1
  Pr3+  Pr42  1  0.11720708  0.00295324  0.93622095  1
  Pr3+  Pr43  1  0.24085188  0.87626749  0.06476846  1
  Pr3+  Pr44  1  0.75406798  0.85698747  0.56001361  1
  Pr3+  Pr45  1  0.86717327  0.75828094  0.94103125  1
  Pr3+  Pr46  1  0.00145592  0.60618736  0.57128167  1
  Pr3+  Pr47  1  0.51397911  0.10844174  0.57882933  1
  Pr3+  Pr48  1  0.00234860  0.36114272  0.57080238  1
  Pr3+  Pr49  1  0.12895920  -0.02098915  0.42550257  1
  Nd3+  Nd50  1  0.50421413  0.36481536  0.56362970  1
  Nd3+  Nd51  1  0.88073856  0.73325422  0.43595209  1
  Nd3+  Nd52  1  0.11492298  0.75684835  0.94008302  1
  Nd3+  Nd53  1  0.75385805  0.61047606  0.56349850  1
  Nd3+  Nd54  1  0.48893630  0.12898901  0.05863220  1
  Nd3+  Nd55  1  0.87915142  0.47796943  0.43206063  1
  Nd3+  Nd56  1  0.24203521  0.12959706  0.05170446  1
  Nd3+  Nd57  1  0.00278059  0.86020631  0.56333811  1
  Sm3+  Sm58  1  0.88237562  -0.01062636  0.43628336  1
  Sm3+  Sm59  1  0.38105396  0.73881448  0.44163614  1
  Sm3+  Sm60  1  -0.00265332  0.38011189  0.07673423  1
  Sm3+  Sm61  1  0.61375509  0.00379710  0.95078983  1
  Sm3+  Sm62  1  0.36608756  0.25910323  0.93492814  1
  Sm3+  Sm63  1  0.87899922  0.23701316  0.44843453  1
  Bi2+  Bi64  1  0.00217833  0.11368600  0.28711931  1
  Bi2+  Bi65  1  -0.02270611  0.16342101  0.77940718  1
  Bi2+  Bi66  1  -0.00333376  0.36919025  0.29165718  1
  Bi2+  Bi67  1  -0.09528928  0.33975640  0.80906544  1
  Bi2+  Bi68  1  0.00150051  0.64681871  0.31306489  1
  Bi2+  Bi69  1  0.00930318  0.63272281  0.79549315  1
  Bi2+  Bi70  1  -0.00511827  0.84656395  0.29641967  1
  Bi2+  Bi71  1  0.01431858  0.85335455  0.79938592  1
  Bi2+  Bi72  1  0.27230101  0.07299254  0.25652581  1
  Bi2+  Bi73  1  0.16964362  0.12874857  0.77223860  1
  Bi2+  Bi74  1  0.21774066  0.32940549  0.29649657  1
  Bi2+  Bi75  1  0.19492215  0.39556408  0.77686078  1
  Bi2+  Bi76  1  0.18345852  0.65985105  0.26740864  1
  Bi2+  Bi77  1  0.32969863  0.63021093  0.76041011  1
  Bi2+  Bi78  1  0.25582808  0.88043760  0.29075706  1
  Bi2+  Bi79  1  0.29063295  0.89315905  0.79894094  1
  Bi2+  Bi80  1  0.53405078  0.14097437  0.29712643  1
  Bi2+  Bi81  1  0.51863483  0.12678415  0.80124793  1
  Bi2+  Bi82  1  0.47855792  0.37665686  0.29997232  1
  Bi2+  Bi83  1  0.46800976  0.36343897  0.79923312  1
  Bi2+  Bi84  1  0.43493752  0.63970154  0.29385589  1
  Bi2+  Bi85  1  0.51904708  0.62929370  0.79643103  1
  Bi2+  Bi86  1  0.51360100  0.87202442  0.29607210  1
  Bi2+  Bi87  1  0.48205968  0.84204694  0.78462285  1
  Bi2+  Bi88  1  0.81385304  0.11914143  0.32414769  1
  Bi2+  Bi89  1  0.75198912  0.00454016  0.79178613  1
  Bi2+  Bi90  1  0.74997436  0.36343212  0.29586869  1
  Bi2+  Bi91  1  0.74373264  0.44678762  0.81097184  1
  Bi2+  Bi92  1  0.82353689  0.60421123  0.27436294  1
  Bi2+  Bi93  1  0.71631159  0.62177340  0.76800072  1
  Bi2+  Bi94  1  0.79750950  0.85956975  0.29068179  1
  Bi2+  Bi95  1  0.74694771  0.80936146  0.79550583  1
  Bi2+  Bi96  1  0.12431057  -0.03624901  0.21607533  1
  Bi2+  Bi97  1  0.10098234  -0.01475033  0.70547689  1
  Bi2+  Bi98  1  0.11786941  0.25354805  0.20834595  1
  Bi2+  Bi99  1  0.01610416  0.32775954  0.71048198  1
  Bi2+  Bi100  1  0.10282235  0.50644355  0.22005132  1
  Bi2+  Bi101  1  0.14806869  0.58788826  0.72200175  1
  Bi2+  Bi102  1  0.11529946  0.78778773  0.16821961  1
  Bi2+  Bi103  1  0.17364348  0.78252975  0.73109004  1
  Bi2+  Bi104  1  0.43704389  -0.01204981  0.21285386  1
  Bi2+  Bi105  1  0.37726603  0.00826510  0.70558270  1
  Bi2+  Bi106  1  0.36611465  0.22344701  0.20610488  1
  Bi2+  Bi107  1  0.34465921  0.26183312  0.71106056  1
  Bi2+  Bi108  1  0.39840450  0.49420200  0.19888543  1
  Bi2+  Bi109  1  0.38876598  0.49020675  0.68428242  1
  Bi2+  Bi110  1  0.30240516  0.74429624  0.19283948  1
  Bi2+  Bi111  1  0.36572972  0.79574594  0.69198922  1
  Bi2+  Bi112  1  0.68297624  0.03454875  0.25266072  1
  Bi2+  Bi113  1  0.62189177  -0.07249238  0.71752875  1
  Bi2+  Bi114  1  0.66730461  0.22391159  0.22844227  1
  Bi2+  Bi115  1  0.68520092  0.19814721  0.73853443  1
  Bi2+  Bi116  1  0.63842738  0.51352351  0.19878784  1
  Bi2+  Bi117  1  0.62881065  0.46550256  0.71461190  1
  Bi2+  Bi118  1  0.68008589  0.77749665  0.20891185  1
  Bi2+  Bi119  1  0.56063049  0.75236616  0.67936037  1
  Bi2+  Bi120  1  0.86841390  -0.00482305  0.21390218  1
  Bi2+  Bi121  1  0.84935017  0.09517080  0.69848120  1
  Bi2+  Bi122  1  0.87090688  0.21921323  0.22414323  1
  Bi2+  Bi123  1  0.82819107  0.29807656  0.69198163  1
  Bi2+  Bi124  1  0.88932177  0.45386456  0.21191823  1
  Bi2+  Bi125  1  0.87909703  0.54458894  0.70489441  1
  Bi2+  Bi126  1  0.94166159  0.72900370  0.20949760  1
  Bi2+  Bi127  1  0.84098764  0.81136854  0.69288347  1
  S2-  S128  1  -0.01411799  0.24447535  0.14555885  1
  S2-  S129  1  0.01258765  0.10405723  0.65494023  1
  S2-  S130  1  0.12875394  0.38711907  0.14552223  1
  S2-  S131  1  0.00259912  0.47654402  0.64722676  1
  S2-  S132  1  -0.00479493  0.55419418  0.14828102  1
  S2-  S133  1  -0.06215509  0.67609193  0.66112996  1
  S2-  S134  1  -0.00643275  1.00105948  0.14225597  1
  S2-  S135  1  -0.00340455  0.88179580  0.66420425  1
  S2-  S136  1  0.23257240  0.15298765  0.15109807  1
  S2-  S137  1  0.22860902  0.17506207  0.67243899  1
  S2-  S138  1  0.34858966  0.36109908  0.14474608  1
  S2-  S139  1  0.25747961  0.38577979  0.66082031  1
  S2-  S140  1  0.28281611  0.58002455  0.14938133  1
  S2-  S141  1  0.26871034  0.60368692  0.64676270  1
  S2-  S142  1  0.34572579  0.89712140  0.14566990  1
  S2-  S143  1  0.24471592  0.96794768  0.64268078  1
  S2-  S144  1  0.48223188  0.13828590  0.15895401  1
  S2-  S145  1  0.44173550  0.14827953  0.67510457  1
  S2-  S146  1  0.53950714  0.39598157  0.17371338  1
  S2-  S147  1  0.50702079  0.36747424  0.66593999  1
  S2-  S148  1  0.51110926  0.61771529  0.16725283  1
  S2-  S149  1  0.52687429  0.58859063  0.65563474  1
  S2-  S150  1  0.55816152  0.86576654  0.17526993  1
  S2-  S151  1  0.50917098  0.96094767  0.64190328  1
  S2-  S152  1  0.76208572  0.12719127  0.15627256  1
  S2-  S153  1  0.64960738  0.13708678  0.64811892  1
  S2-  S154  1  0.75390474  0.40402689  0.15672126  1
  S2-  S155  1  0.74813358  0.48687474  0.64054372  1
  S2-  S156  1  0.74447510  0.63582522  0.15749638  1
  S2-  S157  1  0.72684991  0.73306932  0.63740409  1
  S2-  S158  1  0.78593957  0.87304094  0.15381902  1
  S2-  S159  1  0.77419419  0.96085376  0.64313422  1
  S2-  S160  1  0.25980591  0.00884961  0.35673558  1
  S2-  S161  1  0.14656755  -0.00514598  0.83553016  1
  S2-  S162  1  0.13294641  0.21100929  0.34180237  1
  S2-  S163  1  0.14693622  0.25991176  0.83951953  1
  S2-  S164  1  0.11864083  0.44317609  0.35034236  1
  S2-  S165  1  0.12544504  0.51272933  0.83177018  1
  S2-  S166  1  0.13721256  0.82626199  0.36004763  1
  S2-  S167  1  0.12948889  0.74211526  0.84077407  1
  S2-  S168  1  0.49082010  0.00958560  0.35687677  1
  S2-  S169  1  0.38383659  0.02560145  0.82876772  1
  S2-  S170  1  0.40790088  0.23258504  0.34252311  1
  S2-  S171  1  0.39301565  0.23337526  0.83649159  1
  S2-  S172  1  0.33417108  0.45088222  0.32535200  1
  S2-  S173  1  0.32465750  0.42885344  0.83305789  1
  S2-  S174  1  0.38014903  0.77755185  0.34392460  1
  S2-  S175  1  0.37204624  0.65769869  0.85881063  1
  S2-  S176  1  0.65114155  -0.11267491  0.34994738  1
  S2-  S177  1  0.60658908  0.01575841  0.85233461  1
  S2-  S178  1  0.62380278  0.33383077  0.35566834  1
  S2-  S179  1  0.61212314  0.25784074  0.83699164  1
  S2-  S180  1  0.51744390  0.51253230  0.34613443  1
  S2-  S181  1  0.52456058  0.49200019  0.85777795  1
  S2-  S182  1  0.57091162  0.71073700  0.31342805  1
  S2-  S183  1  0.59639655  0.76301348  0.85356870  1
  S2-  S184  1  0.99596033  -0.00940829  0.35787011  1
  S2-  S185  1  0.91178513  -0.04529445  0.83489882  1
  S2-  S186  1  0.88670288  0.33457995  0.36577860  1
  S2-  S187  1  0.86223672  0.15943131  0.85462830  1
  S2-  S188  1  0.76587120  0.50226377  0.35319216  1
  S2-  S189  1  0.90996303  0.51154724  0.83991353  1
  S2-  S190  1  0.78710576  0.72057214  0.35115033  1
  S2-  S191  1  0.89596895  0.73999063  0.84111273  1
  S2-  S192  1  0.00324073  0.11747142  0.45209972  1
  S2-  S193  1  -0.00326910  0.12885649  0.95484316  1
  S2-  S194  1  0.00580035  0.36124311  0.46335198  1
  S2-  S195  1  -0.00582491  0.37799172  0.95403212  1
  S2-  S196  1  0.00332023  0.60816582  0.45687902  1
  S2-  S197  1  -0.00787744  0.63109933  0.95171495  1
  S2-  S198  1  -0.00014576  0.85840927  0.45696039  1
  S2-  S199  1  -0.00817732  0.88150518  0.95642357  1
  S2-  S200  1  0.25076271  0.11442170  0.46252989  1
  S2-  S201  1  0.24564939  0.12960042  0.94383653  1
  S2-  S202  1  0.25621228  0.36370589  0.45314376  1
  S2-  S203  1  0.24417010  0.37824555  0.95176188  1
  S2-  S204  1  0.25524591  0.61436991  0.44101221  1
  S2-  S205  1  0.23825448  0.63147916  0.95152142  1
  S2-  S206  1  0.25525456  0.85639187  0.45928804  1
  S2-  S207  1  0.24327942  0.87670195  0.95324930  1
  S2-  S208  1  0.50571105  0.11591536  0.46426637  1
  S2-  S209  1  0.48953019  0.12867993  0.95191000  1
  S2-  S210  1  0.50129725  0.36244254  0.45617244  1
  S2-  S211  1  0.48899079  0.37569349  0.95952095  1
  S2-  S212  1  0.50581268  0.61960841  0.44712813  1
  S2-  S213  1  0.49725525  0.63167590  0.96097224  1
  S2-  S214  1  0.50361946  0.85829578  0.45174195  1
  S2-  S215  1  0.49161590  0.88015597  0.96020793  1
  S2-  S216  1  0.75792513  0.11200330  0.45811158  1
  S2-  S217  1  0.73386417  0.12987963  0.95353735  1
  S2-  S218  1  0.75637085  0.35872852  0.46284812  1
  S2-  S219  1  0.73978590  0.37611412  0.95133678  1
  S2-  S220  1  0.75716276  0.61049302  0.45739003  1
  S2-  S221  1  0.74227590  0.63023086  0.94962729  1
  S2-  S222  1  0.76515006  0.86562287  0.45217900  1
  S2-  S223  1  0.74053696  0.88339269  0.95077658  1
  S2-  S224  1  0.12227295  0.00204106  0.04388220  1
  S2-  S225  1  0.12468440  -0.01723721  0.54043266  1
  S2-  S226  1  0.11645693  0.25346930  0.04314984  1
  S2-  S227  1  0.12896268  0.23917375  0.55261960  1
  S2-  S228  1  0.11406241  0.50534060  0.04179168  1
  S2-  S229  1  0.13303119  0.48653556  0.54973287  1
  S2-  S230  1  0.11548976  0.75326353  0.04645507  1
  S2-  S231  1  0.12744993  0.73481125  0.55450735  1
  S2-  S232  1  0.36604855  0.00691596  0.04065673  1
  S2-  S233  1  0.38007526  -0.01556290  0.54349023  1
  S2-  S234  1  0.36635245  0.25040264  0.04067352  1
  S2-  S235  1  0.38143617  0.23720792  0.55414134  1
  S2-  S236  1  0.36719513  0.50594277  0.03845061  1
  S2-  S237  1  0.37965130  0.48796035  0.53869990  1
  S2-  S238  1  0.36749456  0.75092701  0.04838074  1
  S2-  S239  1  0.37867390  0.73826749  0.54744198  1
  S2-  S240  1  0.61410173  0.00382482  0.05699306  1
  S2-  S241  1  0.63350688  -0.01575630  0.54008325  1
  S2-  S242  1  0.61458080  0.25318702  0.05151690  1
  S2-  S243  1  0.62981489  0.24390347  0.54850245  1
  S2-  S244  1  0.61663501  0.50174515  0.04973957  1
  S2-  S245  1  0.62665629  0.48592790  0.53980217  1
  S2-  S246  1  0.61614339  0.75287026  0.05659744  1
  S2-  S247  1  0.62722110  0.73823144  0.53147072  1
  S2-  S248  1  0.86262518  0.00415986  0.03992135  1
  S2-  S249  1  0.88478863  -0.01408516  0.54065209  1
  S2-  S250  1  0.86566237  0.25530169  0.04514762  1
  S2-  S251  1  0.87869786  0.23389356  0.55399988  1
  S2-  S252  1  0.86959922  0.49905089  0.04695809  1
  S2-  S253  1  0.87953136  0.48519029  0.54116422  1
  S2-  S254  1  0.86766350  0.75298167  0.04893530  1
  S2-  S255  1  0.88239944  0.73390556  0.54211489  1
