# generated using pymatgen
data_La9Ce10Pr6Nd4Sm3(BiS2)32
_symmetry_space_group_name_H-M   'P 1'
_cell_length_a   16.19662591
_cell_length_b   16.17057320
_cell_length_c   27.30605493
_cell_angle_alpha   89.88951030
_cell_angle_beta   89.68849654
_cell_angle_gamma   89.91314102
_symmetry_Int_Tables_number   1
_chemical_formula_structural   La9Ce10Pr6Nd4Sm3(BiS2)32
_chemical_formula_sum   'La18 Ce20 Pr12 Nd8 Sm6 Bi64 S128'
_cell_volume   7151.56692965
_cell_formula_units_Z   2
loop_
 _symmetry_equiv_pos_site_id
 _symmetry_equiv_pos_as_xyz
  1  'x, y, z'
loop_
 _atom_type_symbol
 _atom_type_oxidation_number
  La3+  3.0
  Ce3+  3.0
  Pr3+  3.0
  Nd3+  3.0
  Sm3+  3.0
  Bi2+  2.0
  S2-  -2.0
loop_
 _atom_site_type_symbol
 _atom_site_label
 _atom_site_symmetry_multiplicity
 _atom_site_fract_x
 _atom_site_fract_y
 _atom_site_fract_z
 _atom_site_occupancy
  La3+  La0  1  0.26576054  0.10851368  0.07478695  1
  La3+  La1  1  0.48898075  0.87364926  0.57903924  1
  La3+  La2  1  0.36956391  0.49228011  0.43224903  1
  La3+  La3  1  0.87108284  0.49482287  0.42919182  1
  La3+  La4  1  -0.00618788  0.87158083  0.56870441  1
  La3+  La5  1  0.24769886  0.61297873  0.59035041  1
  La3+  La6  1  0.76729795  0.11055432  0.07261188  1
  La3+  La7  1  -0.00625148  0.12120273  0.56247312  1
  La3+  La8  1  0.39533269  0.74374296  0.90662834  1
  La3+  La9  1  -0.00431309  0.61792628  0.56537832  1
  La3+  La10  1  0.39902005  -0.00541166  0.92679882  1
  La3+  La11  1  0.37784224  -0.01212168  0.42407297  1
  La3+  La12  1  0.76551792  0.85989485  0.07086339  1
  La3+  La13  1  0.11984746  -0.01361015  0.41241673  1
  La3+  La14  1  0.12258275  0.49331349  0.43399863  1
  La3+  La15  1  -0.00439671  0.37258014  0.56482759  1
  La3+  La16  1  0.62011034  0.24575588  0.43352760  1
  La3+  La17  1  0.23928071  0.88119885  0.57617584  1
  Ce3+  Ce18  1  0.74548145  0.87256783  0.54993739  1
  Ce3+  Ce19  1  0.74128434  0.37258281  0.55805340  1
  Ce3+  Ce20  1  0.24650481  0.11652861  0.54989697  1
  Ce3+  Ce21  1  0.48952054  0.37113422  0.55525802  1
  Ce3+  Ce22  1  0.87653988  -0.00760236  0.43296784  1
  Ce3+  Ce23  1  0.26541130  0.61644056  0.05575196  1
  Ce3+  Ce24  1  0.51145851  0.61846996  0.05600584  1
  Ce3+  Ce25  1  0.64228034  0.24125420  0.94630545  1
  Ce3+  Ce26  1  0.49242678  0.62939393  0.56781602  1
  Ce3+  Ce27  1  0.51332053  0.11048127  0.06401394  1
  Ce3+  Ce28  1  0.89324429  0.23895243  0.95014775  1
  Ce3+  Ce29  1  0.76670463  0.61627275  0.06629130  1
  Ce3+  Ce30  1  0.64221323  0.73829461  0.93505624  1
  Ce3+  Ce31  1  0.62183334  -0.00572588  0.43953486  1
  Ce3+  Ce32  1  0.26583376  0.86615163  0.05882044  1
  Ce3+  Ce33  1  0.74454857  0.12214656  0.54836043  1
  Ce3+  Ce34  1  0.49369487  0.11674709  0.56019085  1
  Ce3+  Ce35  1  0.26826518  0.36369452  0.06535474  1
  Ce3+  Ce36  1  0.25392584  0.37053477  0.56435341  1
  Ce3+  Ce37  1  0.02476926  0.36855035  0.07236650  1
  Pr3+  Pr38  1  0.74377033  0.62211817  0.55766612  1
  Pr3+  Pr39  1  0.39851639  0.23908735  0.93435944  1
  Pr3+  Pr40  1  0.14379596  0.23776498  0.94424421  1
  Pr3+  Pr41  1  0.61587232  0.49808382  0.44170701  1
  Pr3+  Pr42  1  0.76330126  0.35867872  0.08090095  1
  Pr3+  Pr43  1  0.12242394  0.74597689  0.44606063  1
  Pr3+  Pr44  1  0.51484547  0.36144587  0.07070821  1
  Pr3+  Pr45  1  0.87396139  0.74199662  0.43410059  1
  Pr3+  Pr46  1  0.64563241  -0.01209365  0.94167833  1
  Pr3+  Pr47  1  0.51162279  0.86184264  0.05967575  1
  Pr3+  Pr48  1  0.89192719  0.48590003  0.94337437  1
  Pr3+  Pr49  1  0.14486087  0.49051437  0.93576829  1
  Nd3+  Nd50  1  0.64214778  0.49055296  0.95069319  1
  Nd3+  Nd51  1  0.61706029  0.74783133  0.43848225  1
  Nd3+  Nd52  1  0.01827866  0.11125532  0.06503400  1
  Nd3+  Nd53  1  0.14560053  -0.01076844  0.93931336  1
  Nd3+  Nd54  1  0.37022381  0.23526565  0.42720723  1
  Nd3+  Nd55  1  0.02421935  0.61112279  0.08161418  1
  Nd3+  Nd56  1  0.87549880  0.24850046  0.43265107  1
  Nd3+  Nd57  1  0.36845482  0.75032919  0.44539869  1
  Sm3+  Sm58  1  0.12302606  0.24343985  0.44710837  1
  Sm3+  Sm59  1  0.14205618  0.73937937  0.94078714  1
  Sm3+  Sm60  1  0.01733812  0.86009740  0.05829087  1
  Sm3+  Sm61  1  0.89450832  0.73700451  0.94592466  1
  Sm3+  Sm62  1  0.89348807  -0.01196546  0.94679531  1
  Sm3+  Sm63  1  0.39235201  0.48901560  0.94278880  1
  Bi2+  Bi64  1  -0.08273394  0.16552682  0.30422077  1
  Bi2+  Bi65  1  -0.02105538  0.16845241  0.80912870  1
  Bi2+  Bi66  1  0.00242933  0.43798146  0.29866230  1
  Bi2+  Bi67  1  -0.07302892  0.33301670  0.75701486  1
  Bi2+  Bi68  1  0.01814756  0.71310357  0.31389872  1
  Bi2+  Bi69  1  0.00303406  0.62346665  0.81762114  1
  Bi2+  Bi70  1  -0.04194264  0.93372793  0.26519454  1
  Bi2+  Bi71  1  -0.06435890  0.90778694  0.79281877  1
  Bi2+  Bi72  1  0.24834473  0.18209140  0.30090676  1
  Bi2+  Bi73  1  0.22306542  0.10671299  0.79618436  1
  Bi2+  Bi74  1  0.23396437  0.39543124  0.22712320  1
  Bi2+  Bi75  1  0.32907880  0.33229043  0.79186647  1
  Bi2+  Bi76  1  0.27530768  0.66790302  0.26448000  1
  Bi2+  Bi77  1  0.23684314  0.57157812  0.78640231  1
  Bi2+  Bi78  1  0.24390967  0.85812641  0.27906119  1
  Bi2+  Bi79  1  0.24210319  0.85054814  0.79455099  1
  Bi2+  Bi80  1  0.51696274  0.09692023  0.29110815  1
  Bi2+  Bi81  1  0.50038115  0.13128280  0.79405556  1
  Bi2+  Bi82  1  0.47814883  0.38288797  0.30397887  1
  Bi2+  Bi83  1  0.50687193  0.40357061  0.82105323  1
  Bi2+  Bi84  1  0.48043828  0.64916779  0.28913254  1
  Bi2+  Bi85  1  0.56662326  0.59771406  0.78093412  1
  Bi2+  Bi86  1  0.48572692  0.84472861  0.29088523  1
  Bi2+  Bi87  1  0.53142733  0.87815877  0.79087932  1
  Bi2+  Bi88  1  0.73778483  0.09157468  0.29208455  1
  Bi2+  Bi89  1  0.71442577  0.14380046  0.78151892  1
  Bi2+  Bi90  1  0.74947481  0.37424002  0.28316121  1
  Bi2+  Bi91  1  0.72990724  0.33534981  0.75659804  1
  Bi2+  Bi92  1  0.79132952  0.60844475  0.27296503  1
  Bi2+  Bi93  1  0.75892691  0.59264321  0.79082804  1
  Bi2+  Bi94  1  0.75360118  0.88843944  0.28959141  1
  Bi2+  Bi95  1  0.72830137  0.86178724  0.79228678  1
  Bi2+  Bi96  1  0.13852097  0.01357600  0.21222241  1
  Bi2+  Bi97  1  0.12058129  0.01994081  0.70846714  1
  Bi2+  Bi98  1  0.06054324  0.26704801  0.25022422  1
  Bi2+  Bi99  1  0.19280277  0.25385150  0.72673844  1
  Bi2+  Bi100  1  0.10030128  0.53397218  0.21858068  1
  Bi2+  Bi101  1  0.09391559  0.52273832  0.70479595  1
  Bi2+  Bi102  1  0.12152157  0.76213649  0.20099682  1
  Bi2+  Bi103  1  0.09873001  0.78087091  0.73392869  1
  Bi2+  Bi104  1  0.38628856  0.03499714  0.19788700  1
  Bi2+  Bi105  1  0.37297946  0.00045160  0.70671933  1
  Bi2+  Bi106  1  0.41430689  0.26526178  0.21508650  1
  Bi2+  Bi107  1  0.37805496  0.21158306  0.69927426  1
  Bi2+  Bi108  1  0.36559887  0.52985216  0.19913275  1
  Bi2+  Bi109  1  0.35742054  0.46846855  0.70916163  1
  Bi2+  Bi110  1  0.39221091  0.78065660  0.19594198  1
  Bi2+  Bi111  1  0.40537697  0.73342661  0.71357953  1
  Bi2+  Bi112  1  0.63638388  -0.02249711  0.21510590  1
  Bi2+  Bi113  1  0.67585200  -0.00903812  0.71296414  1
  Bi2+  Bi114  1  0.65224563  0.24859884  0.21490077  1
  Bi2+  Bi115  1  0.57771115  0.23343847  0.70574903  1
  Bi2+  Bi116  1  0.61772006  0.50915739  0.24000732  1
  Bi2+  Bi117  1  0.56986861  0.43319406  0.71176317  1
  Bi2+  Bi118  1  0.65738941  0.73675638  0.23370687  1
  Bi2+  Bi119  1  0.67186376  0.72342947  0.71264998  1
  Bi2+  Bi120  1  0.87962885  0.08028295  0.20367344  1
  Bi2+  Bi121  1  0.87522075  -0.07260390  0.68498296  1
  Bi2+  Bi122  1  0.90068710  0.34906554  0.20364533  1
  Bi2+  Bi123  1  0.87207792  0.13733551  0.71011040  1
  Bi2+  Bi124  1  0.78501002  0.50183089  0.18108052  1
  Bi2+  Bi125  1  0.85280113  0.49352011  0.68965142  1
  Bi2+  Bi126  1  0.85955265  0.80238741  0.20470933  1
  Bi2+  Bi127  1  0.88724239  0.74619628  0.72840764  1
  S2-  S128  1  0.06153518  0.12257680  0.16144645  1
  S2-  S129  1  0.02852299  0.13286159  0.66113724  1
  S2-  S130  1  -0.00690622  0.47997547  0.14799720  1
  S2-  S131  1  -0.00068134  0.38918646  0.66474936  1
  S2-  S132  1  -0.02592172  0.69866065  0.16529309  1
  S2-  S133  1  -0.03322222  0.62830942  0.66448470  1
  S2-  S134  1  0.05796947  0.89581411  0.15177895  1
  S2-  S135  1  0.10139132  0.87968900  0.64949657  1
  S2-  S136  1  0.29491605  0.16495636  0.17355880  1
  S2-  S137  1  0.24552798  0.04183957  0.63920874  1
  S2-  S138  1  0.15887644  0.35662402  0.14139627  1
  S2-  S139  1  0.21111157  0.46351701  0.64822982  1
  S2-  S140  1  0.17788645  0.62232124  0.14039561  1
  S2-  S141  1  0.18493544  0.66738192  0.68340703  1
  S2-  S142  1  0.26837146  0.96501249  0.14209961  1
  S2-  S143  1  0.34559305  0.85257441  0.65727261  1
  S2-  S144  1  0.52150323  0.15228083  0.15973853  1
  S2-  S145  1  0.49485302  0.01715496  0.64342505  1
  S2-  S146  1  0.38975197  0.37569182  0.14221787  1
  S2-  S147  1  0.38456468  0.35059051  0.63200136  1
  S2-  S148  1  0.47124900  0.63749353  0.15139343  1
  S2-  S149  1  0.39328058  0.60021568  0.64948192  1
  S2-  S150  1  0.50157711  0.91197637  0.15680734  1
  S2-  S151  1  0.52543247  0.74573460  0.64761844  1
  S2-  S152  1  0.78216499  0.22050945  0.15205878  1
  S2-  S153  1  0.74185011  0.11574258  0.64521354  1
  S2-  S154  1  0.62553586  0.36461880  0.15025150  1
  S2-  S155  1  0.77538859  0.35894117  0.65226889  1
  S2-  S156  1  0.73972009  0.73103453  0.14121545  1
  S2-  S157  1  0.72941868  0.58794729  0.65582525  1
  S2-  S158  1  0.76357274  0.98223232  0.14733313  1
  S2-  S159  1  0.72158486  0.86159693  0.64575597  1
  S2-  S160  1  0.18383476  0.03675982  0.31564638  1
  S2-  S161  1  0.14472112  -0.02262334  0.83966868  1
  S2-  S162  1  0.12086574  0.26650712  0.35032035  1
  S2-  S163  1  0.12310390  0.23380607  0.84439347  1
  S2-  S164  1  0.10297024  0.55926935  0.34110210  1
  S2-  S165  1  0.11299531  0.49174802  0.83608203  1
  S2-  S166  1  0.11927435  0.82311372  0.35424579  1
  S2-  S167  1  0.12847170  0.74272723  0.84260602  1
  S2-  S168  1  0.37607723  0.11272393  0.35063188  1
  S2-  S169  1  0.37871146  -0.11012479  0.84507254  1
  S2-  S170  1  0.34244641  0.32566517  0.34272207  1
  S2-  S171  1  0.36766710  0.12475556  0.85776797  1
  S2-  S172  1  0.39330796  0.52786041  0.33484353  1
  S2-  S173  1  0.35306027  0.48987403  0.84703754  1
  S2-  S174  1  0.35961069  0.84511857  0.35897517  1
  S2-  S175  1  0.33616523  0.70074817  0.81081938  1
  S2-  S176  1  0.53797382  -0.03230220  0.35703720  1
  S2-  S177  1  0.55575632  0.00020402  0.85602277  1
  S2-  S178  1  0.56653941  0.23638227  0.33770156  1
  S2-  S179  1  0.54406421  0.25215349  0.86586424  1
  S2-  S180  1  0.62849357  0.46378223  0.34337732  1
  S2-  S181  1  0.65752832  0.48868255  0.85147661  1
  S2-  S182  1  0.61873125  0.72274572  0.34001577  1
  S2-  S183  1  0.54970556  0.73340101  0.85171765  1
  S2-  S184  1  0.97791190  0.01906274  0.35450195  1
  S2-  S185  1  0.88436473  0.03233204  0.85233514  1
  S2-  S186  1  0.87051801  0.36688013  0.35686048  1
  S2-  S187  1  0.88484929  0.29191865  0.85798290  1
  S2-  S188  1  0.88036820  0.61883895  0.35589272  1
  S2-  S189  1  0.88783697  0.51979811  0.84356106  1
  S2-  S190  1  0.89585533  0.82682250  0.34529178  1
  S2-  S191  1  0.90150445  0.75538686  0.84866475  1
  S2-  S192  1  -0.00312570  0.12643164  0.45476739  1
  S2-  S193  1  0.01705289  0.11119127  0.95740521  1
  S2-  S194  1  -0.00021887  0.36865163  0.45685278  1
  S2-  S195  1  0.02059645  0.36584860  0.95984632  1
  S2-  S196  1  -0.00157289  0.61887979  0.45841758  1
  S2-  S197  1  0.01847167  0.61507743  0.95574534  1
  S2-  S198  1  -0.00567701  0.86891467  0.46025964  1
  S2-  S199  1  0.01702576  0.86374503  0.95219650  1
  S2-  S200  1  0.23906152  0.11523072  0.44614156  1
  S2-  S201  1  0.26466185  0.11219365  0.96120008  1
  S2-  S202  1  0.24548220  0.36700612  0.45609745  1
  S2-  S203  1  0.26977712  0.36352710  0.95378737  1
  S2-  S204  1  0.24814577  0.62273223  0.44239811  1
  S2-  S205  1  0.26961833  0.61861657  0.94729432  1
  S2-  S206  1  0.24179879  0.87511446  0.46042698  1
  S2-  S207  1  0.26554763  0.86127482  0.95155936  1
  S2-  S208  1  0.50043083  0.11838184  0.45455455  1
  S2-  S209  1  0.52270958  0.11513360  0.96085560  1
  S2-  S210  1  0.49378656  0.36790711  0.44990448  1
  S2-  S211  1  0.51601195  0.36964579  0.96436694  1
  S2-  S212  1  0.49302295  0.62507067  0.45419245  1
  S2-  S213  1  0.51272401  0.61210146  0.95032524  1
  S2-  S214  1  0.49795834  0.86782731  0.46466168  1
  S2-  S215  1  0.51929984  0.86147463  0.95384361  1
  S2-  S216  1  0.75058539  0.12126898  0.44189492  1
  S2-  S217  1  0.76901666  0.11294425  0.95994626  1
  S2-  S218  1  0.74187540  0.37117456  0.45295795  1
  S2-  S219  1  0.76467742  0.36479469  0.96574419  1
  S2-  S220  1  0.74113546  0.62152234  0.45101490  1
  S2-  S221  1  0.76839217  0.61622420  0.95657599  1
  S2-  S222  1  0.74599487  0.86918154  0.44436940  1
  S2-  S223  1  0.77125551  0.86269351  0.95623181  1
  S2-  S224  1  0.13766846  -0.01389192  0.04378057  1
  S2-  S225  1  0.11438150  -0.00106048  0.53960191  1
  S2-  S226  1  0.14255661  0.23255399  0.04900868  1
  S2-  S227  1  0.12450706  0.24725876  0.55302741  1
  S2-  S228  1  0.14467955  0.49162275  0.04190612  1
  S2-  S229  1  0.12299510  0.49678643  0.54293909  1
  S2-  S230  1  0.13944401  0.74190100  0.04414407  1
  S2-  S231  1  0.12275806  0.74021783  0.55283991  1
  S2-  S232  1  0.39159266  -0.01263116  0.03968246  1
  S2-  S233  1  0.37165422  -0.00357442  0.53760234  1
  S2-  S234  1  0.39108163  0.23456432  0.04462686  1
  S2-  S235  1  0.37131989  0.23706259  0.53446507  1
  S2-  S236  1  0.38975266  0.49437916  0.04501284  1
  S2-  S237  1  0.37080174  0.49976169  0.53986119  1
  S2-  S238  1  0.38634702  0.74116197  0.04378480  1
  S2-  S239  1  0.36087684  0.74383608  0.54902056  1
  S2-  S240  1  0.63814131  -0.01408674  0.04737545  1
  S2-  S241  1  0.62295790  -0.00319094  0.54329208  1
  S2-  S242  1  0.64076250  0.23470157  0.04940675  1
  S2-  S243  1  0.61720420  0.24663753  0.54448673  1
  S2-  S244  1  0.63902403  0.49648468  0.05495433  1
  S2-  S245  1  0.61410574  0.49757820  0.54891722  1
  S2-  S246  1  0.63687309  0.73879859  0.04028158  1
  S2-  S247  1  0.62276973  0.74793373  0.54331719  1
  S2-  S248  1  0.89683068  -0.01520297  0.05066932  1
  S2-  S249  1  0.86932062  -0.00268621  0.54178415  1
  S2-  S250  1  0.89967070  0.24082354  0.05420275  1
  S2-  S251  1  0.86914557  0.24833353  0.54202683  1
  S2-  S252  1  0.88710780  0.49011394  0.04899322  1
  S2-  S253  1  0.86822206  0.49491159  0.54261234  1
  S2-  S254  1  0.89673745  0.73607223  0.04889512  1
  S2-  S255  1  0.86988463  0.74552856  0.54789460  1
