# generated using pymatgen
data_La9Ce10Pr6Nd4Sm3(BiS2)32
_symmetry_space_group_name_H-M   'P 1'
_cell_length_a   16.24996519
_cell_length_b   16.24281046
_cell_length_c   27.11580139
_cell_angle_alpha   90.02217028
_cell_angle_beta   90.15332049
_cell_angle_gamma   89.99536527
_symmetry_Int_Tables_number   1
_chemical_formula_structural   La9Ce10Pr6Nd4Sm3(BiS2)32
_chemical_formula_sum   'La18 Ce20 Pr12 Nd8 Sm6 Bi64 S128'
_cell_volume   7157.05684724
_cell_formula_units_Z   2
loop_
 _symmetry_equiv_pos_site_id
 _symmetry_equiv_pos_as_xyz
  1  'x, y, z'
loop_
 _atom_type_symbol
 _atom_type_oxidation_number
  La3+  3.0
  Ce3+  3.0
  Pr3+  3.0
  Nd3+  3.0
  Sm3+  3.0
  Bi2+  2.0
  S2-  -2.0
loop_
 _atom_site_type_symbol
 _atom_site_label
 _atom_site_symmetry_multiplicity
 _atom_site_fract_x
 _atom_site_fract_y
 _atom_site_fract_z
 _atom_site_occupancy
  La3+  La0  1  0.74924299  0.13345719  0.56124186  1
  La3+  La1  1  0.12209449  -0.01494394  0.91876195  1
  La3+  La2  1  0.49747566  0.61611079  0.07804615  1
  La3+  La3  1  0.38233572  -0.00497899  0.93172658  1
  La3+  La4  1  0.88207828  0.24810468  0.92576300  1
  La3+  La5  1  0.87697485  0.76900777  0.42104678  1
  La3+  La6  1  0.88883906  0.26615640  0.43058574  1
  La3+  La7  1  0.62352787  0.49779480  0.41902923  1
  La3+  La8  1  0.62857204  0.74865538  0.94376791  1
  La3+  La9  1  0.12812275  0.50610371  0.43688505  1
  La3+  La10  1  0.37929434  0.76149666  0.41904750  1
  La3+  La11  1  0.50065396  0.12813925  0.57508989  1
  La3+  La12  1  0.12955833  0.49848646  0.93473794  1
  La3+  La13  1  0.25946074  0.88300396  0.08806364  1
  La3+  La14  1  0.38581322  0.50362263  0.91025165  1
  La3+  La15  1  -0.00684971  0.13929067  0.58442637  1
  La3+  La16  1  0.63443875  0.50231976  0.93371092  1
  La3+  La17  1  0.37136219  0.50122200  0.42687429  1
  Ce3+  Ce18  1  0.00192609  0.38681221  0.57437831  1
  Ce3+  Ce19  1  0.00096447  0.63451041  0.55446348  1
  Ce3+  Ce20  1  0.62429662  0.25169419  0.94342367  1
  Ce3+  Ce21  1  0.87706812  0.50265128  0.93587864  1
  Ce3+  Ce22  1  0.50294963  0.63195613  0.54921474  1
  Ce3+  Ce23  1  0.75510466  0.62297283  0.06540787  1
  Ce3+  Ce24  1  0.50440321  0.87079401  0.06646556  1
  Ce3+  Ce25  1  0.25665093  0.62184056  0.06017364  1
  Ce3+  Ce26  1  0.62532358  0.75657715  0.43436899  1
  Ce3+  Ce27  1  0.87769099  0.01316471  0.44134657  1
  Ce3+  Ce28  1  0.62780016  0.00039623  0.94738281  1
  Ce3+  Ce29  1  0.74694237  0.38350900  0.55900389  1
  Ce3+  Ce30  1  0.25094736  0.88061451  0.56194965  1
  Ce3+  Ce31  1  0.75687444  0.37330356  0.05428719  1
  Ce3+  Ce32  1  0.49961535  0.87984885  0.55635614  1
  Ce3+  Ce33  1  0.25479830  0.63050890  0.55714401  1
  Ce3+  Ce34  1  0.62353457  0.01308958  0.43731412  1
  Ce3+  Ce35  1  0.12408145  0.00898741  0.45077006  1
  Ce3+  Ce36  1  0.75558039  0.87625864  0.05848944  1
  Ce3+  Ce37  1  0.25073728  0.13083459  0.56629502  1
  Pr3+  Pr38  1  0.12748175  0.76310036  0.43840443  1
  Pr3+  Pr39  1  0.00669778  0.62662155  0.06390501  1
  Pr3+  Pr40  1  0.37980446  0.74712413  0.94070857  1
  Pr3+  Pr41  1  0.87533415  0.51112744  0.44616746  1
  Pr3+  Pr42  1  0.49799269  0.37257169  0.06415407  1
  Pr3+  Pr43  1  0.37379885  0.00755500  0.43617956  1
  Pr3+  Pr44  1  0.38447727  0.24313361  0.92346651  1
  Pr3+  Pr45  1  0.00354949  0.88485685  0.07231287  1
  Pr3+  Pr46  1  0.12975776  0.75146664  0.95151910  1
  Pr3+  Pr47  1  0.26140806  0.39203148  0.58468330  1
  Pr3+  Pr48  1  0.50267108  0.12647651  0.06638823  1
  Pr3+  Pr49  1  0.87540030  0.00481554  0.92706005  1
  Nd3+  Nd50  1  0.62191485  0.25089081  0.43511233  1
  Nd3+  Nd51  1  0.00501892  0.37191464  0.05294757  1
  Nd3+  Nd52  1  0.25269781  0.12102779  0.04968692  1
  Nd3+  Nd53  1  -0.00232592  0.88044263  0.56676899  1
  Nd3+  Nd54  1  0.12719629  0.25765634  0.45644523  1
  Nd3+  Nd55  1  0.50898857  0.39292401  0.56868254  1
  Nd3+  Nd56  1  0.37601548  0.25666931  0.45189101  1
  Nd3+  Nd57  1  0.75142079  0.63572389  0.55431069  1
  Sm3+  Sm58  1  0.88261492  0.75220768  0.94812316  1
  Sm3+  Sm59  1  0.25668315  0.37231065  0.04439228  1
  Sm3+  Sm60  1  0.75106315  0.88194521  0.55064727  1
  Sm3+  Sm61  1  0.13350739  0.24415372  0.93122991  1
  Sm3+  Sm62  1  0.00694765  0.12191832  0.05046972  1
  Sm3+  Sm63  1  0.75655437  0.12563252  0.05341197  1
  Bi2+  Bi64  1  0.00031060  0.15508365  0.30488285  1
  Bi2+  Bi65  1  0.00118748  0.08742472  0.78679732  1
  Bi2+  Bi66  1  0.00627614  0.37010707  0.28208468  1
  Bi2+  Bi67  1  -0.02170491  0.42204673  0.80283749  1
  Bi2+  Bi68  1  -0.00526802  0.57776504  0.30168092  1
  Bi2+  Bi69  1  -0.00816370  0.61916388  0.79907563  1
  Bi2+  Bi70  1  0.00344383  0.96323915  0.28117604  1
  Bi2+  Bi71  1  -0.01284645  0.82835341  0.78899425  1
  Bi2+  Bi72  1  0.21900195  0.15131718  0.29374908  1
  Bi2+  Bi73  1  0.27499306  0.11844041  0.77220893  1
  Bi2+  Bi74  1  0.24384167  0.33381632  0.24226302  1
  Bi2+  Bi75  1  0.22039532  0.38317487  0.78897023  1
  Bi2+  Bi76  1  0.23710624  0.60499257  0.29091350  1
  Bi2+  Bi77  1  0.24285014  0.66411142  0.78593800  1
  Bi2+  Bi78  1  0.23058581  0.86999204  0.29481183  1
  Bi2+  Bi79  1  0.23531419  0.86287335  0.79031112  1
  Bi2+  Bi80  1  0.40566121  0.12870343  0.32101267  1
  Bi2+  Bi81  1  0.53935761  0.09630784  0.79591031  1
  Bi2+  Bi82  1  0.50023480  0.35371307  0.29112824  1
  Bi2+  Bi83  1  0.48837279  0.35471632  0.79354612  1
  Bi2+  Bi84  1  0.52098837  0.62137998  0.28955525  1
  Bi2+  Bi85  1  0.52051929  0.62743620  0.79141030  1
  Bi2+  Bi86  1  0.55549680  0.91935208  0.29623592  1
  Bi2+  Bi87  1  0.42569295  0.86349624  0.81140583  1
  Bi2+  Bi88  1  0.71687850  0.09495465  0.29122831  1
  Bi2+  Bi89  1  0.73785122  0.07467229  0.78349836  1
  Bi2+  Bi90  1  0.75238310  0.30535827  0.28102667  1
  Bi2+  Bi91  1  0.72442221  0.38282454  0.78123529  1
  Bi2+  Bi92  1  0.74549590  0.71227483  0.29618178  1
  Bi2+  Bi93  1  0.79687632  0.60403253  0.77830922  1
  Bi2+  Bi94  1  0.75570012  0.90255456  0.28953592  1
  Bi2+  Bi95  1  0.76385137  0.88285126  0.77468201  1
  Bi2+  Bi96  1  0.13960659  0.03607397  0.20943947  1
  Bi2+  Bi97  1  0.14471083  -0.04845701  0.70276249  1
  Bi2+  Bi98  1  0.09336361  0.22550882  0.19957588  1
  Bi2+  Bi99  1  0.09073287  0.26152474  0.73166435  1
  Bi2+  Bi100  1  0.12208206  0.49830387  0.22640121  1
  Bi2+  Bi101  1  0.03812350  0.50656982  0.70054692  1
  Bi2+  Bi102  1  0.09530312  0.71357997  0.21074689  1
  Bi2+  Bi103  1  0.09908316  0.69615495  0.70871819  1
  Bi2+  Bi104  1  0.41376189  0.00127351  0.22972685  1
  Bi2+  Bi105  1  0.41959230  -0.04771368  0.70357431  1
  Bi2+  Bi106  1  0.37155439  0.19005609  0.20938759  1
  Bi2+  Bi107  1  0.36266353  0.24054534  0.70311157  1
  Bi2+  Bi108  1  0.38023190  0.47170210  0.20368032  1
  Bi2+  Bi109  1  0.37859704  0.51807244  0.70401219  1
  Bi2+  Bi110  1  0.37725080  0.74616682  0.20578850  1
  Bi2+  Bi111  1  0.37826159  0.74568609  0.71925865  1
  Bi2+  Bi112  1  0.59731771  0.03765955  0.19966837  1
  Bi2+  Bi113  1  0.59532060  0.03570164  0.69174477  1
  Bi2+  Bi114  1  0.59036485  0.23022411  0.22404283  1
  Bi2+  Bi115  1  0.68840057  0.24630478  0.70030895  1
  Bi2+  Bi116  1  0.65980702  0.48920240  0.21106278  1
  Bi2+  Bi117  1  0.63318033  0.52317043  0.70465000  1
  Bi2+  Bi118  1  0.63085628  0.82267529  0.20618089  1
  Bi2+  Bi119  1  0.59126686  0.79659378  0.75674921  1
  Bi2+  Bi120  1  0.89504633  0.07913629  0.21113076  1
  Bi2+  Bi121  1  0.86997746  0.00435703  0.70739322  1
  Bi2+  Bi122  1  0.86154014  0.26963622  0.18732046  1
  Bi2+  Bi123  1  0.87998126  0.28576541  0.74050380  1
  Bi2+  Bi124  1  0.84239907  0.48142070  0.25672875  1
  Bi2+  Bi125  1  0.84359457  0.46562201  0.69714374  1
  Bi2+  Bi126  1  0.86279135  0.72902134  0.19549717  1
  Bi2+  Bi127  1  0.82975928  0.74374903  0.69804660  1
  S2-  S128  1  0.00668700  0.02995158  0.13362023  1
  S2-  S129  1  0.03355529  0.07015764  0.67732270  1
  S2-  S130  1  0.00159960  0.35181407  0.15149455  1
  S2-  S131  1  -0.01251119  0.27936926  0.65124287  1
  S2-  S132  1  -0.02683412  0.61165332  0.16233922  1
  S2-  S133  1  -0.03884044  0.64898219  0.64956110  1
  S2-  S134  1  -0.00991566  0.82160088  0.17107764  1
  S2-  S135  1  0.03494646  0.85310694  0.66453697  1
  S2-  S136  1  0.25247167  0.03866245  0.13780856  1
  S2-  S137  1  0.28088792  0.10843448  0.66305356  1
  S2-  S138  1  0.29071675  0.37313989  0.14079887  1
  S2-  S139  1  0.21409553  0.32840190  0.68155904  1
  S2-  S140  1  0.32834508  0.61332640  0.14929953  1
  S2-  S141  1  0.25581511  0.54562188  0.64325584  1
  S2-  S142  1  0.21352837  0.81384943  0.18492791  1
  S2-  S143  1  0.28288708  0.86036600  0.65789970  1
  S2-  S144  1  0.48979704  0.24702728  0.14019149  1
  S2-  S145  1  0.52627573  0.19091056  0.66957758  1
  S2-  S146  1  0.51197887  0.48021123  0.14612797  1
  S2-  S147  1  0.40648430  0.38237696  0.65065222  1
  S2-  S148  1  0.51732524  0.70264487  0.16865903  1
  S2-  S149  1  0.50403308  0.57108383  0.64128776  1
  S2-  S150  1  0.40726354  0.88303281  0.14754930  1
  S2-  S151  1  0.54407303  0.87286910  0.65226065  1
  S2-  S152  1  0.76400220  0.13310248  0.15147026  1
  S2-  S153  1  0.81139185  0.14256968  0.65481687  1
  S2-  S154  1  0.73355225  0.38087041  0.15171645  1
  S2-  S155  1  0.64353214  0.38507068  0.63839685  1
  S2-  S156  1  0.73408239  0.61531898  0.16358723  1
  S2-  S157  1  0.71091865  0.64948165  0.65178505  1
  S2-  S158  1  0.77507804  0.86771559  0.15611646  1
  S2-  S159  1  0.78970177  0.88286377  0.64676268  1
  S2-  S160  1  0.12990183  -0.03436016  0.35530550  1
  S2-  S161  1  0.15286364  0.08277877  0.83334106  1
  S2-  S162  1  0.04743957  0.28515963  0.36878603  1
  S2-  S163  1  0.09053072  0.29331268  0.83956467  1
  S2-  S164  1  0.23530712  0.48475139  0.35909493  1
  S2-  S165  1  0.17959376  0.52260702  0.83934282  1
  S2-  S166  1  0.15448241  0.74488709  0.33798185  1
  S2-  S167  1  0.11705287  0.81724808  0.85772559  1
  S2-  S168  1  0.35394364  -0.10140887  0.35394797  1
  S2-  S169  1  0.38998285  0.08090904  0.84408600  1
  S2-  S170  1  0.38216954  0.29434850  0.35360486  1
  S2-  S171  1  0.34033411  0.27038941  0.82455657  1
  S2-  S172  1  0.48437402  0.49575370  0.34825865  1
  S2-  S173  1  0.36318730  0.45902861  0.80484582  1
  S2-  S174  1  0.37128073  0.67015908  0.32958588  1
  S2-  S175  1  0.38003453  0.65401641  0.85445898  1
  S2-  S176  1  0.60095198  0.12344412  0.36272656  1
  S2-  S177  1  0.59992820  -0.02736962  0.85354208  1
  S2-  S178  1  0.63775174  0.35176307  0.35330961  1
  S2-  S179  1  0.58971742  0.24581399  0.84732041  1
  S2-  S180  1  0.67510859  0.57383238  0.32854546  1
  S2-  S181  1  0.53612781  0.48153427  0.85147642  1
  S2-  S182  1  0.54981225  0.76340485  0.34609116  1
  S2-  S183  1  0.63556586  0.70680704  0.84579730  1
  S2-  S184  1  0.88931685  -0.07711663  0.35739186  1
  S2-  S185  1  0.97973252  -0.03758638  0.84978890  1
  S2-  S186  1  0.84313867  0.18842724  0.34369634  1
  S2-  S187  1  0.87049469  0.13718800  0.84845630  1
  S2-  S188  1  0.88860679  0.44485811  0.35370399  1
  S2-  S189  1  0.76577761  0.50437962  0.85852356  1
  S2-  S190  1  0.91622887  0.71452995  0.32593719  1
  S2-  S191  1  0.88337185  0.73893415  0.84951429  1
  S2-  S192  1  0.00192656  0.13306075  0.46583154  1
  S2-  S193  1  0.00938625  0.12547171  0.94683568  1
  S2-  S194  1  0.00400992  0.38980675  0.46845014  1
  S2-  S195  1  0.00392733  0.37384823  0.94736559  1
  S2-  S196  1  0.00235823  0.63545563  0.44750859  1
  S2-  S197  1  0.00427297  0.62564401  0.95509180  1
  S2-  S198  1  0.00249458  0.88418796  0.45931707  1
  S2-  S199  1  -0.00060786  0.87267278  0.96342455  1
  S2-  S200  1  0.24990093  0.13223005  0.45740100  1
  S2-  S201  1  0.25408934  0.12357001  0.94451615  1
  S2-  S202  1  0.25014405  0.37753872  0.46728510  1
  S2-  S203  1  0.25608863  0.37117288  0.93946913  1
  S2-  S204  1  0.25169360  0.63805752  0.45181628  1
  S2-  S205  1  0.25158685  0.62375018  0.95439390  1
  S2-  S206  1  0.24946534  0.88401096  0.45830914  1
  S2-  S207  1  0.25752159  0.87358516  0.95071809  1
  S2-  S208  1  0.49447472  0.12904806  0.46597211  1
  S2-  S209  1  0.50529451  0.12375458  0.95767100  1
  S2-  S210  1  0.50088601  0.37643437  0.46068377  1
  S2-  S211  1  0.49925895  0.37262167  0.95486195  1
  S2-  S212  1  0.50081108  0.63347611  0.44633665  1
  S2-  S213  1  0.50568008  0.62324930  0.96057855  1
  S2-  S214  1  0.50252948  0.88677412  0.45125385  1
  S2-  S215  1  0.50479904  0.87238877  0.95845284  1
  S2-  S216  1  0.75422561  0.13359170  0.45480211  1
  S2-  S217  1  0.74859125  0.12717679  0.94901524  1
  S2-  S218  1  0.75510867  0.37967383  0.45383976  1
  S2-  S219  1  0.75693939  0.36836274  0.94899174  1
  S2-  S220  1  0.75516448  0.63818166  0.44620195  1
  S2-  S221  1  0.76060663  0.62988866  0.95888812  1
  S2-  S222  1  0.74561985  0.88696299  0.44682331  1
  S2-  S223  1  0.75714104  0.87489483  0.94934650  1
  S2-  S224  1  0.13065238  -0.00220445  0.03335616  1
  S2-  S225  1  0.12327263  0.00642221  0.55719201  1
  S2-  S226  1  0.12992913  0.24800514  0.03890812  1
  S2-  S227  1  0.13038430  0.25833741  0.56069405  1
  S2-  S228  1  0.13001329  0.49554248  0.04656507  1
  S2-  S229  1  0.12456494  0.51059143  0.54705561  1
  S2-  S230  1  0.13249841  0.75382339  0.05799827  1
  S2-  S231  1  0.12631416  0.75664210  0.54815395  1
  S2-  S232  1  0.38342779  0.00162309  0.04108382  1
  S2-  S233  1  0.37511249  0.00443796  0.54826278  1
  S2-  S234  1  0.37396165  0.24582266  0.03426513  1
  S2-  S235  1  0.37555911  0.25388150  0.55697594  1
  S2-  S236  1  0.37380456  0.49592436  0.03700270  1
  S2-  S237  1  0.37875324  0.50976854  0.53756356  1
  S2-  S238  1  0.37694330  0.75016540  0.04793018  1
  S2-  S239  1  0.37713761  0.75642882  0.54365640  1
  S2-  S240  1  0.63012577  0.00202986  0.05380618  1
  S2-  S241  1  0.62751404  0.00487684  0.54641369  1
  S2-  S242  1  0.63263643  0.24856238  0.04837501  1
  S2-  S243  1  0.62301618  0.25382501  0.54370309  1
  S2-  S244  1  0.63408124  0.49793813  0.04308011  1
  S2-  S245  1  0.63086070  0.51252595  0.53300807  1
  S2-  S246  1  0.63155026  0.74903360  0.05283752  1
  S2-  S247  1  0.62793966  0.75947169  0.54195773  1
  S2-  S248  1  0.87605579  0.00418200  0.03675010  1
  S2-  S249  1  0.87700332  0.00580735  0.54853802  1
  S2-  S250  1  0.88279416  0.24500963  0.03761207  1
  S2-  S251  1  0.87384792  0.26221484  0.54498185  1
  S2-  S252  1  0.88313445  0.49885801  0.04578809  1
  S2-  S253  1  0.87390921  0.50935221  0.55257881  1
  S2-  S254  1  0.88090478  0.75071963  0.05264100  1
  S2-  S255  1  0.87528774  0.76033469  0.53734327  1
