# generated using pymatgen
data_La9Ce10Pr6Nd4Sm3(BiS2)32
_symmetry_space_group_name_H-M   'P 1'
_cell_length_a   16.18521371
_cell_length_b   16.19652851
_cell_length_c   27.26587381
_cell_angle_alpha   89.66984338
_cell_angle_beta   90.14127980
_cell_angle_gamma   90.05190898
_symmetry_Int_Tables_number   1
_chemical_formula_structural   La9Ce10Pr6Nd4Sm3(BiS2)32
_chemical_formula_sum   'La18 Ce20 Pr12 Nd8 Sm6 Bi64 S128'
_cell_volume   7147.44949511
_cell_formula_units_Z   2
loop_
 _symmetry_equiv_pos_site_id
 _symmetry_equiv_pos_as_xyz
  1  'x, y, z'
loop_
 _atom_type_symbol
 _atom_type_oxidation_number
  La3+  3.0
  Ce3+  3.0
  Pr3+  3.0
  Nd3+  3.0
  Sm3+  3.0
  Bi2+  2.0
  S2-  -2.0
loop_
 _atom_site_type_symbol
 _atom_site_label
 _atom_site_symmetry_multiplicity
 _atom_site_fract_x
 _atom_site_fract_y
 _atom_site_fract_z
 _atom_site_occupancy
  La3+  La0  1  0.50133613  0.11967646  0.57918013  1
  La3+  La1  1  0.37085633  0.50441624  0.42401414  1
  La3+  La2  1  0.25922904  0.61909366  0.57000922  1
  La3+  La3  1  0.74864248  0.61605386  0.06302332  1
  La3+  La4  1  0.00130707  0.11295103  0.06870224  1
  La3+  La5  1  0.74932912  0.11173211  0.06472014  1
  La3+  La6  1  0.37614461  0.24592607  0.88956104  1
  La3+  La7  1  0.61984160  0.49194519  0.93230121  1
  La3+  La8  1  0.63444037  0.24681306  0.43207135  1
  La3+  La9  1  0.49275761  0.87025296  0.06155565  1
  La3+  La10  1  0.49960484  0.12158008  0.05788020  1
  La3+  La11  1  0.62877078  -0.00810979  0.92640349  1
  La3+  La12  1  0.87871980  -0.00353417  0.92248995  1
  La3+  La13  1  0.00737640  0.61917915  0.58178345  1
  La3+  La14  1  0.24548194  0.12484277  0.06762397  1
  La3+  La15  1  0.25058370  0.61997114  0.06295935  1
  La3+  La16  1  0.00201558  0.36925609  0.57732487  1
  La3+  La17  1  0.13154877  0.24531215  0.42771842  1
  Ce3+  Ce18  1  0.11843551  0.49657815  0.44173672  1
  Ce3+  Ce19  1  0.12251143  0.74512130  0.44475089  1
  Ce3+  Ce20  1  0.75189321  0.11917480  0.56605056  1
  Ce3+  Ce21  1  0.75085547  0.87646998  0.56661960  1
  Ce3+  Ce22  1  0.62243584  0.23775862  0.92695311  1
  Ce3+  Ce23  1  0.87994748  -0.00027860  0.44996452  1
  Ce3+  Ce24  1  0.87787529  0.49648024  0.94167470  1
  Ce3+  Ce25  1  0.12531793  -0.00203682  0.43709882  1
  Ce3+  Ce26  1  0.74704491  0.87266441  0.06504099  1
  Ce3+  Ce27  1  0.63197819  0.75091595  0.43620872  1
  Ce3+  Ce28  1  0.37949328  0.24613598  0.44671640  1
  Ce3+  Ce29  1  0.38790920  0.75042847  0.43328986  1
  Ce3+  Ce30  1  0.37316511  -0.00147452  0.92984262  1
  Ce3+  Ce31  1  0.12407247  -0.00410131  0.93580039  1
  Ce3+  Ce32  1  0.50385387  0.87291576  0.56570956  1
  Ce3+  Ce33  1  0.62731250  0.49909624  0.43536016  1
  Ce3+  Ce34  1  0.37813748  0.00053931  0.44143363  1
  Ce3+  Ce35  1  0.49839214  0.37508936  0.55870592  1
  Ce3+  Ce36  1  0.62454084  0.74623315  0.94645129  1
  Ce3+  Ce37  1  0.87999226  0.24833586  0.44118529  1
  Pr3+  Pr38  1  0.24941471  0.37202413  0.05111784  1
  Pr3+  Pr39  1  0.62590238  -0.00038357  0.43709439  1
  Pr3+  Pr40  1  0.37150139  0.74570161  0.92833138  1
  Pr3+  Pr41  1  0.87400603  0.24343107  0.93867530  1
  Pr3+  Pr42  1  0.25392619  0.87174898  0.54985192  1
  Pr3+  Pr43  1  0.49699665  0.61802732  0.05566631  1
  Pr3+  Pr44  1  0.00024297  0.61811326  0.06867629  1
  Pr3+  Pr45  1  0.87953872  0.74854206  0.44017615  1
  Pr3+  Pr46  1  0.00357174  0.87032711  0.57385838  1
  Pr3+  Pr47  1  0.74989130  0.61836076  0.56875793  1
  Pr3+  Pr48  1  0.74846214  0.36353036  0.56744096  1
  Pr3+  Pr49  1  0.00094734  0.36851846  0.06270305  1
  Nd3+  Nd50  1  0.50584953  0.62249511  0.56184494  1
  Nd3+  Nd51  1  0.11485738  0.49902458  0.92504379  1
  Nd3+  Nd52  1  0.74882695  0.36349060  0.05578756  1
  Nd3+  Nd53  1  0.24816642  0.12164538  0.56476459  1
  Nd3+  Nd54  1  0.36787486  0.50130100  0.92812164  1
  Nd3+  Nd55  1  0.24802265  0.36960630  0.56578851  1
  Nd3+  Nd56  1  0.49708573  0.36738395  0.05217772  1
  Nd3+  Nd57  1  0.12387481  0.24677085  0.93443777  1
  Sm3+  Sm58  1  0.25469792  0.87830730  0.06413368  1
  Sm3+  Sm59  1  0.12354223  0.74692953  0.94995985  1
  Sm3+  Sm60  1  0.87504113  0.74495495  0.95400284  1
  Sm3+  Sm61  1  0.87387769  0.49792084  0.44308650  1
  Sm3+  Sm62  1  0.00120294  0.87240784  0.06228929  1
  Sm3+  Sm63  1  0.00426589  0.12451701  0.56210808  1
  Bi2+  Bi64  1  0.00539644  0.09691810  0.28565157  1
  Bi2+  Bi65  1  0.03446489  0.09816615  0.77745089  1
  Bi2+  Bi66  1  -0.05226599  0.33338327  0.31315247  1
  Bi2+  Bi67  1  -0.01803630  0.35776146  0.79474319  1
  Bi2+  Bi68  1  -0.05910276  0.64431830  0.30511005  1
  Bi2+  Bi69  1  -0.03577533  0.64572859  0.79220581  1
  Bi2+  Bi70  1  0.05876368  0.90265828  0.30800695  1
  Bi2+  Bi71  1  -0.02244783  0.83969720  0.79389002  1
  Bi2+  Bi72  1  0.28233670  0.07871181  0.30479744  1
  Bi2+  Bi73  1  0.19472578  -0.01314698  0.77427435  1
  Bi2+  Bi74  1  0.24274462  0.39576129  0.27958794  1
  Bi2+  Bi75  1  0.23349033  0.37935635  0.78498795  1
  Bi2+  Bi76  1  0.22103952  0.68793772  0.28264952  1
  Bi2+  Bi77  1  0.22825034  0.67611811  0.80190787  1
  Bi2+  Bi78  1  0.25108402  0.88391341  0.28587366  1
  Bi2+  Bi79  1  0.32452332  0.86383700  0.82206747  1
  Bi2+  Bi80  1  0.52115052  0.12123709  0.29554304  1
  Bi2+  Bi81  1  0.50849664  0.13574657  0.78202429  1
  Bi2+  Bi82  1  0.49584749  0.38023020  0.27812961  1
  Bi2+  Bi83  1  0.50699839  0.41419969  0.78456829  1
  Bi2+  Bi84  1  0.43978789  0.58717905  0.28307062  1
  Bi2+  Bi85  1  0.50088083  0.66266553  0.78390831  1
  Bi2+  Bi86  1  0.49941981  0.77857269  0.26462113  1
  Bi2+  Bi87  1  0.51245392  0.87951525  0.79463656  1
  Bi2+  Bi88  1  0.77483073  0.12986795  0.29402417  1
  Bi2+  Bi89  1  0.75940065  0.07869254  0.78528560  1
  Bi2+  Bi90  1  0.77652866  0.43955751  0.27116292  1
  Bi2+  Bi91  1  0.79855876  0.29475337  0.81474220  1
  Bi2+  Bi92  1  0.68308706  0.63628879  0.30976339  1
  Bi2+  Bi93  1  0.79218821  0.63711153  0.73861550  1
  Bi2+  Bi94  1  0.78077978  0.86060460  0.27714334  1
  Bi2+  Bi95  1  0.74267111  0.81305744  0.78903131  1
  Bi2+  Bi96  1  0.13401048  0.02739201  0.20609860  1
  Bi2+  Bi97  1  0.07500374  0.01473015  0.66994813  1
  Bi2+  Bi98  1  0.12695481  0.29400230  0.20947518  1
  Bi2+  Bi99  1  0.13140190  0.21697119  0.69799565  1
  Bi2+  Bi100  1  0.09962880  0.53567491  0.28752804  1
  Bi2+  Bi101  1  0.09013785  0.49366819  0.71410325  1
  Bi2+  Bi102  1  0.12000283  0.80699432  0.20973378  1
  Bi2+  Bi103  1  0.10849555  0.83323317  0.70916918  1
  Bi2+  Bi104  1  0.41199048  -0.03026692  0.19130483  1
  Bi2+  Bi105  1  0.35956224  -0.03419080  0.71413084  1
  Bi2+  Bi106  1  0.36292870  0.23581581  0.25410744  1
  Bi2+  Bi107  1  0.39110160  0.27941695  0.69399414  1
  Bi2+  Bi108  1  0.36853447  0.44825285  0.17737875  1
  Bi2+  Bi109  1  0.30820057  0.54871572  0.71201869  1
  Bi2+  Bi110  1  0.36427805  0.68831067  0.19411396  1
  Bi2+  Bi111  1  0.36330770  0.76219812  0.71307759  1
  Bi2+  Bi112  1  0.63848611  0.03666846  0.19434688  1
  Bi2+  Bi113  1  0.62709234  -0.05072690  0.71092324  1
  Bi2+  Bi114  1  0.64221344  0.29202159  0.20628604  1
  Bi2+  Bi115  1  0.64902123  0.29434496  0.70495460  1
  Bi2+  Bi116  1  0.61168445  0.52975701  0.22299519  1
  Bi2+  Bi117  1  0.60093260  0.52968887  0.71815531  1
  Bi2+  Bi118  1  0.66847615  0.74628635  0.21288944  1
  Bi2+  Bi119  1  0.55750164  0.77371668  0.69016907  1
  Bi2+  Bi120  1  0.88972925  -0.01401284  0.21945462  1
  Bi2+  Bi121  1  0.89286745  -0.01109542  0.71299173  1
  Bi2+  Bi122  1  0.90360680  0.33508824  0.20423969  1
  Bi2+  Bi123  1  0.87955887  0.20816266  0.72183569  1
  Bi2+  Bi124  1  0.90154542  0.55215368  0.20613567  1
  Bi2+  Bi125  1  0.83921658  0.44200711  0.73585232  1
  Bi2+  Bi126  1  0.92523311  0.77455918  0.21613710  1
  Bi2+  Bi127  1  0.83282448  0.80607772  0.68508565  1
  S2-  S128  1  0.11532877  0.16079820  0.14356540  1
  S2-  S129  1  -0.01332827  0.22663278  0.64402225  1
  S2-  S130  1  0.04404468  0.41001920  0.15779315  1
  S2-  S131  1  0.13728248  0.36011572  0.65103295  1
  S2-  S132  1  0.02769674  0.65463583  0.16487740  1
  S2-  S133  1  -0.03341299  0.49470997  0.65376642  1
  S2-  S134  1  0.00102649  0.97725651  0.14014297  1
  S2-  S135  1  -0.00706535  0.75263575  0.65040946  1
  S2-  S136  1  0.26298438  0.00195755  0.14118126  1
  S2-  S137  1  0.28540763  0.15611095  0.66039343  1
  S2-  S138  1  0.26275838  0.32558216  0.14925663  1
  S2-  S139  1  0.32777915  0.41558615  0.65365520  1
  S2-  S140  1  0.25391494  0.55808605  0.15728811  1
  S2-  S141  1  0.15951542  0.60471928  0.65581251  1
  S2-  S142  1  0.36922006  0.83083237  0.13667349  1
  S2-  S143  1  0.25845612  0.86028725  0.65071370  1
  S2-  S144  1  0.48627953  0.10647757  0.16005708  1
  S2-  S145  1  0.53488800  0.17612591  0.67879150  1
  S2-  S146  1  0.50980830  0.34196292  0.15173189  1
  S2-  S147  1  0.52843939  0.38947083  0.65723681  1
  S2-  S148  1  0.49942320  0.58130248  0.15412573  1
  S2-  S149  1  0.39323182  0.62314607  0.64102987  1
  S2-  S150  1  0.56580712  0.90842292  0.15389012  1
  S2-  S151  1  0.48629568  0.97673219  0.64518235  1
  S2-  S152  1  0.72136249  0.17881918  0.15774814  1
  S2-  S153  1  0.75093106  0.22744974  0.64313542  1
  S2-  S154  1  0.75036605  0.39242326  0.15318537  1
  S2-  S155  1  0.73637598  0.44238251  0.65903191  1
  S2-  S156  1  0.76390873  0.62992843  0.16230709  1
  S2-  S157  1  0.62441792  0.63109161  0.64025474  1
  S2-  S158  1  0.76849199  0.97885725  0.13997811  1
  S2-  S159  1  0.74196323  0.99774757  0.64194153  1
  S2-  S160  1  0.13166704  0.10320613  0.35864575  1
  S2-  S161  1  0.02019116  -0.01992299  0.85657794  1
  S2-  S162  1  0.10358124  0.30525885  0.33032267  1
  S2-  S163  1  0.11684005  0.28250470  0.83634518  1
  S2-  S164  1  0.22370788  0.48315918  0.36182193  1
  S2-  S165  1  0.18018661  0.52954549  0.83256296  1
  S2-  S166  1  0.01340070  0.75975399  0.36723191  1
  S2-  S167  1  0.10021135  0.74451912  0.85219692  1
  S2-  S168  1  0.42288248  0.00309317  0.34682325  1
  S2-  S169  1  0.39827448  0.08317213  0.84461664  1
  S2-  S170  1  0.33214210  0.23455816  0.35278844  1
  S2-  S171  1  0.32030162  0.24412566  0.78423594  1
  S2-  S172  1  0.51091969  0.48875031  0.35761157  1
  S2-  S173  1  0.36784801  0.40893451  0.84445055  1
  S2-  S174  1  0.34372086  0.65132913  0.35761269  1
  S2-  S175  1  0.37927935  0.62810921  0.85276401  1
  S2-  S176  1  0.65056004  0.03471649  0.33679405  1
  S2-  S177  1  0.62825671  0.11016500  0.84952949  1
  S2-  S178  1  0.57748957  0.25735880  0.33478209  1
  S2-  S179  1  0.53255304  0.27471188  0.84078884  1
  S2-  S180  1  0.75371025  0.50351110  0.36493390  1
  S2-  S181  1  0.62519463  0.50161694  0.83125738  1
  S2-  S182  1  0.51897816  0.77547237  0.36260865  1
  S2-  S183  1  0.61414110  0.74937347  0.84889060  1
  S2-  S184  1  0.88089725  0.03701449  0.35396152  1
  S2-  S185  1  0.75647943  -0.04904511  0.85291755  1
  S2-  S186  1  0.79187781  0.25237602  0.35566572  1
  S2-  S187  1  0.87197605  0.14379958  0.85591702  1
  S2-  S188  1  0.99012859  0.50188984  0.36751395  1
  S2-  S189  1  0.96779245  0.50745138  0.85872101  1
  S2-  S190  1  0.76000222  0.76414779  0.36310352  1
  S2-  S191  1  0.86624728  0.73820656  0.85567440  1
  S2-  S192  1  0.00321290  0.12382711  0.45780755  1
  S2-  S193  1  0.00368601  0.12198987  0.95759372  1
  S2-  S194  1  0.00113776  0.36726782  0.46230871  1
  S2-  S195  1  -0.00218677  0.36905631  0.95447172  1
  S2-  S196  1  -0.00096083  0.62382347  0.46951138  1
  S2-  S197  1  -0.00041948  0.62487636  0.96178858  1
  S2-  S198  1  0.00250234  0.87701510  0.46569081  1
  S2-  S199  1  -0.00087288  0.86555122  0.95928823  1
  S2-  S200  1  0.25426398  0.11995642  0.45885764  1
  S2-  S201  1  0.24851167  0.12486964  0.94410944  1
  S2-  S202  1  0.25216832  0.36675051  0.45893183  1
  S2-  S203  1  0.24289025  0.37492193  0.94427682  1
  S2-  S204  1  0.24535125  0.62698664  0.46167111  1
  S2-  S205  1  0.24125593  0.62149430  0.95411561  1
  S2-  S206  1  0.25182636  0.87150975  0.44307233  1
  S2-  S207  1  0.24690297  0.87100556  0.95541077  1
  S2-  S208  1  0.50341899  0.12378008  0.45663267  1
  S2-  S209  1  0.49633315  0.12201551  0.95036897  1
  S2-  S210  1  0.50298231  0.36717777  0.45329438  1
  S2-  S211  1  0.49335924  0.36907594  0.94741000  1
  S2-  S212  1  0.50760814  0.62522837  0.45648013  1
  S2-  S213  1  0.50160374  0.62057432  0.95050399  1
  S2-  S214  1  0.50358258  0.88031478  0.46152659  1
  S2-  S215  1  0.49743237  0.87000230  0.94912066  1
  S2-  S216  1  0.75351320  0.12024237  0.45882187  1
  S2-  S217  1  0.74932397  0.11906701  0.95661467  1
  S2-  S218  1  0.75364893  0.37141508  0.46027973  1
  S2-  S219  1  0.74928826  0.37008060  0.94866972  1
  S2-  S220  1  0.75409688  0.62369945  0.46355099  1
  S2-  S221  1  0.74998400  0.61889304  0.95394579  1
  S2-  S222  1  0.75412382  0.88062528  0.46142732  1
  S2-  S223  1  0.75097713  0.86339216  0.96061615  1
  S2-  S224  1  0.12742563  -0.00739234  0.04004025  1
  S2-  S225  1  0.12692513  -0.00233297  0.54396885  1
  S2-  S226  1  0.12364828  0.24835452  0.03886098  1
  S2-  S227  1  0.12780423  0.24232952  0.54156348  1
  S2-  S228  1  0.12228459  0.49685164  0.04110959  1
  S2-  S229  1  0.12735357  0.49446853  0.54711600  1
  S2-  S230  1  0.12826935  0.75159766  0.05516384  1
  S2-  S231  1  0.12980998  0.74880159  0.54968169  1
  S2-  S232  1  0.37288434  -0.00108581  0.03678447  1
  S2-  S233  1  0.37422449  0.00043401  0.54629602  1
  S2-  S234  1  0.37243199  0.24420308  0.04769475  1
  S2-  S235  1  0.37737641  0.24512587  0.55281230  1
  S2-  S236  1  0.37491817  0.49500471  0.03751474  1
  S2-  S237  1  0.37875903  0.49594666  0.53619644  1
  S2-  S238  1  0.37233644  0.74062988  0.03420053  1
  S2-  S239  1  0.38249854  0.75196059  0.54188204  1
  S2-  S240  1  0.62187194  -0.00777557  0.03755473  1
  S2-  S241  1  0.62316154  -0.00164182  0.54402721  1
  S2-  S242  1  0.62429483  0.24584388  0.03844006  1
  S2-  S243  1  0.62028680  0.24389176  0.54423012  1
  S2-  S244  1  0.62433102  0.49160637  0.04326395  1
  S2-  S245  1  0.62590114  0.49407175  0.54306182  1
  S2-  S246  1  0.62275326  0.74370646  0.05367251  1
  S2-  S247  1  0.63005462  0.75363275  0.54350717  1
  S2-  S248  1  0.87736046  -0.00987315  0.03573157  1
  S2-  S249  1  0.88407216  -0.00149384  0.55421503  1
  S2-  S250  1  0.87676332  0.24202199  0.04966963  1
  S2-  S251  1  0.87716629  0.24282106  0.54383645  1
  S2-  S252  1  0.87551596  0.49260964  0.04909525  1
  S2-  S253  1  0.87174900  0.49455039  0.54781238  1
  S2-  S254  1  0.87688219  0.74727470  0.05890779  1
  S2-  S255  1  0.87076078  0.74808405  0.54896814  1
