# generated using pymatgen
data_La9Ce10Pr6Nd4Sm3(BiS2)32
_symmetry_space_group_name_H-M   'P 1'
_cell_length_a   16.20999188
_cell_length_b   16.22739494
_cell_length_c   27.17498883
_cell_angle_alpha   89.77121589
_cell_angle_beta   89.98471781
_cell_angle_gamma   90.01413388
_symmetry_Int_Tables_number   1
_chemical_formula_structural   La9Ce10Pr6Nd4Sm3(BiS2)32
_chemical_formula_sum   'La18 Ce20 Pr12 Nd8 Sm6 Bi64 S128'
_cell_volume   7148.21302831
_cell_formula_units_Z   2
loop_
 _symmetry_equiv_pos_site_id
 _symmetry_equiv_pos_as_xyz
  1  'x, y, z'
loop_
 _atom_type_symbol
 _atom_type_oxidation_number
  La3+  3.0
  Ce3+  3.0
  Pr3+  3.0
  Nd3+  3.0
  Sm3+  3.0
  Bi2+  2.0
  S2-  -2.0
loop_
 _atom_site_type_symbol
 _atom_site_label
 _atom_site_symmetry_multiplicity
 _atom_site_fract_x
 _atom_site_fract_y
 _atom_site_fract_z
 _atom_site_occupancy
  La3+  La0  1  0.62683449  0.74480127  0.93963546  1
  La3+  La1  1  0.26497013  0.61913164  0.55883614  1
  La3+  La2  1  0.39206814  0.74379079  0.43043353  1
  La3+  La3  1  0.00341625  0.11704867  0.06224428  1
  La3+  La4  1  0.74475936  0.61035286  0.07091830  1
  La3+  La5  1  0.64165849  0.74170069  0.43197671  1
  La3+  La6  1  0.49342385  0.11187570  0.06961900  1
  La3+  La7  1  0.24807090  0.62128862  0.06000487  1
  La3+  La8  1  0.40008334  0.24316622  0.43278345  1
  La3+  La9  1  0.51519296  0.36133804  0.59303004  1
  La3+  La10  1  0.14178463  -0.00637954  0.41668710  1
  La3+  La11  1  -0.00896202  0.61971428  0.07932377  1
  La3+  La12  1  0.74665709  0.36083439  0.06944221  1
  La3+  La13  1  0.38189981  -0.01261384  0.91985388  1
  La3+  La14  1  0.88949786  0.49119918  0.43664465  1
  La3+  La15  1  0.01787706  0.86135736  0.56994727  1
  La3+  La16  1  0.88867066  -0.00784645  0.43345385  1
  La3+  La17  1  0.13657728  0.73956578  0.41344624  1
  Ce3+  Ce18  1  0.62626598  0.49170990  0.93355896  1
  Ce3+  Ce19  1  0.88906851  0.24295019  0.44966370  1
  Ce3+  Ce20  1  0.00233293  0.36851668  0.05490524  1
  Ce3+  Ce21  1  0.24641021  0.87005404  0.05640317  1
  Ce3+  Ce22  1  0.87409369  -0.00537421  0.93964800  1
  Ce3+  Ce23  1  0.11726013  0.74457288  0.94916086  1
  Ce3+  Ce24  1  0.75303213  0.86910580  0.05914568  1
  Ce3+  Ce25  1  0.87365859  0.24499981  0.94159306  1
  Ce3+  Ce26  1  0.13816241  0.24056749  0.43405363  1
  Ce3+  Ce27  1  0.87372464  0.49379177  0.94475366  1
  Ce3+  Ce28  1  0.12157392  0.49750407  0.94167900  1
  Ce3+  Ce29  1  0.12416865  0.24237108  0.93752251  1
  Ce3+  Ce30  1  0.76795007  0.61812872  0.56128139  1
  Ce3+  Ce31  1  0.49914373  0.86871087  0.06585994  1
  Ce3+  Ce32  1  0.63729439  0.24282997  0.45130520  1
  Ce3+  Ce33  1  0.76535051  0.11544757  0.55945222  1
  Ce3+  Ce34  1  0.49323333  0.36578292  0.05446183  1
  Ce3+  Ce35  1  0.37293678  0.49379232  0.93458400  1
  Ce3+  Ce36  1  0.37279574  0.74739822  0.93974146  1
  Ce3+  Ce37  1  0.62339992  -0.00390472  0.94488673  1
  Pr3+  Pr38  1  0.51748793  0.62225595  0.56758996  1
  Pr3+  Pr39  1  0.25948544  0.11632087  0.55977306  1
  Pr3+  Pr40  1  0.01642111  0.36961461  0.56751478  1
  Pr3+  Pr41  1  0.14077551  0.49183128  0.43143122  1
  Pr3+  Pr42  1  0.49967505  0.61746550  0.04918177  1
  Pr3+  Pr43  1  0.50426465  0.11155914  0.57861024  1
  Pr3+  Pr44  1  0.26225751  0.86721483  0.55626684  1
  Pr3+  Pr45  1  0.01765782  0.11526614  0.56288326  1
  Pr3+  Pr46  1  0.39189443  -0.00540656  0.43546799  1
  Pr3+  Pr47  1  -0.00981906  0.87819092  0.09119862  1
  Pr3+  Pr48  1  0.76268456  0.36752539  0.56977504  1
  Pr3+  Pr49  1  0.39321491  0.49081918  0.44780552  1
  Nd3+  Nd50  1  0.37506064  0.24051875  0.93031368  1
  Nd3+  Nd51  1  0.24879824  0.36889819  0.05155447  1
  Nd3+  Nd52  1  0.26692736  0.36580248  0.55424306  1
  Nd3+  Nd53  1  0.25084755  0.11335037  0.04983809  1
  Nd3+  Nd54  1  0.11854561  -0.00972065  0.93447631  1
  Nd3+  Nd55  1  0.63729909  0.49120210  0.45021742  1
  Nd3+  Nd56  1  0.63357295  -0.00464849  0.43872606  1
  Nd3+  Nd57  1  0.01699442  0.61485945  0.56323672  1
  Sm3+  Sm58  1  0.62244267  0.24370530  0.94323842  1
  Sm3+  Sm59  1  0.88951286  0.74338223  0.43627065  1
  Sm3+  Sm60  1  0.52332835  0.86874519  0.56773226  1
  Sm3+  Sm61  1  0.87589240  0.74208801  0.94455215  1
  Sm3+  Sm62  1  0.74909709  0.12161646  0.05813762  1
  Sm3+  Sm63  1  0.76813597  0.86714532  0.56342878  1
  Bi2+  Bi64  1  0.00243590  0.12270631  0.28666452  1
  Bi2+  Bi65  1  -0.06558961  0.12455056  0.78151915  1
  Bi2+  Bi66  1  -0.02986966  0.36584673  0.29164124  1
  Bi2+  Bi67  1  -0.05734656  0.39910517  0.78740471  1
  Bi2+  Bi68  1  0.00848013  0.62068761  0.28405680  1
  Bi2+  Bi69  1  -0.00127407  0.63271506  0.81625599  1
  Bi2+  Bi70  1  0.01288453  0.86621302  0.28037339  1
  Bi2+  Bi71  1  0.02523532  0.88244947  0.79359128  1
  Bi2+  Bi72  1  0.25680944  0.12729148  0.28187195  1
  Bi2+  Bi73  1  0.18769465  0.12650350  0.78508411  1
  Bi2+  Bi74  1  0.16047553  0.39042478  0.30981006  1
  Bi2+  Bi75  1  0.16415612  0.31128909  0.74118888  1
  Bi2+  Bi76  1  0.27917131  0.56789754  0.30032677  1
  Bi2+  Bi77  1  0.27015087  0.61859522  0.78264594  1
  Bi2+  Bi78  1  0.28866972  0.86382336  0.28749666  1
  Bi2+  Bi79  1  0.28137059  0.81680642  0.77906055  1
  Bi2+  Bi80  1  0.49527313  0.16254112  0.30181227  1
  Bi2+  Bi81  1  0.47830322  0.14487917  0.80451002  1
  Bi2+  Bi82  1  0.52633259  0.42615976  0.25529632  1
  Bi2+  Bi83  1  0.48631701  0.39718673  0.79882518  1
  Bi2+  Bi84  1  0.51398721  0.61542009  0.30187816  1
  Bi2+  Bi85  1  0.45184962  0.68073129  0.76045814  1
  Bi2+  Bi86  1  0.51546696  0.89171572  0.28713972  1
  Bi2+  Bi87  1  0.56419959  0.85497626  0.80706380  1
  Bi2+  Bi88  1  0.74260943  0.19402554  0.32009121  1
  Bi2+  Bi89  1  0.75041970  0.05496436  0.79608370  1
  Bi2+  Bi90  1  0.71129423  0.36408547  0.26669488  1
  Bi2+  Bi91  1  0.73793709  0.32040207  0.79793455  1
  Bi2+  Bi92  1  0.75995511  0.60521443  0.29571580  1
  Bi2+  Bi93  1  0.76785399  0.64004508  0.79436773  1
  Bi2+  Bi94  1  0.74960356  0.99936083  0.32330671  1
  Bi2+  Bi95  1  0.73448592  0.87931419  0.74763389  1
  Bi2+  Bi96  1  0.13700338  -0.02287845  0.19316054  1
  Bi2+  Bi97  1  0.11735613  -0.00601716  0.70660514  1
  Bi2+  Bi98  1  0.11247395  0.25182109  0.23351188  1
  Bi2+  Bi99  1  0.01616451  0.23312560  0.68112259  1
  Bi2+  Bi100  1  0.12751506  0.45245127  0.20004362  1
  Bi2+  Bi101  1  0.09277180  0.49432951  0.73641574  1
  Bi2+  Bi102  1  0.20113052  0.74608583  0.21232783  1
  Bi2+  Bi103  1  0.13822240  0.74211327  0.70932407  1
  Bi2+  Bi104  1  0.36872329  0.04924958  0.19871863  1
  Bi2+  Bi105  1  0.32838937  -0.00466688  0.72901353  1
  Bi2+  Bi106  1  0.38485300  0.32199145  0.21002118  1
  Bi2+  Bi107  1  0.37463843  0.24564331  0.70028383  1
  Bi2+  Bi108  1  0.38683895  0.54507946  0.20578322  1
  Bi2+  Bi109  1  0.33227766  0.50301867  0.69737148  1
  Bi2+  Bi110  1  0.43498605  0.74952855  0.22066566  1
  Bi2+  Bi111  1  0.40593128  0.83350810  0.68837851  1
  Bi2+  Bi112  1  0.62618933  0.00843559  0.21646965  1
  Bi2+  Bi113  1  0.58886580  0.01279465  0.73004811  1
  Bi2+  Bi114  1  0.62688975  0.20434276  0.21912004  1
  Bi2+  Bi115  1  0.68272864  0.18883403  0.71821991  1
  Bi2+  Bi116  1  0.66672712  0.61505038  0.19916484  1
  Bi2+  Bi117  1  0.69324798  0.47539226  0.73394821  1
  Bi2+  Bi118  1  0.63248447  0.80424128  0.20652108  1
  Bi2+  Bi119  1  0.61436138  0.72079182  0.69704868  1
  Bi2+  Bi120  1  0.82315276  -0.00099538  0.21419542  1
  Bi2+  Bi121  1  0.93016508  0.04060444  0.68311099  1
  Bi2+  Bi122  1  0.84554396  0.23849976  0.22310172  1
  Bi2+  Bi123  1  0.84978014  0.33295376  0.68958669  1
  Bi2+  Bi124  1  0.87763698  0.49986296  0.18965682  1
  Bi2+  Bi125  1  0.88665095  0.52971859  0.70049154  1
  Bi2+  Bi126  1  0.79608280  0.82994630  0.27327576  1
  Bi2+  Bi127  1  0.88474528  0.76115702  0.70888443  1
  S2-  S128  1  0.00139608  0.03005948  0.14985554  1
  S2-  S129  1  0.13750528  0.12271607  0.63760708  1
  S2-  S130  1  -0.01273800  0.37805166  0.15173308  1
  S2-  S131  1  0.02618099  0.49397653  0.64042389  1
  S2-  S132  1  0.02862058  0.58874078  0.17852816  1
  S2-  S133  1  0.01094641  0.71909649  0.64472118  1
  S2-  S134  1  0.04994574  0.81505871  0.18161874  1
  S2-  S135  1  -0.11609907  0.87971009  0.64217845  1
  S2-  S136  1  0.22189883  0.10223786  0.14881538  1
  S2-  S137  1  0.34609963  0.11284356  0.65101815  1
  S2-  S138  1  0.25429665  0.36569448  0.15112691  1
  S2-  S139  1  0.25347355  0.36641351  0.65437891  1
  S2-  S140  1  0.23927299  0.60851182  0.16020581  1
  S2-  S141  1  0.23205434  0.63630042  0.65728322  1
  S2-  S142  1  0.26851038  0.87516500  0.15400749  1
  S2-  S143  1  0.15681254  0.87187932  0.63927304  1
  S2-  S144  1  0.42890172  0.18264940  0.15631045  1
  S2-  S145  1  0.52126193  0.21931645  0.65996897  1
  S2-  S146  1  0.51185243  0.38572765  0.15026998  1
  S2-  S147  1  0.45624927  0.40248214  0.69283004  1
  S2-  S148  1  0.50358516  0.63003819  0.14938397  1
  S2-  S149  1  0.48234116  0.60911946  0.66696006  1
  S2-  S150  1  0.48759088  0.97659055  0.14176599  1
  S2-  S151  1  0.50157329  0.97587816  0.64597025  1
  S2-  S152  1  0.74913143  0.22160419  0.13976108  1
  S2-  S153  1  0.76474735  0.08563412  0.65571880  1
  S2-  S154  1  0.72838886  0.47208375  0.14593156  1
  S2-  S155  1  0.66118144  0.39327318  0.65346522  1
  S2-  S156  1  0.84381225  0.64536620  0.15282799  1
  S2-  S157  1  0.76616846  0.64845272  0.65867152  1
  S2-  S158  1  0.83560809  0.87839785  0.14469270  1
  S2-  S159  1  0.65464287  0.84295286  0.63855572  1
  S2-  S160  1  0.13992347  -0.13027741  0.34070528  1
  S2-  S161  1  0.14142630  -0.02618910  0.83567119  1
  S2-  S162  1  0.13344575  0.13934909  0.35418463  1
  S2-  S163  1  0.12336758  0.24916499  0.83972868  1
  S2-  S164  1  0.12306497  0.59421625  0.34792122  1
  S2-  S165  1  0.10915553  0.51006355  0.84475867  1
  S2-  S166  1  -0.01641003  0.73990401  0.34899162  1
  S2-  S167  1  0.09588504  0.74854194  0.85059865  1
  S2-  S168  1  0.29141348  -0.00130236  0.34968673  1
  S2-  S169  1  0.34166162  0.06182579  0.82837390  1
  S2-  S170  1  0.34946032  0.23630403  0.33258616  1
  S2-  S171  1  0.37872004  0.27258517  0.83097771  1
  S2-  S172  1  0.40525401  0.48908303  0.34677826  1
  S2-  S173  1  0.36781635  0.49464533  0.83541655  1
  S2-  S174  1  0.29145303  0.72416617  0.34574064  1
  S2-  S175  1  0.39240258  0.83827938  0.85805794  1
  S2-  S176  1  0.51708976  0.01333698  0.36127510  1
  S2-  S177  1  0.53973338  0.00598786  0.86012063  1
  S2-  S178  1  0.54888461  0.26836149  0.36830702  1
  S2-  S179  1  0.60513381  0.24778820  0.84494720  1
  S2-  S180  1  0.64532041  0.53032989  0.35236621  1
  S2-  S181  1  0.60753021  0.48680559  0.83487802  1
  S2-  S182  1  0.52146774  0.75269256  0.35768526  1
  S2-  S183  1  0.63852493  0.71009365  0.84080255  1
  S2-  S184  1  0.97766051  -0.00574057  0.34499658  1
  S2-  S185  1  0.92755321  -0.02173583  0.84695621  1
  S2-  S186  1  0.91953966  0.23921202  0.35269681  1
  S2-  S187  1  0.88653553  0.25411040  0.84380943  1
  S2-  S188  1  0.89946083  0.51094604  0.33547595  1
  S2-  S189  1  0.86320794  0.51733693  0.84734828  1
  S2-  S190  1  0.76810117  0.73876687  0.35984765  1
  S2-  S191  1  0.86734331  0.74287118  0.84493209  1
  S2-  S192  1  0.01180445  0.12075452  0.45663791  1
  S2-  S193  1  -0.00049165  0.11926464  0.95151208  1
  S2-  S194  1  0.01552664  0.36804373  0.45477369  1
  S2-  S195  1  0.00037417  0.36908701  0.94827473  1
  S2-  S196  1  0.01122059  0.61495910  0.45561641  1
  S2-  S197  1  -0.00403986  0.61835319  0.96304683  1
  S2-  S198  1  0.00904328  0.86604002  0.45462684  1
  S2-  S199  1  -0.00554926  0.86831956  0.95592613  1
  S2-  S200  1  0.26905221  0.12460282  0.45335398  1
  S2-  S201  1  0.24785967  0.11532798  0.94406559  1
  S2-  S202  1  0.26678747  0.36690070  0.44746466  1
  S2-  S203  1  0.24860063  0.36891490  0.94435738  1
  S2-  S204  1  0.26761146  0.61357651  0.45226941  1
  S2-  S205  1  0.24822864  0.62172428  0.95028336  1
  S2-  S206  1  0.26697296  0.86435342  0.45092012  1
  S2-  S207  1  0.24405741  0.86760368  0.94970648  1
  S2-  S208  1  0.51624927  0.11854932  0.46788766  1
  S2-  S209  1  0.49860102  0.12230767  0.95810836  1
  S2-  S210  1  0.51675652  0.37057095  0.47215465  1
  S2-  S211  1  0.49752427  0.36710974  0.94731937  1
  S2-  S212  1  0.51447407  0.61580934  0.45991425  1
  S2-  S213  1  0.49768667  0.61980976  0.94234297  1
  S2-  S214  1  0.51490381  0.87014884  0.46237492  1
  S2-  S215  1  0.50437491  0.86772840  0.96151332  1
  S2-  S216  1  0.76189486  0.11869837  0.45373369  1
  S2-  S217  1  0.74738708  0.12203252  0.95280238  1
  S2-  S218  1  0.76245347  0.36716389  0.45748573  1
  S2-  S219  1  0.74715488  0.36631794  0.95522452  1
  S2-  S220  1  0.76615534  0.61240613  0.45677383  1
  S2-  S221  1  0.75026373  0.61815908  0.95752823  1
  S2-  S222  1  0.76145579  0.87237968  0.45696327  1
  S2-  S223  1  0.75164127  0.86982681  0.94974898  1
  S2-  S224  1  0.12196179  -0.01066576  0.04206203  1
  S2-  S225  1  0.13829317  -0.00873652  0.53343625  1
  S2-  S226  1  0.12787599  0.24220823  0.04574977  1
  S2-  S227  1  0.13838497  0.24952833  0.54039121  1
  S2-  S228  1  0.12327387  0.49535090  0.04914261  1
  S2-  S229  1  0.14379975  0.49019344  0.53935301  1
  S2-  S230  1  0.11721122  0.74613973  0.05640381  1
  S2-  S231  1  0.13994817  0.73715843  0.53646332  1
  S2-  S232  1  0.37118808  -0.01055360  0.03575705  1
  S2-  S233  1  0.38479902  -0.01095373  0.54283962  1
  S2-  S234  1  0.36882159  0.24239388  0.03831742  1
  S2-  S235  1  0.38898833  0.24406323  0.54727728  1
  S2-  S236  1  0.37235009  0.49419220  0.04318951  1
  S2-  S237  1  0.39251522  0.49172609  0.55582328  1
  S2-  S238  1  0.37535963  0.74522238  0.04757775  1
  S2-  S239  1  0.39359812  0.74568424  0.54757081  1
  S2-  S240  1  0.63119117  -0.00488330  0.05037191  1
  S2-  S241  1  0.64319727  -0.00764133  0.54521453  1
  S2-  S242  1  0.61688706  0.23896500  0.04712667  1
  S2-  S243  1  0.64163238  0.23956585  0.55545457  1
  S2-  S244  1  0.61843164  0.48879822  0.03972211  1
  S2-  S245  1  0.63966519  0.49681640  0.55440961  1
  S2-  S246  1  0.62600444  0.74455201  0.04968616  1
  S2-  S247  1  0.64392446  0.73834881  0.54032967  1
  S2-  S248  1  0.87128605  -0.00016842  0.04433815  1
  S2-  S249  1  0.89001271  -0.00522289  0.54178357  1
  S2-  S250  1  0.87890398  0.24171718  0.04628893  1
  S2-  S251  1  0.89019935  0.24356764  0.55435352  1
  S2-  S252  1  0.87560732  0.48862446  0.04898568  1
  S2-  S253  1  0.88680225  0.48937045  0.54602978  1
  S2-  S254  1  0.87597289  0.74682217  0.04774683  1
  S2-  S255  1  0.88687421  0.74060233  0.54080931  1
