# generated using pymatgen
data_La9Ce10Pr6Nd4Sm3(BiS2)32
_symmetry_space_group_name_H-M   'P 1'
_cell_length_a   16.16340108
_cell_length_b   16.17354775
_cell_length_c   27.09753809
_cell_angle_alpha   90.03550842
_cell_angle_beta   89.83487234
_cell_angle_gamma   89.97410126
_symmetry_Int_Tables_number   1
_chemical_formula_structural   La9Ce10Pr6Nd4Sm3(BiS2)32
_chemical_formula_sum   'La18 Ce20 Pr12 Nd8 Sm6 Bi64 S128'
_cell_volume   7083.79441281
_cell_formula_units_Z   2
loop_
 _symmetry_equiv_pos_site_id
 _symmetry_equiv_pos_as_xyz
  1  'x, y, z'
loop_
 _atom_type_symbol
 _atom_type_oxidation_number
  La3+  3.0
  Ce3+  3.0
  Pr3+  3.0
  Nd3+  3.0
  Sm3+  3.0
  Bi2+  2.0
  S2-  -2.0
loop_
 _atom_site_type_symbol
 _atom_site_label
 _atom_site_symmetry_multiplicity
 _atom_site_fract_x
 _atom_site_fract_y
 _atom_site_fract_z
 _atom_site_occupancy
  La3+  La0  1  0.50436783  0.12586837  0.06966062  1
  La3+  La1  1  0.62835169  0.75243590  0.93886309  1
  La3+  La2  1  0.13943067  0.75083857  0.92310745  1
  La3+  La3  1  0.37538765  0.50174805  0.43516018  1
  La3+  La4  1  0.88519334  -0.00207793  0.43213690  1
  La3+  La5  1  0.87181997  0.49026400  0.42447669  1
  La3+  La6  1  0.87313960  0.24580087  0.91303424  1
  La3+  La7  1  0.76666881  0.36484800  0.06830629  1
  La3+  La8  1  0.25287458  0.61444693  0.59278753  1
  La3+  La9  1  -0.01007298  0.61418402  0.57928824  1
  La3+  La10  1  0.00009319  0.12187121  0.06445287  1
  La3+  La11  1  0.13728566  0.25231933  0.92777477  1
  La3+  La12  1  0.12842492  0.51693384  0.40455120  1
  La3+  La13  1  0.24875770  0.88557198  0.60577714  1
  La3+  La14  1  -0.00890076  0.86948050  0.58588060  1
  La3+  La15  1  0.49687122  0.86276807  0.10809077  1
  La3+  La16  1  0.62500436  0.75753782  0.42862527  1
  La3+  La17  1  0.87254231  0.50398004  0.91440523  1
  Ce3+  Ce18  1  0.51532924  0.37338874  0.07923701  1
  Ce3+  Ce19  1  0.12196137  -0.00258349  0.45361117  1
  Ce3+  Ce20  1  0.74935275  0.87449763  0.55648403  1
  Ce3+  Ce21  1  0.75680873  0.62448909  0.05369804  1
  Ce3+  Ce22  1  0.50606121  0.62454340  0.05655560  1
  Ce3+  Ce23  1  0.49999461  0.11899618  0.56285069  1
  Ce3+  Ce24  1  0.62266836  0.00332021  0.43006505  1
  Ce3+  Ce25  1  0.36817607  0.24717584  0.44272615  1
  Ce3+  Ce26  1  0.74432281  0.37368746  0.55226525  1
  Ce3+  Ce27  1  0.49831435  0.37344950  0.55338210  1
  Ce3+  Ce28  1  0.88246944  0.75017959  0.93473222  1
  Ce3+  Ce29  1  0.25277136  0.37837631  0.06550919  1
  Ce3+  Ce30  1  0.74391956  0.62209137  0.55682512  1
  Ce3+  Ce31  1  0.75406359  0.87546411  0.06216822  1
  Ce3+  Ce32  1  0.49700285  0.62761813  0.56300783  1
  Ce3+  Ce33  1  0.24578562  0.37551714  0.55674225  1
  Ce3+  Ce34  1  0.62150903  0.24170578  0.43248211  1
  Ce3+  Ce35  1  -0.00401842  0.37432162  0.56116454  1
  Ce3+  Ce36  1  0.00441884  0.87636164  0.05547311  1
  Ce3+  Ce37  1  0.37956783  0.74841358  0.93957090  1
  Pr3+  Pr38  1  0.62425459  0.50816384  0.42662901  1
  Pr3+  Pr39  1  0.00182957  0.62438681  0.06096568  1
  Pr3+  Pr40  1  0.12950964  0.25122343  0.43571425  1
  Pr3+  Pr41  1  0.74514992  0.12443052  0.56463708  1
  Pr3+  Pr42  1  -0.00853284  0.13012362  0.57347761  1
  Pr3+  Pr43  1  0.25429867  0.88203876  0.06845919  1
  Pr3+  Pr44  1  0.88217239  -0.00289438  0.93224057  1
  Pr3+  Pr45  1  0.25597890  0.62687565  0.06345022  1
  Pr3+  Pr46  1  0.88264425  0.24398488  0.42819244  1
  Pr3+  Pr47  1  0.12626119  0.74464716  0.46532651  1
  Pr3+  Pr48  1  0.12982313  0.50168403  0.93486218  1
  Pr3+  Pr49  1  0.25256008  0.12862358  0.05960661  1
  Nd3+  Nd50  1  0.62686483  -0.00038968  0.94460653  1
  Nd3+  Nd51  1  0.13320485  0.00289523  0.93144117  1
  Nd3+  Nd52  1  0.24587817  0.12749274  0.57048531  1
  Nd3+  Nd53  1  0.88381279  0.74380205  0.44465634  1
  Nd3+  Nd54  1  0.62902534  0.25329838  0.93830518  1
  Nd3+  Nd55  1  0.36652192  0.74896208  0.44809780  1
  Nd3+  Nd56  1  0.38379195  0.25520223  0.94152889  1
  Nd3+  Nd57  1  0.38094708  0.00000474  0.94247637  1
  Sm3+  Sm58  1  0.75334036  0.11532876  0.05729414  1
  Sm3+  Sm59  1  0.49443991  0.87445793  0.55497048  1
  Sm3+  Sm60  1  0.36898562  -0.00230433  0.44165690  1
  Sm3+  Sm61  1  0.00607291  0.37359296  0.04910997  1
  Sm3+  Sm62  1  0.62989062  0.49498139  0.93943359  1
  Sm3+  Sm63  1  0.38227799  0.49808194  0.94466639  1
  Bi2+  Bi64  1  -0.00197733  0.10802236  0.29558961  1
  Bi2+  Bi65  1  0.00379612  0.09585516  0.79073379  1
  Bi2+  Bi66  1  -0.00486784  0.37175994  0.29160376  1
  Bi2+  Bi67  1  0.03158711  0.33481070  0.76546216  1
  Bi2+  Bi68  1  0.00451727  0.65738199  0.28795438  1
  Bi2+  Bi69  1  -0.00634417  0.59044664  0.79153568  1
  Bi2+  Bi70  1  -0.04708132  0.87074378  0.30177371  1
  Bi2+  Bi71  1  -0.11132416  0.86514757  0.81042936  1
  Bi2+  Bi72  1  0.25240293  0.11322289  0.29001615  1
  Bi2+  Bi73  1  0.23275350  0.11608700  0.79932975  1
  Bi2+  Bi74  1  0.32204291  0.38714412  0.30570389  1
  Bi2+  Bi75  1  0.33065848  0.38583653  0.79866527  1
  Bi2+  Bi76  1  0.24012098  0.68558745  0.29718012  1
  Bi2+  Bi77  1  0.23719429  0.63156203  0.79534716  1
  Bi2+  Bi78  1  0.14197252  0.84393778  0.25700959  1
  Bi2+  Bi79  1  0.30150889  0.88624015  0.78250894  1
  Bi2+  Bi80  1  0.50792221  0.22926109  0.30209176  1
  Bi2+  Bi81  1  0.49959209  0.18704139  0.80544948  1
  Bi2+  Bi82  1  0.52536928  0.41945988  0.31908358  1
  Bi2+  Bi83  1  0.50635745  0.37255382  0.85155705  1
  Bi2+  Bi84  1  0.47778246  0.61046471  0.28726778  1
  Bi2+  Bi85  1  0.49510273  0.60159426  0.78779845  1
  Bi2+  Bi86  1  0.46945066  0.88126238  0.30085697  1
  Bi2+  Bi87  1  0.49990272  0.91437750  0.77888539  1
  Bi2+  Bi88  1  0.74721685  0.12686893  0.27764187  1
  Bi2+  Bi89  1  0.68099689  0.12077714  0.78091112  1
  Bi2+  Bi90  1  0.72979346  0.38170151  0.28310825  1
  Bi2+  Bi91  1  0.67540590  0.37504816  0.78745770  1
  Bi2+  Bi92  1  0.79554719  0.61756356  0.27223342  1
  Bi2+  Bi93  1  0.72765903  0.63616382  0.78717356  1
  Bi2+  Bi94  1  0.76116532  0.90915893  0.28479857  1
  Bi2+  Bi95  1  0.69579435  0.84260147  0.80689532  1
  Bi2+  Bi96  1  0.12135280  0.02056647  0.21280126  1
  Bi2+  Bi97  1  0.12754194  0.10421276  0.69807304  1
  Bi2+  Bi98  1  0.16645390  0.24143484  0.21339909  1
  Bi2+  Bi99  1  0.20185094  0.27946077  0.68116980  1
  Bi2+  Bi100  1  0.15495431  0.50168646  0.20976052  1
  Bi2+  Bi101  1  0.14001462  0.47056462  0.71344503  1
  Bi2+  Bi102  1  -0.00824334  0.77129948  0.19241690  1
  Bi2+  Bi103  1  0.10271182  0.78698216  0.72287264  1
  Bi2+  Bi104  1  0.36195651  -0.00480578  0.21951366  1
  Bi2+  Bi105  1  0.43442599  0.04755915  0.70217256  1
  Bi2+  Bi106  1  0.36249918  0.24597315  0.21847129  1
  Bi2+  Bi107  1  0.38093477  0.23388598  0.71683836  1
  Bi2+  Bi108  1  0.34799968  0.44184341  0.19215989  1
  Bi2+  Bi109  1  0.40388190  0.48710255  0.71174997  1
  Bi2+  Bi110  1  0.36557746  0.71202333  0.21162380  1
  Bi2+  Bi111  1  0.48301637  0.75100051  0.70993432  1
  Bi2+  Bi112  1  0.62802938  0.00932523  0.21953626  1
  Bi2+  Bi113  1  0.66506445  -0.04152964  0.71531253  1
  Bi2+  Bi114  1  0.63397016  0.25983954  0.21182844  1
  Bi2+  Bi115  1  0.59723775  0.24971157  0.70667190  1
  Bi2+  Bi116  1  0.53667303  0.48095241  0.20614607  1
  Bi2+  Bi117  1  0.61538210  0.51189189  0.70876503  1
  Bi2+  Bi118  1  0.63545352  0.71941549  0.25385164  1
  Bi2+  Bi119  1  0.65698475  0.69472986  0.67435341  1
  Bi2+  Bi120  1  0.87730292  0.00266170  0.20886483  1
  Bi2+  Bi121  1  0.86226823  -0.01365181  0.72118573  1
  Bi2+  Bi122  1  0.89253670  0.24254630  0.20315702  1
  Bi2+  Bi123  1  0.85808390  0.24034804  0.70226552  1
  Bi2+  Bi124  1  0.89453556  0.49023190  0.20594321  1
  Bi2+  Bi125  1  0.86589141  0.48215491  0.70714182  1
  Bi2+  Bi126  1  0.79828437  0.75586922  0.18617128  1
  Bi2+  Bi127  1  0.84781550  0.74784413  0.71638675  1
  S2-  S128  1  0.03945280  0.18504782  0.15897596  1
  S2-  S129  1  -0.01332663  0.26506879  0.64375115  1
  S2-  S130  1  -0.08985300  0.37122924  0.13231974  1
  S2-  S131  1  -0.00464782  0.47645656  0.64814796  1
  S2-  S132  1  0.02466976  0.56792924  0.15810486  1
  S2-  S133  1  -0.00930744  0.73026367  0.65990212  1
  S2-  S134  1  0.00178169  0.98072440  0.13530558  1
  S2-  S135  1  0.09259622  0.91404474  0.66727569  1
  S2-  S136  1  0.25114258  0.04352214  0.14807762  1
  S2-  S137  1  0.27683111  0.03881371  0.65670299  1
  S2-  S138  1  0.14512831  0.37142278  0.14295924  1
  S2-  S139  1  0.27047698  0.44704287  0.64595756  1
  S2-  S140  1  0.23139247  0.63317257  0.16410527  1
  S2-  S141  1  0.18121558  0.62411462  0.69298007  1
  S2-  S142  1  0.33970152  0.85730099  0.15739617  1
  S2-  S143  1  0.27094040  0.81158093  0.69930568  1
  S2-  S144  1  0.49464216  0.02507129  0.15600270  1
  S2-  S145  1  0.61373921  0.12403197  0.63822717  1
  S2-  S146  1  0.49851230  0.24433908  0.14698589  1
  S2-  S147  1  0.51989500  0.38889244  0.65165920  1
  S2-  S148  1  0.49122485  0.68783754  0.14585742  1
  S2-  S149  1  0.40675280  0.62777560  0.64840176  1
  S2-  S150  1  0.56445066  0.85336663  0.20693691  1
  S2-  S151  1  0.46473501  0.89799718  0.65134135  1
  S2-  S152  1  0.77996701  0.20535614  0.13944893  1
  S2-  S153  1  0.85715235  0.10945055  0.64564189  1
  S2-  S154  1  0.65070765  0.39515202  0.14503756  1
  S2-  S155  1  0.77238867  0.36099909  0.65117544  1
  S2-  S156  1  0.79417721  0.58911835  0.14638083  1
  S2-  S157  1  0.82475147  0.59930619  0.64421725  1
  S2-  S158  1  0.75048051  0.98218745  0.14120112  1
  S2-  S159  1  0.83538512  0.87654851  0.64414402  1
  S2-  S160  1  0.03813321  -0.01557416  0.36736925  1
  S2-  S161  1  0.13035131  -0.01488410  0.83108476  1
  S2-  S162  1  0.03054805  0.23647858  0.35183942  1
  S2-  S163  1  0.09895836  0.22904269  0.82886095  1
  S2-  S164  1  0.14501190  0.42425450  0.30945263  1
  S2-  S165  1  0.13685263  0.50728719  0.83281082  1
  S2-  S166  1  0.11576808  0.69172870  0.36579332  1
  S2-  S167  1  0.09242191  0.72885929  0.82549845  1
  S2-  S168  1  0.37903818  0.00955138  0.34120288  1
  S2-  S169  1  0.35170753  0.02219616  0.84335477  1
  S2-  S170  1  0.26831507  0.24253561  0.36138363  1
  S2-  S171  1  0.28418549  0.25803081  0.85836029  1
  S2-  S172  1  0.28832760  0.54662666  0.35093600  1
  S2-  S173  1  0.35101347  0.55261008  0.85024753  1
  S2-  S174  1  0.37751566  0.77362526  0.34624762  1
  S2-  S175  1  0.29034660  0.76713143  0.85488857  1
  S2-  S176  1  0.62393118  -0.11167404  0.35387666  1
  S2-  S177  1  0.61668858  -0.00042383  0.84473547  1
  S2-  S178  1  0.61956223  0.12823239  0.35593323  1
  S2-  S179  1  0.72307016  0.24714787  0.85293462  1
  S2-  S180  1  0.74522438  0.50833604  0.34828883  1
  S2-  S181  1  0.71896009  0.50003514  0.85254961  1
  S2-  S182  1  0.59999550  0.64743937  0.35156852  1
  S2-  S183  1  0.58823062  0.71140854  0.84176374  1
  S2-  S184  1  0.85863152  0.11328124  0.35518293  1
  S2-  S185  1  0.86101973  0.03594982  0.83463290  1
  S2-  S186  1  0.85066794  0.34408168  0.34512948  1
  S2-  S187  1  0.90797135  0.23824151  0.80585764  1
  S2-  S188  1  0.98166040  0.52243743  0.34562584  1
  S2-  S189  1  0.92394101  0.44921398  0.81655639  1
  S2-  S190  1  0.86519919  0.73390748  0.34419089  1
  S2-  S191  1  0.87784915  0.65393146  0.85178053  1
  S2-  S192  1  0.00425280  0.12567952  0.46507034  1
  S2-  S193  1  0.00589203  0.12413822  0.94416770  1
  S2-  S194  1  0.00756303  0.37936483  0.45149294  1
  S2-  S195  1  0.00357947  0.37418978  0.94023831  1
  S2-  S196  1  0.00079360  0.61916846  0.46506986  1
  S2-  S197  1  0.00987796  0.62937157  0.95159682  1
  S2-  S198  1  0.00102544  0.86864104  0.47115109  1
  S2-  S199  1  0.01063341  0.87421683  0.94604931  1
  S2-  S200  1  0.24854361  0.11928489  0.46266219  1
  S2-  S201  1  0.25788926  0.12444288  0.95415997  1
  S2-  S202  1  0.24591328  0.38297731  0.45246560  1
  S2-  S203  1  0.25734082  0.38192107  0.95753858  1
  S2-  S204  1  0.24987352  0.62181028  0.46742320  1
  S2-  S205  1  0.25634896  0.62255515  0.95669323  1
  S2-  S206  1  0.24563737  0.87512664  0.44856545  1
  S2-  S207  1  0.25473281  0.87906822  0.95815926  1
  S2-  S208  1  0.48986100  0.12133630  0.45571313  1
  S2-  S209  1  0.50404881  0.12712812  0.95568715  1
  S2-  S210  1  0.49737606  0.37021103  0.44728600  1
  S2-  S211  1  0.50597379  0.37718416  0.96901216  1
  S2-  S212  1  0.49550010  0.62927317  0.45606113  1
  S2-  S213  1  0.50472854  0.62022889  0.95081253  1
  S2-  S214  1  0.49120126  0.87638140  0.45171441  1
  S2-  S215  1  0.50126672  0.87491364  0.94241940  1
  S2-  S216  1  0.74762160  0.12247557  0.45756045  1
  S2-  S217  1  0.75312055  0.11980484  0.95142882  1
  S2-  S218  1  0.73701344  0.36934340  0.44824987  1
  S2-  S219  1  0.75483625  0.37446318  0.95398523  1
  S2-  S220  1  0.75015200  0.62931406  0.45211763  1
  S2-  S221  1  0.75053200  0.62730382  0.95064517  1
  S2-  S222  1  0.75857012  0.87437289  0.45076348  1
  S2-  S223  1  0.75462016  0.87599586  0.95188299  1
  S2-  S224  1  0.13089800  0.00192902  0.03866499  1
  S2-  S225  1  0.12174350  0.00243744  0.55727417  1
  S2-  S226  1  0.12737795  0.24955224  0.03742471  1
  S2-  S227  1  0.12544174  0.24937156  0.54476246  1
  S2-  S228  1  0.12811272  0.50214564  0.04193631  1
  S2-  S229  1  0.12606534  0.49907724  0.55534801  1
  S2-  S230  1  0.13046879  0.75201890  0.04798212  1
  S2-  S231  1  0.13404783  0.74933756  0.56948720  1
  S2-  S232  1  0.38192940  -0.00187603  0.04752140  1
  S2-  S233  1  0.37020248  -0.00224590  0.54682544  1
  S2-  S234  1  0.37481735  0.25416040  0.04817633  1
  S2-  S235  1  0.37414721  0.24758101  0.55152642  1
  S2-  S236  1  0.38205056  0.50047159  0.05236296  1
  S2-  S237  1  0.37867623  0.49844173  0.54373556  1
  S2-  S238  1  0.37951895  0.75313869  0.04491475  1
  S2-  S239  1  0.36665734  0.75758735  0.55387978  1
  S2-  S240  1  0.62370452  -0.00560720  0.04822446  1
  S2-  S241  1  0.62105426  -0.00717824  0.53951918  1
  S2-  S242  1  0.63475246  0.24450452  0.04343846  1
  S2-  S243  1  0.61966944  0.24911374  0.53923266  1
  S2-  S244  1  0.63158797  0.50402215  0.04380325  1
  S2-  S245  1  0.61956626  0.50065225  0.54027027  1
  S2-  S246  1  0.62804176  0.75382525  0.04957535  1
  S2-  S247  1  0.62019076  0.75395392  0.54115463  1
  S2-  S248  1  0.87723633  -0.00346318  0.03792548  1
  S2-  S249  1  0.87331290  -0.00078490  0.54215641  1
  S2-  S250  1  0.88520079  0.24282087  0.02870870  1
  S2-  S251  1  0.86836420  0.25233895  0.53731674  1
  S2-  S252  1  0.88232646  0.50252778  0.03167258  1
  S2-  S253  1  0.86606957  0.49428372  0.53674781  1
  S2-  S254  1  0.88055115  0.75246352  0.04261028  1
  S2-  S255  1  0.86845737  0.74415693  0.54885511  1
