# generated using pymatgen
data_La9Ce10Pr6Nd4Sm3(BiS2)32
_symmetry_space_group_name_H-M   'P 1'
_cell_length_a   16.16296173
_cell_length_b   16.23461078
_cell_length_c   27.08300484
_cell_angle_alpha   89.81720440
_cell_angle_beta   89.88618125
_cell_angle_gamma   89.97928026
_symmetry_Int_Tables_number   1
_chemical_formula_structural   La9Ce10Pr6Nd4Sm3(BiS2)32
_chemical_formula_sum   'La18 Ce20 Pr12 Nd8 Sm6 Bi64 S128'
_cell_volume   7106.51338705
_cell_formula_units_Z   2
loop_
 _symmetry_equiv_pos_site_id
 _symmetry_equiv_pos_as_xyz
  1  'x, y, z'
loop_
 _atom_type_symbol
 _atom_type_oxidation_number
  La3+  3.0
  Ce3+  3.0
  Pr3+  3.0
  Nd3+  3.0
  Sm3+  3.0
  Bi2+  2.0
  S2-  -2.0
loop_
 _atom_site_type_symbol
 _atom_site_label
 _atom_site_symmetry_multiplicity
 _atom_site_fract_x
 _atom_site_fract_y
 _atom_site_fract_z
 _atom_site_occupancy
  La3+  La0  1  0.25406528  0.62386313  0.07259836  1
  La3+  La1  1  0.86952261  0.75676021  0.40587315  1
  La3+  La2  1  0.74967982  0.12553598  0.07332241  1
  La3+  La3  1  0.62969779  0.50004429  0.93760245  1
  La3+  La4  1  0.37886451  0.75051013  0.94098054  1
  La3+  La5  1  0.13552867  0.75475456  0.41906019  1
  La3+  La6  1  0.88009503  0.00586354  0.41405615  1
  La3+  La7  1  0.86914158  0.50305860  0.41692954  1
  La3+  La8  1  0.13299095  0.25100813  0.44192766  1
  La3+  La9  1  0.00968966  0.88070884  0.08885158  1
  La3+  La10  1  0.24136789  0.12034076  0.58251257  1
  La3+  La11  1  0.38797359  0.24538492  0.91541114  1
  La3+  La12  1  0.12665562  0.51136404  0.92983408  1
  La3+  La13  1  0.88400371  0.25513909  0.42221862  1
  La3+  La14  1  0.00670756  0.13051012  0.07832148  1
  La3+  La15  1  0.50024525  0.38023485  0.57433749  1
  La3+  La16  1  0.75236707  0.36515313  0.10185162  1
  La3+  La17  1  0.13813189  0.49864351  0.42222232  1
  Ce3+  Ce18  1  0.63011530  0.25036329  0.94167006  1
  Ce3+  Ce19  1  0.50448537  0.37263129  0.06180640  1
  Ce3+  Ce20  1  -0.00170364  0.63065314  0.53670441  1
  Ce3+  Ce21  1  0.37522976  0.50196269  0.45140386  1
  Ce3+  Ce22  1  0.24930711  0.87456244  0.56109585  1
  Ce3+  Ce23  1  0.75399017  0.12545396  0.55094548  1
  Ce3+  Ce24  1  0.37738040  0.00680676  0.94591322  1
  Ce3+  Ce25  1  0.62305123  0.25524271  0.44959375  1
  Ce3+  Ce26  1  0.37942809  0.75236455  0.43459963  1
  Ce3+  Ce27  1  0.75404343  0.87669826  0.06311905  1
  Ce3+  Ce28  1  0.12645785  0.00528079  0.94728068  1
  Ce3+  Ce29  1  0.12595417  0.25453196  0.93544887  1
  Ce3+  Ce30  1  0.87851668  0.49828924  0.95402854  1
  Ce3+  Ce31  1  0.88074485  0.00394312  0.94894597  1
  Ce3+  Ce32  1  0.50088117  0.87650557  0.05930639  1
  Ce3+  Ce33  1  0.62952798  0.75386891  0.94828814  1
  Ce3+  Ce34  1  0.62949737  0.00333487  0.94703771  1
  Ce3+  Ce35  1  0.50580484  0.62165455  0.06287916  1
  Ce3+  Ce36  1  -0.01144910  0.12365327  0.56389263  1
  Ce3+  Ce37  1  -0.00437388  0.87468403  0.54252607  1
  Pr3+  Pr38  1  0.75451121  0.37941265  0.56114197  1
  Pr3+  Pr39  1  0.00134977  0.63173342  0.07592114  1
  Pr3+  Pr40  1  0.74606577  0.87675079  0.55105694  1
  Pr3+  Pr41  1  0.12761359  0.75451087  0.94507410  1
  Pr3+  Pr42  1  0.01537444  0.38619227  0.08128078  1
  Pr3+  Pr43  1  0.88117525  0.25543454  0.94624396  1
  Pr3+  Pr44  1  0.87927771  0.75331185  0.94631700  1
  Pr3+  Pr45  1  0.62713727  0.01077647  0.42612758  1
  Pr3+  Pr46  1  0.12902082  0.00515071  0.43417543  1
  Pr3+  Pr47  1  0.62224837  0.75374768  0.42829564  1
  Pr3+  Pr48  1  0.61995997  0.49498522  0.42624869  1
  Pr3+  Pr49  1  0.49891910  0.13102894  0.06926587  1
  Nd3+  Nd50  1  0.75425171  0.62434435  0.06578182  1
  Nd3+  Nd51  1  -0.00415299  0.38041362  0.55783606  1
  Nd3+  Nd52  1  0.23299425  0.38841923  0.58217371  1
  Nd3+  Nd53  1  0.24575345  0.63117343  0.56240942  1
  Nd3+  Nd54  1  0.49953556  0.12583659  0.56269635  1
  Nd3+  Nd55  1  0.37351144  0.00630499  0.43898257  1
  Nd3+  Nd56  1  0.75034449  0.62755036  0.54650168  1
  Nd3+  Nd57  1  0.37772864  0.49980435  0.94445398  1
  Sm3+  Sm58  1  0.25172941  0.13310998  0.06270224  1
  Sm3+  Sm59  1  0.50241902  0.62916031  0.55856705  1
  Sm3+  Sm60  1  0.25340247  0.87834323  0.06234955  1
  Sm3+  Sm61  1  0.25178415  0.37445143  0.05126125  1
  Sm3+  Sm62  1  0.37053780  0.25330845  0.45607622  1
  Sm3+  Sm63  1  0.50156609  0.87763719  0.55396258  1
  Bi2+  Bi64  1  0.10139085  0.14384602  0.28170484  1
  Bi2+  Bi65  1  -0.01476957  0.06300682  0.76558211  1
  Bi2+  Bi66  1  -0.01524885  0.34669669  0.28171400  1
  Bi2+  Bi67  1  -0.02258130  0.35141035  0.80907413  1
  Bi2+  Bi68  1  0.04522920  0.60799770  0.30275646  1
  Bi2+  Bi69  1  -0.06952742  0.61142603  0.77125320  1
  Bi2+  Bi70  1  0.00393404  0.92667365  0.27110387  1
  Bi2+  Bi71  1  -0.05702671  0.87620276  0.79263504  1
  Bi2+  Bi72  1  0.32537773  0.14487948  0.29788393  1
  Bi2+  Bi73  1  0.26158419  0.06911211  0.78347187  1
  Bi2+  Bi74  1  0.33013156  0.34582490  0.29052589  1
  Bi2+  Bi75  1  0.23455006  0.39761893  0.77538558  1
  Bi2+  Bi76  1  0.30116858  0.61318410  0.29099743  1
  Bi2+  Bi77  1  0.25698458  0.62468335  0.81097452  1
  Bi2+  Bi78  1  0.32959232  0.89316202  0.29708467  1
  Bi2+  Bi79  1  0.20397782  0.86556042  0.80646368  1
  Bi2+  Bi80  1  0.48763919  0.03466957  0.32341356  1
  Bi2+  Bi81  1  0.47272462  0.05183258  0.77028500  1
  Bi2+  Bi82  1  0.50345811  0.43644854  0.30687373  1
  Bi2+  Bi83  1  0.49203245  0.39395333  0.80698480  1
  Bi2+  Bi84  1  0.48861614  0.63616302  0.33218010  1
  Bi2+  Bi85  1  0.48749990  0.69149213  0.72586082  1
  Bi2+  Bi86  1  0.51053373  0.83401813  0.32553989  1
  Bi2+  Bi87  1  0.47917588  0.85550543  0.79262454  1
  Bi2+  Bi88  1  0.63191672  0.15700350  0.29611941  1
  Bi2+  Bi89  1  0.73258429  0.10493356  0.77908855  1
  Bi2+  Bi90  1  0.71609699  0.36584866  0.28794892  1
  Bi2+  Bi91  1  0.75191769  0.36968401  0.80759193  1
  Bi2+  Bi92  1  0.66629679  0.63614117  0.28050080  1
  Bi2+  Bi93  1  0.74638088  0.68943613  0.78477533  1
  Bi2+  Bi94  1  0.73279486  0.91486522  0.28400205  1
  Bi2+  Bi95  1  0.67254044  0.86763488  0.80341195  1
  Bi2+  Bi96  1  0.21172923  0.02153425  0.21636703  1
  Bi2+  Bi97  1  0.10057692  -0.06931876  0.71404126  1
  Bi2+  Bi98  1  0.19248105  0.26942011  0.20870378  1
  Bi2+  Bi99  1  0.13267713  0.26132154  0.71079876  1
  Bi2+  Bi100  1  0.14488225  0.50772088  0.21884941  1
  Bi2+  Bi101  1  0.08759949  0.52333569  0.70765494  1
  Bi2+  Bi102  1  0.14246245  0.76726262  0.22314995  1
  Bi2+  Bi103  1  0.14392769  0.72693305  0.73299309  1
  Bi2+  Bi104  1  0.38773481  0.08810829  0.18706871  1
  Bi2+  Bi105  1  0.35440109  -0.07488443  0.71187575  1
  Bi2+  Bi106  1  0.36636519  0.26740122  0.14441121  1
  Bi2+  Bi107  1  0.39217516  0.23654975  0.71697160  1
  Bi2+  Bi108  1  0.37742946  0.48061755  0.21318625  1
  Bi2+  Bi109  1  0.34868252  0.55959465  0.71783583  1
  Bi2+  Bi110  1  0.41010962  0.76165253  0.22364982  1
  Bi2+  Bi111  1  0.31119606  0.74315687  0.67259536  1
  Bi2+  Bi112  1  0.57469525  -0.00206903  0.21607346  1
  Bi2+  Bi113  1  0.61965804  0.01044681  0.69823083  1
  Bi2+  Bi114  1  0.52936749  0.23964622  0.20973921  1
  Bi2+  Bi115  1  0.69394023  0.26102050  0.71446457  1
  Bi2+  Bi116  1  0.56761728  0.52211274  0.20594034  1
  Bi2+  Bi117  1  0.64428548  0.44383316  0.68592119  1
  Bi2+  Bi118  1  0.60529057  0.79491139  0.21930064  1
  Bi2+  Bi119  1  0.66482630  0.73953278  0.68233091  1
  Bi2+  Bi120  1  0.82138876  0.03414941  0.19840235  1
  Bi2+  Bi121  1  0.82910240  -0.02743381  0.71679879  1
  Bi2+  Bi122  1  0.93400713  0.17858162  0.20708209  1
  Bi2+  Bi123  1  0.88718462  0.22651110  0.69579344  1
  Bi2+  Bi124  1  0.87801964  0.53741244  0.22084223  1
  Bi2+  Bi125  1  0.82735264  0.48538407  0.71161003  1
  Bi2+  Bi126  1  0.87616608  0.76252547  0.22095040  1
  Bi2+  Bi127  1  0.91403697  0.73365300  0.67881964  1
  S2-  S128  1  -0.01928522  0.00789018  0.15964810  1
  S2-  S129  1  0.04291979  0.15961184  0.65907231  1
  S2-  S130  1  -0.03765551  0.32919593  0.17471880  1
  S2-  S131  1  0.08624727  0.38918456  0.64626027  1
  S2-  S132  1  0.01309611  0.52940094  0.15754773  1
  S2-  S133  1  0.01391315  0.61838895  0.63497005  1
  S2-  S134  1  0.00409289  0.75337541  0.15876522  1
  S2-  S135  1  -0.00025511  0.86794998  0.64111488  1
  S2-  S136  1  0.15007781  0.14237134  0.14527207  1
  S2-  S137  1  0.25580819  0.15081909  0.68596989  1
  S2-  S138  1  0.17204908  0.39784868  0.14001074  1
  S2-  S139  1  0.28629699  0.34169228  0.67764242  1
  S2-  S140  1  0.21351121  0.64922736  0.17053266  1
  S2-  S141  1  0.22751860  0.53467544  0.64624134  1
  S2-  S142  1  0.18899820  0.88651099  0.15405595  1
  S2-  S143  1  0.22920843  0.96765695  0.64216475  1
  S2-  S144  1  0.60917079  0.11935777  0.14863101  1
  S2-  S145  1  0.48575050  0.11654816  0.66241310  1
  S2-  S146  1  0.58758700  0.36691685  0.14928780  1
  S2-  S147  1  0.49776574  0.35715896  0.67565605  1
  S2-  S148  1  0.45449272  0.62729384  0.15663207  1
  S2-  S149  1  0.55197238  0.58703954  0.65001262  1
  S2-  S150  1  0.47383697  0.87957536  0.15705904  1
  S2-  S151  1  0.57519049  0.87342043  0.64367799  1
  S2-  S152  1  0.78604437  0.21212079  0.15911992  1
  S2-  S153  1  0.84506279  0.10543719  0.63243168  1
  S2-  S154  1  0.76479988  0.43594255  0.19612460  1
  S2-  S155  1  0.87436745  0.37272075  0.63602765  1
  S2-  S156  1  0.80155428  0.64822847  0.16248757  1
  S2-  S157  1  0.78275861  0.62244637  0.64530152  1
  S2-  S158  1  0.78888418  0.87881734  0.16010432  1
  S2-  S159  1  0.78901760  0.84601836  0.64764609  1
  S2-  S160  1  0.02667168  0.02671565  0.34677550  1
  S2-  S161  1  0.15001746  0.01570728  0.84897425  1
  S2-  S162  1  0.03467765  0.24561736  0.35574178  1
  S2-  S163  1  0.08188164  0.23984466  0.83928399  1
  S2-  S164  1  0.11377929  0.44813737  0.31957786  1
  S2-  S165  1  0.10735023  0.44591852  0.83492435  1
  S2-  S166  1  0.08386303  0.79404215  0.31858339  1
  S2-  S167  1  0.12068452  0.65390899  0.86334696  1
  S2-  S168  1  0.25860822  0.00778187  0.36131789  1
  S2-  S169  1  0.37898275  0.08844011  0.85919094  1
  S2-  S170  1  0.27286503  0.25565451  0.37338685  1
  S2-  S171  1  0.33802141  0.29696433  0.81882043  1
  S2-  S172  1  0.29449866  0.49765377  0.36535490  1
  S2-  S173  1  0.39299593  0.52012624  0.84578648  1
  S2-  S174  1  0.27893655  0.74817507  0.35386705  1
  S2-  S175  1  0.34460909  0.77323378  0.84250045  1
  S2-  S176  1  0.74073336  0.04159742  0.34587891  1
  S2-  S177  1  0.63867539  0.02508834  0.84968024  1
  S2-  S178  1  0.59084141  0.29668265  0.35544624  1
  S2-  S179  1  0.54221640  0.26077273  0.85611525  1
  S2-  S180  1  0.72576857  0.49927434  0.34491428  1
  S2-  S181  1  0.61825653  0.48177927  0.83632473  1
  S2-  S182  1  0.71688276  0.76126132  0.34248002  1
  S2-  S183  1  0.61159676  0.72094498  0.85246965  1
  S2-  S184  1  0.88332944  -0.11134873  0.33330770  1
  S2-  S185  1  0.90189676  0.01233057  0.85101875  1
  S2-  S186  1  0.83504633  0.27269859  0.32191602  1
  S2-  S187  1  0.84684457  0.24916348  0.84525389  1
  S2-  S188  1  0.92419012  0.48219449  0.32040943  1
  S2-  S189  1  0.87044701  0.47393925  0.85570016  1
  S2-  S190  1  0.89919400  0.67493006  0.31289347  1
  S2-  S191  1  0.88750630  0.73110527  0.84594218  1
  S2-  S192  1  0.00063132  0.12674188  0.45622842  1
  S2-  S193  1  0.00393682  0.12868779  0.96185154  1
  S2-  S194  1  0.00393490  0.38429839  0.44818854  1
  S2-  S195  1  0.00602184  0.38000801  0.95971474  1
  S2-  S196  1  0.00486586  0.62803740  0.43074926  1
  S2-  S197  1  -0.00175630  0.62826226  0.96604622  1
  S2-  S198  1  0.00482323  0.87407670  0.43846261  1
  S2-  S199  1  0.00422409  0.87799385  0.95874110  1
  S2-  S200  1  0.25414596  0.12479330  0.47198647  1
  S2-  S201  1  0.24976756  0.13011666  0.95719577  1
  S2-  S202  1  0.25336920  0.37949090  0.47311197  1
  S2-  S203  1  0.25351972  0.37691981  0.94539311  1
  S2-  S204  1  0.25438138  0.62981169  0.45764746  1
  S2-  S205  1  0.25681543  0.62799501  0.96189131  1
  S2-  S206  1  0.25492434  0.87657070  0.45701652  1
  S2-  S207  1  0.25350385  0.87945361  0.95680512  1
  S2-  S208  1  0.49717373  0.13201873  0.45490739  1
  S2-  S209  1  0.50691704  0.12471708  0.96183566  1
  S2-  S210  1  0.49547697  0.37540832  0.46396254  1
  S2-  S211  1  0.50249250  0.37810874  0.95560760  1
  S2-  S212  1  0.50152648  0.62366278  0.45316170  1
  S2-  S213  1  0.50363017  0.62564163  0.95655185  1
  S2-  S214  1  0.50072334  0.88412220  0.45028638  1
  S2-  S215  1  0.50285653  0.87896330  0.95148068  1
  S2-  S216  1  0.75122442  0.13720378  0.44819289  1
  S2-  S217  1  0.75582207  0.12722884  0.96026939  1
  S2-  S218  1  0.75000921  0.37558033  0.45178850  1
  S2-  S219  1  0.75203592  0.37547333  0.95672748  1
  S2-  S220  1  0.74578843  0.62750651  0.44159342  1
  S2-  S221  1  0.75404818  0.62738987  0.95764572  1
  S2-  S222  1  0.74558567  0.88315507  0.44383715  1
  S2-  S223  1  0.75422818  0.87795150  0.95470060  1
  S2-  S224  1  0.13106621  0.00245738  0.05098731  1
  S2-  S225  1  0.11729190  0.00039378  0.54159618  1
  S2-  S226  1  0.12787793  0.25577526  0.04337540  1
  S2-  S227  1  0.12136041  0.25125551  0.55050938  1
  S2-  S228  1  0.13121915  0.50727905  0.04129748  1
  S2-  S229  1  0.12108286  0.50891316  0.53422641  1
  S2-  S230  1  0.13151928  0.75311475  0.05139481  1
  S2-  S231  1  0.12576646  0.75396596  0.53704729  1
  S2-  S232  1  0.37324388  0.00393348  0.05195936  1
  S2-  S233  1  0.37945699  -0.00020769  0.54901234  1
  S2-  S234  1  0.37559100  0.25181138  0.03278166  1
  S2-  S235  1  0.37270748  0.25045677  0.56063098  1
  S2-  S236  1  0.37773324  0.49766387  0.05185129  1
  S2-  S237  1  0.37803800  0.50794728  0.55771376  1
  S2-  S238  1  0.37633380  0.75246924  0.05089533  1
  S2-  S239  1  0.38124658  0.75225890  0.54424064  1
  S2-  S240  1  0.62626195  -0.00319790  0.05185022  1
  S2-  S241  1  0.62364630  0.00483341  0.53795792  1
  S2-  S242  1  0.63040702  0.25256004  0.04716853  1
  S2-  S243  1  0.62722808  0.25180954  0.55705223  1
  S2-  S244  1  0.63205356  0.50053411  0.05027836  1
  S2-  S245  1  0.62617027  0.50131096  0.53818375  1
  S2-  S246  1  0.62824130  0.75012807  0.05686628  1
  S2-  S247  1  0.62204549  0.75052561  0.53670265  1
  S2-  S248  1  0.87914622  0.00080089  0.05281561  1
  S2-  S249  1  0.87165582  -0.00300109  0.52846453  1
  S2-  S250  1  0.88326171  0.25587979  0.05338799  1
  S2-  S251  1  0.87456494  0.25222016  0.53420378  1
  S2-  S252  1  0.87269061  0.49521156  0.06044222  1
  S2-  S253  1  0.87387318  0.50551556  0.53076126  1
  S2-  S254  1  0.87748265  0.75488409  0.05278170  1
  S2-  S255  1  0.87040025  0.75213380  0.52463401  1
