# generated using pymatgen
data_La9Ce10Pr6Nd4Sm3(BiS2)32
_symmetry_space_group_name_H-M   'P 1'
_cell_length_a   16.15204279
_cell_length_b   16.17307383
_cell_length_c   27.11523880
_cell_angle_alpha   90.00399276
_cell_angle_beta   89.96643675
_cell_angle_gamma   90.02636395
_symmetry_Int_Tables_number   1
_chemical_formula_structural   La9Ce10Pr6Nd4Sm3(BiS2)32
_chemical_formula_sum   'La18 Ce20 Pr12 Nd8 Sm6 Bi64 S128'
_cell_volume   7083.26251245
_cell_formula_units_Z   2
loop_
 _symmetry_equiv_pos_site_id
 _symmetry_equiv_pos_as_xyz
  1  'x, y, z'
loop_
 _atom_type_symbol
 _atom_type_oxidation_number
  La3+  3.0
  Ce3+  3.0
  Pr3+  3.0
  Nd3+  3.0
  Sm3+  3.0
  Bi2+  2.0
  S2-  -2.0
loop_
 _atom_site_type_symbol
 _atom_site_label
 _atom_site_symmetry_multiplicity
 _atom_site_fract_x
 _atom_site_fract_y
 _atom_site_fract_z
 _atom_site_occupancy
  La3+  La0  1  0.35761315  0.24751359  0.92628630  1
  La3+  La1  1  0.62610890  0.75867666  0.43368179  1
  La3+  La2  1  0.11166159  -0.01417953  0.91928871  1
  La3+  La3  1  0.13613948  -0.00224218  0.40813415  1
  La3+  La4  1  0.76032403  0.87490637  0.56358232  1
  La3+  La5  1  0.00174400  0.11079486  0.07127358  1
  La3+  La6  1  0.50347015  0.88451268  0.57800456  1
  La3+  La7  1  0.49875400  0.37409217  0.11420393  1
  La3+  La8  1  0.86079639  0.73288462  0.93121934  1
  La3+  La9  1  0.61353742  0.49334211  0.94212660  1
  La3+  La10  1  0.48850138  0.87156446  0.06410095  1
  La3+  La11  1  0.76099313  0.37724265  0.56264681  1
  La3+  La12  1  0.00645939  0.62783764  0.60715930  1
  La3+  La13  1  0.01381154  0.88466560  0.56561662  1
  La3+  La14  1  0.37008580  0.74010423  0.92963584  1
  La3+  La15  1  0.73558873  0.62264108  0.08176446  1
  La3+  La16  1  0.24865299  0.11890743  0.59133419  1
  La3+  La17  1  0.24465839  0.61922575  0.06904218  1
  Ce3+  Ce18  1  0.74080609  0.86599535  0.05685939  1
  Ce3+  Ce19  1  0.23980947  0.87027486  0.04815271  1
  Ce3+  Ce20  1  0.86822918  0.49349663  0.95187611  1
  Ce3+  Ce21  1  0.74050159  0.12032301  0.05565269  1
  Ce3+  Ce22  1  0.61508094  -0.00610453  0.94467486  1
  Ce3+  Ce23  1  0.88894571  0.25412971  0.42728126  1
  Ce3+  Ce24  1  0.75054976  0.61977978  0.57729431  1
  Ce3+  Ce25  1  0.87134781  0.24249410  0.94136117  1
  Ce3+  Ce26  1  0.48866388  0.62365815  0.07326967  1
  Ce3+  Ce27  1  0.62710653  0.00280422  0.44047666  1
  Ce3+  Ce28  1  0.48757595  0.12678615  0.05983826  1
  Ce3+  Ce29  1  0.25524761  0.87719055  0.55610619  1
  Ce3+  Ce30  1  0.38328601  0.25140790  0.43686470  1
  Ce3+  Ce31  1  0.25347953  0.62566983  0.56238727  1
  Ce3+  Ce32  1  0.87094055  -0.00862924  0.94313519  1
  Ce3+  Ce33  1  0.61576102  0.74338647  0.93478606  1
  Ce3+  Ce34  1  0.73917196  0.36633705  0.05855532  1
  Ce3+  Ce35  1  0.50327544  0.37371256  0.56523786  1
  Ce3+  Ce36  1  0.37740682  0.00563854  0.43949574  1
  Ce3+  Ce37  1  0.13340324  0.50440182  0.44223086  1
  Pr3+  Pr38  1  0.75984485  0.13208969  0.55878057  1
  Pr3+  Pr39  1  0.61358558  0.24192512  0.93630272  1
  Pr3+  Pr40  1  0.14227293  0.26500050  0.41584859  1
  Pr3+  Pr41  1  0.50682746  0.62579619  0.56770821  1
  Pr3+  Pr42  1  0.24028418  0.36289967  0.06445391  1
  Pr3+  Pr43  1  0.51099900  0.13134651  0.57046554  1
  Pr3+  Pr44  1  -0.00906022  0.62087793  0.07277979  1
  Pr3+  Pr45  1  0.11174206  0.23945533  0.91895966  1
  Pr3+  Pr46  1  0.01531703  0.37308945  0.57011966  1
  Pr3+  Pr47  1  0.88249600  0.00415422  0.43813337  1
  Pr3+  Pr48  1  0.88318967  0.50377564  0.44523680  1
  Pr3+  Pr49  1  0.36554667  0.49230572  0.94900962  1
  Nd3+  Nd50  1  -0.00771565  0.86469030  0.06552517  1
  Nd3+  Nd51  1  0.01313451  0.13116421  0.54782165  1
  Nd3+  Nd52  1  0.25489424  0.37555031  0.56243404  1
  Nd3+  Nd53  1  -0.00454334  0.35828307  0.07110749  1
  Nd3+  Nd54  1  0.10881814  0.73920533  0.92573200  1
  Nd3+  Nd55  1  0.37913027  -0.00194196  0.90777870  1
  Nd3+  Nd56  1  0.39110319  0.50160058  0.43899648  1
  Nd3+  Nd57  1  0.13044725  0.75099955  0.44151331  1
  Sm3+  Sm58  1  0.11477194  0.49789795  0.94319873  1
  Sm3+  Sm59  1  0.23897961  0.11680694  0.04493695  1
  Sm3+  Sm60  1  0.38358357  0.75179702  0.44738762  1
  Sm3+  Sm61  1  0.62902740  0.25469871  0.43547123  1
  Sm3+  Sm62  1  0.88201765  0.75091188  0.44840926  1
  Sm3+  Sm63  1  0.64217345  0.51126895  0.43461330  1
  Bi2+  Bi64  1  -0.06762896  0.13828687  0.29142578  1
  Bi2+  Bi65  1  -0.01107848  0.11334159  0.78564397  1
  Bi2+  Bi66  1  0.00870961  0.39759877  0.28565068  1
  Bi2+  Bi67  1  -0.00044288  0.37639464  0.78978298  1
  Bi2+  Bi68  1  0.00099792  0.62155161  0.27505137  1
  Bi2+  Bi69  1  0.00592991  0.62507174  0.79270568  1
  Bi2+  Bi70  1  -0.03131191  0.89158494  0.29771871  1
  Bi2+  Bi71  1  0.02242944  0.87746479  0.78520459  1
  Bi2+  Bi72  1  0.30731414  0.07840544  0.26742073  1
  Bi2+  Bi73  1  0.26508723  0.14527232  0.78850025  1
  Bi2+  Bi74  1  0.22406632  0.36114039  0.27378199  1
  Bi2+  Bi75  1  0.27903937  0.40484678  0.77301417  1
  Bi2+  Bi76  1  0.18385088  0.64441546  0.30916179  1
  Bi2+  Bi77  1  0.26986841  0.61685445  0.79349157  1
  Bi2+  Bi78  1  0.24238404  0.82756419  0.29299532  1
  Bi2+  Bi79  1  0.29960873  0.80637195  0.80291797  1
  Bi2+  Bi80  1  0.49584514  0.09251989  0.30330871  1
  Bi2+  Bi81  1  0.55852113  0.13777682  0.79452063  1
  Bi2+  Bi82  1  0.45419747  0.37104069  0.30104287  1
  Bi2+  Bi83  1  0.54523676  0.40524374  0.78628672  1
  Bi2+  Bi84  1  0.51181463  0.60812282  0.30923493  1
  Bi2+  Bi85  1  0.49407775  0.61012841  0.78379251  1
  Bi2+  Bi86  1  0.48253240  0.88305584  0.29585444  1
  Bi2+  Bi87  1  0.56423199  0.86322101  0.79215031  1
  Bi2+  Bi88  1  0.68926754  0.09851024  0.29059845  1
  Bi2+  Bi89  1  0.75340663  0.10123821  0.79829320  1
  Bi2+  Bi90  1  0.76877040  0.37437096  0.29155461  1
  Bi2+  Bi91  1  0.79412770  0.29648729  0.77080127  1
  Bi2+  Bi92  1  0.79799383  0.64414414  0.29633906  1
  Bi2+  Bi93  1  0.76008637  0.60791745  0.79205356  1
  Bi2+  Bi94  1  0.70293688  0.87776349  0.27192641  1
  Bi2+  Bi95  1  0.76428498  0.90708764  0.78448054  1
  Bi2+  Bi96  1  0.12097742  0.00420291  0.20529508  1
  Bi2+  Bi97  1  0.10415445  -0.01039618  0.70770337  1
  Bi2+  Bi98  1  0.11136499  0.24673005  0.20822246  1
  Bi2+  Bi99  1  0.05108722  0.24820557  0.70793549  1
  Bi2+  Bi100  1  0.13308552  0.58184803  0.18414999  1
  Bi2+  Bi101  1  0.12369867  0.46935967  0.71372756  1
  Bi2+  Bi102  1  0.12115231  0.77186374  0.20753266  1
  Bi2+  Bi103  1  0.20497204  0.74320523  0.71055896  1
  Bi2+  Bi104  1  0.37333647  -0.05602380  0.19027814  1
  Bi2+  Bi105  1  0.37040650  -0.03437612  0.70986538  1
  Bi2+  Bi106  1  0.35743965  0.22745184  0.20618665  1
  Bi2+  Bi107  1  0.41151806  0.28656575  0.72590116  1
  Bi2+  Bi108  1  0.30051337  0.54110598  0.23802681  1
  Bi2+  Bi109  1  0.37580919  0.45776234  0.67153929  1
  Bi2+  Bi110  1  0.36688147  0.74947075  0.21553584  1
  Bi2+  Bi111  1  0.39278625  0.66015254  0.69043065  1
  Bi2+  Bi112  1  0.56362224  -0.00867067  0.20630947  1
  Bi2+  Bi113  1  0.62771922  -0.00977796  0.71020563  1
  Bi2+  Bi114  1  0.65600397  0.25092314  0.22650501  1
  Bi2+  Bi115  1  0.66884728  0.27064704  0.68475655  1
  Bi2+  Bi116  1  0.66867470  0.49589467  0.21865509  1
  Bi2+  Bi117  1  0.57475422  0.47788656  0.68404740  1
  Bi2+  Bi118  1  0.61958013  0.73550664  0.21289604  1
  Bi2+  Bi119  1  0.64998307  0.73010529  0.72871570  1
  Bi2+  Bi120  1  0.78077690  0.01067537  0.19603932  1
  Bi2+  Bi121  1  0.85936399  0.05393463  0.70446258  1
  Bi2+  Bi122  1  0.86731715  0.31181939  0.20361923  1
  Bi2+  Bi123  1  0.86463786  0.24087794  0.65945555  1
  Bi2+  Bi124  1  0.95373287  0.49290558  0.18973508  1
  Bi2+  Bi125  1  0.85670047  0.46354471  0.72774509  1
  Bi2+  Bi126  1  0.86953588  0.83725111  0.20520283  1
  Bi2+  Bi127  1  0.86680361  0.78844872  0.70799643  1
  S2-  S128  1  -0.03039287  0.21956561  0.14945187  1
  S2-  S129  1  0.09019308  0.11835629  0.63975392  1
  S2-  S130  1  0.12075042  0.36341329  0.14240725  1
  S2-  S131  1  -0.01640612  0.47427895  0.65549559  1
  S2-  S132  1  -0.01834022  0.75029708  0.14432123  1
  S2-  S133  1  0.03306452  0.72047640  0.70265171  1
  S2-  S134  1  -0.00138020  0.98073214  0.14632212  1
  S2-  S135  1  -0.04275572  0.92113996  0.66007245  1
  S2-  S136  1  0.17437435  0.12332815  0.13915381  1
  S2-  S137  1  0.31126990  0.13951258  0.69022845  1
  S2-  S138  1  0.33427436  0.35942338  0.15338256  1
  S2-  S139  1  0.14943055  0.34365707  0.64153574  1
  S2-  S140  1  0.35812065  0.61426343  0.14954758  1
  S2-  S141  1  0.17475649  0.60206558  0.64899389  1
  S2-  S142  1  0.21748032  0.88579309  0.14720962  1
  S2-  S143  1  0.23275948  0.94979096  0.64512177  1
  S2-  S144  1  0.49428344  0.20546365  0.14828550  1
  S2-  S145  1  0.48371536  0.01673894  0.64786484  1
  S2-  S146  1  0.50515430  0.43226344  0.21768515  1
  S2-  S147  1  0.50786079  0.26078254  0.64264122  1
  S2-  S148  1  0.59798205  0.59831952  0.15025645  1
  S2-  S149  1  0.61760956  0.63735569  0.64584809  1
  S2-  S150  1  0.49726219  0.77499784  0.14873333  1
  S2-  S151  1  0.43689832  0.82424855  0.67035741  1
  S2-  S152  1  0.73475386  0.15638170  0.15206494  1
  S2-  S153  1  0.66474757  0.11914833  0.64464580  1
  S2-  S154  1  0.67172580  0.36910566  0.14969871  1
  S2-  S155  1  0.74037261  0.46604416  0.65000925  1
  S2-  S156  1  0.80477185  0.57579850  0.17602855  1
  S2-  S157  1  0.84978692  0.65411015  0.65650757  1
  S2-  S158  1  0.73634188  0.78209625  0.14286884  1
  S2-  S159  1  0.71114512  0.85601785  0.65994058  1
  S2-  S160  1  0.06783044  0.03891041  0.30841415  1
  S2-  S161  1  0.12791696  0.10710998  0.84269883  1
  S2-  S162  1  0.00974394  0.25095880  0.34595586  1
  S2-  S163  1  0.23473873  0.28671335  0.84750973  1
  S2-  S164  1  0.13357507  0.42776912  0.35458056  1
  S2-  S165  1  0.12226056  0.59863820  0.85901095  1
  S2-  S166  1  0.10492532  0.84110692  0.35598664  1
  S2-  S167  1  0.14450622  0.85259507  0.84778568  1
  S2-  S168  1  0.29083409  -0.01825271  0.35169331  1
  S2-  S169  1  0.31729789  -0.01722800  0.81239078  1
  S2-  S170  1  0.29319177  0.27214008  0.34993786  1
  S2-  S171  1  0.41530382  0.16770187  0.84043745  1
  S2-  S172  1  0.36873252  0.51667671  0.33887341  1
  S2-  S173  1  0.38392466  0.52924582  0.84882173  1
  S2-  S174  1  0.44378768  0.74402990  0.35416665  1
  S2-  S175  1  0.50082933  0.73689207  0.85750872  1
  S2-  S176  1  0.61834895  -0.10624388  0.36242050  1
  S2-  S177  1  0.53486002  -0.00672943  0.85647374  1
  S2-  S178  1  0.51586525  0.24150789  0.36010882  1
  S2-  S179  1  0.63008611  0.27799587  0.83670559  1
  S2-  S180  1  0.56658202  0.46096787  0.35062149  1
  S2-  S181  1  0.64743229  0.50853944  0.84202661  1
  S2-  S182  1  0.64801823  0.65240252  0.35347512  1
  S2-  S183  1  0.72961888  0.72649976  0.85927587  1
  S2-  S184  1  0.86095945  0.00173197  0.33751596  1
  S2-  S185  1  0.95293961  -0.01721767  0.85665634  1
  S2-  S186  1  0.79858245  0.22659138  0.34284883  1
  S2-  S187  1  0.96554316  0.25416803  0.85852507  1
  S2-  S188  1  0.79850672  0.51472497  0.35619589  1
  S2-  S189  1  0.88607072  0.55085400  0.85900757  1
  S2-  S190  1  0.86851287  0.76578677  0.34858920  1
  S2-  S191  1  0.96930098  0.75083648  0.85008261  1
  S2-  S192  1  0.01262065  0.12403873  0.44290681  1
  S2-  S193  1  -0.00950937  0.11707713  0.95809932  1
  S2-  S194  1  0.00836376  0.38044357  0.45635860  1
  S2-  S195  1  -0.00560798  0.37412348  0.96006661  1
  S2-  S196  1  0.00626503  0.62929588  0.44079232  1
  S2-  S197  1  -0.00788821  0.61623679  0.96547343  1
  S2-  S198  1  0.00343961  0.87728999  0.45671900  1
  S2-  S199  1  -0.01075970  0.86185756  0.95866319  1
  S2-  S200  1  0.25450278  0.12905950  0.44079596  1
  S2-  S201  1  0.24723920  0.10892724  0.94223669  1
  S2-  S202  1  0.26209348  0.38412461  0.45711258  1
  S2-  S203  1  0.23409753  0.37530581  0.95568534  1
  S2-  S204  1  0.26043567  0.62875565  0.45384338  1
  S2-  S205  1  0.24242251  0.61962506  0.95925628  1
  S2-  S206  1  0.25824803  0.87107696  0.45272895  1
  S2-  S207  1  0.25521019  0.87267316  0.94450221  1
  S2-  S208  1  0.50646729  0.12575487  0.46049389  1
  S2-  S209  1  0.48985221  0.11773143  0.95539762  1
  S2-  S210  1  0.50821540  0.37675325  0.45992797  1
  S2-  S211  1  0.48867904  0.36618955  0.93829377  1
  S2-  S212  1  0.50797331  0.62716135  0.46019734  1
  S2-  S213  1  0.49055238  0.61709011  0.96295057  1
  S2-  S214  1  0.49758218  0.88149162  0.46452546  1
  S2-  S215  1  0.48927501  0.87301849  0.95627788  1
  S2-  S216  1  0.75257833  0.12772408  0.45122521  1
  S2-  S217  1  0.74328842  0.11772420  0.94810150  1
  S2-  S218  1  0.75362222  0.37521137  0.45238926  1
  S2-  S219  1  0.74361200  0.36615085  0.95024740  1
  S2-  S220  1  0.75895490  0.63252456  0.46630392  1
  S2-  S221  1  0.73949857  0.61192664  0.96708483  1
  S2-  S222  1  0.76069448  0.87803311  0.45555905  1
  S2-  S223  1  0.74085687  0.87281085  0.95091683  1
  S2-  S224  1  0.11788880  -0.01027195  0.03259809  1
  S2-  S225  1  0.13551264  0.00418893  0.53383310  1
  S2-  S226  1  0.11593573  0.24012094  0.03278963  1
  S2-  S227  1  0.13719232  0.24900616  0.53338648  1
  S2-  S228  1  0.11612970  0.49683338  0.04698831  1
  S2-  S229  1  0.12857006  0.50381610  0.54521313  1
  S2-  S230  1  0.11878620  0.74215117  0.04201150  1
  S2-  S231  1  0.12867974  0.74993868  0.54982457  1
  S2-  S232  1  0.36473947  -0.00166356  0.04937772  1
  S2-  S233  1  0.37242814  0.00687789  0.54489403  1
  S2-  S234  1  0.36022086  0.23969778  0.03767114  1
  S2-  S235  1  0.37053313  0.24620382  0.54858744  1
  S2-  S236  1  0.37245717  0.48625683  0.05327655  1
  S2-  S237  1  0.38013989  0.50281746  0.54674185  1
  S2-  S238  1  0.36440346  0.74670450  0.04230597  1
  S2-  S239  1  0.37982416  0.75180356  0.55141411  1
  S2-  S240  1  0.61584855  -0.00304919  0.05203430  1
  S2-  S241  1  0.63481041  0.00120571  0.54487417  1
  S2-  S242  1  0.61419636  0.24562984  0.04297215  1
  S2-  S243  1  0.63462601  0.25575339  0.53917485  1
  S2-  S244  1  0.60977024  0.48473266  0.05011633  1
  S2-  S245  1  0.62785911  0.49815003  0.54086569  1
  S2-  S246  1  0.61424514  0.74572482  0.04127387  1
  S2-  S247  1  0.62665421  0.75910132  0.54586619  1
  S2-  S248  1  0.86295543  -0.00793004  0.04846821  1
  S2-  S249  1  0.88374380  0.00753177  0.54592960  1
  S2-  S250  1  0.86554359  0.24241064  0.04517408  1
  S2-  S251  1  0.88746659  0.25416791  0.53578668  1
  S2-  S252  1  0.86949426  0.48732818  0.05707388  1
  S2-  S253  1  0.88759852  0.50468195  0.54992790  1
  S2-  S254  1  0.86340087  0.74170407  0.04293845  1
  S2-  S255  1  0.89148279  0.75399058  0.55278502  1
