# generated using pymatgen
data_La9Ce10Pr6Nd4Sm3(BiS2)32
_symmetry_space_group_name_H-M   'P 1'
_cell_length_a   16.11281668
_cell_length_b   16.15434618
_cell_length_c   26.95740838
_cell_angle_alpha   89.81600255
_cell_angle_beta   90.03610115
_cell_angle_gamma   89.94004633
_symmetry_Int_Tables_number   1
_chemical_formula_structural   La9Ce10Pr6Nd4Sm3(BiS2)32
_chemical_formula_sum   'La18 Ce20 Pr12 Nd8 Sm6 Bi64 S128'
_cell_volume   7016.75681237
_cell_formula_units_Z   2
loop_
 _symmetry_equiv_pos_site_id
 _symmetry_equiv_pos_as_xyz
  1  'x, y, z'
loop_
 _atom_type_symbol
 _atom_type_oxidation_number
  La3+  3.0
  Ce3+  3.0
  Pr3+  3.0
  Nd3+  3.0
  Sm3+  3.0
  Bi2+  2.0
  S2-  -2.0
loop_
 _atom_site_type_symbol
 _atom_site_label
 _atom_site_symmetry_multiplicity
 _atom_site_fract_x
 _atom_site_fract_y
 _atom_site_fract_z
 _atom_site_occupancy
  La3+  La0  1  0.11280815  0.00291960  0.42402487  1
  La3+  La1  1  0.36389778  0.25863270  0.42661508  1
  La3+  La2  1  0.00593852  0.12949919  0.57628286  1
  La3+  La3  1  0.11065322  0.75207760  0.92201055  1
  La3+  La4  1  -0.00315694  0.38227046  0.08181536  1
  La3+  La5  1  0.75302625  0.10406424  0.60950263  1
  La3+  La6  1  0.50479517  0.63149546  0.58809453  1
  La3+  La7  1  0.61462609  0.00490407  0.93521465  1
  La3+  La8  1  0.48383771  0.87992150  0.07230703  1
  La3+  La9  1  0.35497338  0.77957417  0.88910926  1
  La3+  La10  1  0.74193269  0.87787783  0.06030528  1
  La3+  La11  1  0.61202368  0.49422236  0.41732288  1
  La3+  La12  1  0.11044250  0.25368583  0.43485466  1
  La3+  La13  1  0.61871379  0.24695020  0.43628146  1
  La3+  La14  1  0.24667365  0.37572906  0.57640564  1
  La3+  La15  1  0.73458798  0.37555782  0.57118609  1
  La3+  La16  1  0.73555274  0.37767788  0.08183509  1
  La3+  La17  1  0.61383087  0.75121459  0.92856136  1
  Ce3+  Ce18  1  0.48362704  0.87898465  0.55926387  1
  Ce3+  Ce19  1  0.36454794  0.26031451  0.94883221  1
  Ce3+  Ce20  1  0.86589798  0.75584635  0.93120811  1
  Ce3+  Ce21  1  0.86644975  -0.00061285  0.44038256  1
  Ce3+  Ce22  1  0.72909304  0.87215910  0.55569417  1
  Ce3+  Ce23  1  0.86272095  0.24471832  0.45433677  1
  Ce3+  Ce24  1  0.11592049  0.26013020  0.94391942  1
  Ce3+  Ce25  1  0.73497353  0.62515387  0.54702377  1
  Ce3+  Ce26  1  0.48563222  0.13270723  0.06742091  1
  Ce3+  Ce27  1  0.86803853  0.01174835  0.94264618  1
  Ce3+  Ce28  1  0.49290203  0.38271723  0.06245681  1
  Ce3+  Ce29  1  0.23842280  0.63401668  0.05427870  1
  Ce3+  Ce30  1  0.24008633  0.87844245  0.05767116  1
  Ce3+  Ce31  1  0.49496413  0.12182216  0.55378142  1
  Ce3+  Ce32  1  0.23246770  0.62427912  0.58066915  1
  Ce3+  Ce33  1  0.86540420  0.25649295  0.94858352  1
  Ce3+  Ce34  1  -0.00644045  0.88103715  0.05301070  1
  Ce3+  Ce35  1  0.36484194  0.50148141  0.44985848  1
  Ce3+  Ce36  1  0.36598693  0.00897520  0.93967563  1
  Ce3+  Ce37  1  0.11740765  0.01275771  0.93395694  1
  Pr3+  Pr38  1  -0.00535353  0.13288573  0.07539395  1
  Pr3+  Pr39  1  0.11419990  0.49668548  0.44184855  1
  Pr3+  Pr40  1  0.60803499  -0.00472490  0.42304027  1
  Pr3+  Pr41  1  0.11472621  0.50732713  0.93451667  1
  Pr3+  Pr42  1  0.73324185  0.13006351  0.07339806  1
  Pr3+  Pr43  1  0.61303391  0.75090888  0.42270556  1
  Pr3+  Pr44  1  0.24127724  0.39455749  0.07085777  1
  Pr3+  Pr45  1  -0.01124028  0.88412567  0.56757942  1
  Pr3+  Pr46  1  -0.01806463  0.37589748  0.57672307  1
  Pr3+  Pr47  1  0.24000264  0.13035405  0.06951451  1
  Pr3+  Pr48  1  0.11598446  0.74713674  0.44122077  1
  Pr3+  Pr49  1  -0.01748489  0.63497603  0.07423867  1
  Nd3+  Nd50  1  0.86574257  0.74947125  0.44245645  1
  Nd3+  Nd51  1  0.49434771  0.63137988  0.06383795  1
  Nd3+  Nd52  1  0.23983740  0.87341365  0.57434448  1
  Nd3+  Nd53  1  0.86522460  0.50394423  0.94772671  1
  Nd3+  Nd54  1  0.36249677  0.74586877  0.44494801  1
  Nd3+  Nd55  1  0.61472752  0.25438726  0.93779900  1
  Nd3+  Nd56  1  0.36053858  -0.00342675  0.42627343  1
  Nd3+  Nd57  1  -0.01169865  0.62593916  0.56372686  1
  Sm3+  Sm58  1  0.49431938  0.37306752  0.56234362  1
  Sm3+  Sm59  1  0.73674059  0.62949588  0.06490342  1
  Sm3+  Sm60  1  0.61858055  0.50439723  0.94224453  1
  Sm3+  Sm61  1  0.36827244  0.51265397  0.94012999  1
  Sm3+  Sm62  1  0.24452241  0.12505047  0.55395975  1
  Sm3+  Sm63  1  0.86448415  0.49619137  0.43977582  1
  Bi2+  Bi64  1  0.00400825  0.09416664  0.27793218  1
  Bi2+  Bi65  1  -0.00745053  0.13052604  0.79529407  1
  Bi2+  Bi66  1  -0.00463420  0.35701664  0.29965090  1
  Bi2+  Bi67  1  0.08065129  0.37261394  0.82388989  1
  Bi2+  Bi68  1  0.12878671  0.60226997  0.31357915  1
  Bi2+  Bi69  1  -0.00067832  0.61323851  0.78811830  1
  Bi2+  Bi70  1  -0.01940544  0.85559497  0.29196056  1
  Bi2+  Bi71  1  -0.04668718  0.85553419  0.76950233  1
  Bi2+  Bi72  1  0.23777088  0.09646631  0.28341479  1
  Bi2+  Bi73  1  0.25527811  0.14770315  0.78807245  1
  Bi2+  Bi74  1  0.25471564  0.39173144  0.28414671  1
  Bi2+  Bi75  1  0.26546622  0.37214341  0.79022191  1
  Bi2+  Bi76  1  0.31653749  0.58058835  0.31333995  1
  Bi2+  Bi77  1  0.25453663  0.57433545  0.77543789  1
  Bi2+  Bi78  1  0.24714205  0.84661693  0.27813038  1
  Bi2+  Bi79  1  0.22193321  0.95211317  0.79307938  1
  Bi2+  Bi80  1  0.49677686  0.11430874  0.28030320  1
  Bi2+  Bi81  1  0.46672845  0.17464556  0.77485073  1
  Bi2+  Bi82  1  0.48873363  0.43805102  0.28862956  1
  Bi2+  Bi83  1  0.52700745  0.37247714  0.77874512  1
  Bi2+  Bi84  1  0.42733168  0.60840096  0.21832631  1
  Bi2+  Bi85  1  0.49307115  0.61388416  0.78323548  1
  Bi2+  Bi86  1  0.49754009  0.82610028  0.29547844  1
  Bi2+  Bi87  1  0.54955513  0.91473213  0.80825504  1
  Bi2+  Bi88  1  0.69860286  0.10951466  0.29700501  1
  Bi2+  Bi89  1  0.73429232  0.15681369  0.80454226  1
  Bi2+  Bi90  1  0.75259627  0.36259574  0.31814849  1
  Bi2+  Bi91  1  0.79663686  0.38784246  0.79901552  1
  Bi2+  Bi92  1  0.73406728  0.72304230  0.29414860  1
  Bi2+  Bi93  1  0.75627213  0.60510253  0.79053433  1
  Bi2+  Bi94  1  0.78287682  0.92645900  0.29360992  1
  Bi2+  Bi95  1  0.73784771  0.80177505  0.81481238  1
  Bi2+  Bi96  1  0.11718391  -0.05012554  0.20763800  1
  Bi2+  Bi97  1  0.05287574  0.01644716  0.70885374  1
  Bi2+  Bi98  1  0.10693329  0.23237435  0.21548183  1
  Bi2+  Bi99  1  0.18329380  0.24632947  0.69374712  1
  Bi2+  Bi100  1  0.13783806  0.50191796  0.21575045  1
  Bi2+  Bi101  1  0.11057639  0.45715449  0.71790301  1
  Bi2+  Bi102  1  0.08724757  0.75642550  0.17873543  1
  Bi2+  Bi103  1  0.12178377  0.75793347  0.71396556  1
  Bi2+  Bi104  1  0.36855465  -0.00172237  0.21604515  1
  Bi2+  Bi105  1  0.36827826  0.04064806  0.71389584  1
  Bi2+  Bi106  1  0.36316712  0.24485524  0.22452763  1
  Bi2+  Bi107  1  0.37045338  0.22590746  0.65152573  1
  Bi2+  Bi108  1  0.39158927  0.42420232  0.18506977  1
  Bi2+  Bi109  1  0.38397699  0.40195263  0.69678671  1
  Bi2+  Bi110  1  0.27885197  0.72594544  0.18678117  1
  Bi2+  Bi111  1  0.40422195  0.78300121  0.70069783  1
  Bi2+  Bi112  1  0.61887448  -0.02091497  0.21106470  1
  Bi2+  Bi113  1  0.59016068  -0.02851462  0.70586948  1
  Bi2+  Bi114  1  0.61268045  0.24256144  0.21316075  1
  Bi2+  Bi115  1  0.60908070  0.24301914  0.70422410  1
  Bi2+  Bi116  1  0.63792208  0.50235963  0.21978416  1
  Bi2+  Bi117  1  0.67255611  0.46740491  0.72266313  1
  Bi2+  Bi118  1  0.68899226  0.75635514  0.18802951  1
  Bi2+  Bi119  1  0.67095173  0.73727647  0.70898314  1
  Bi2+  Bi120  1  0.84379019  0.06721143  0.21743831  1
  Bi2+  Bi121  1  0.79126316  -0.04212346  0.75230715  1
  Bi2+  Bi122  1  0.85593259  0.26771498  0.23268035  1
  Bi2+  Bi123  1  0.95140423  0.32974975  0.73675264  1
  Bi2+  Bi124  1  0.89674029  0.50738360  0.23477017  1
  Bi2+  Bi125  1  0.92628782  0.53657278  0.68699677  1
  Bi2+  Bi126  1  0.91666307  0.70120173  0.23223930  1
  Bi2+  Bi127  1  0.87128369  0.72234957  0.70062787  1
  S2-  S128  1  0.12578282  0.10352079  0.14845861  1
  S2-  S129  1  -0.07803974  0.04651351  0.65157734  1
  S2-  S130  1  -0.03097666  0.25439930  0.15397858  1
  S2-  S131  1  0.02105594  0.26106262  0.65298153  1
  S2-  S132  1  -0.00453411  0.51492306  0.15209949  1
  S2-  S133  1  0.07944364  0.64479108  0.65002191  1
  S2-  S134  1  -0.01499444  0.89412732  0.15212984  1
  S2-  S135  1  0.10350167  0.88552815  0.64623421  1
  S2-  S136  1  0.36488153  0.13026703  0.14564868  1
  S2-  S137  1  0.15934419  0.10045853  0.64219191  1
  S2-  S138  1  0.14552012  0.35730551  0.15432726  1
  S2-  S139  1  0.24811518  0.49635612  0.65280133  1
  S2-  S140  1  0.24564367  0.54464551  0.13963069  1
  S2-  S141  1  0.26063764  0.74473448  0.65384989  1
  S2-  S142  1  0.33216056  0.88867542  0.14450576  1
  S2-  S143  1  0.37095586  0.92379684  0.64070353  1
  S2-  S144  1  0.59474318  0.11504254  0.14501260  1
  S2-  S145  1  0.57924309  0.10049859  0.64232499  1
  S2-  S146  1  0.57949767  0.37963609  0.14931335  1
  S2-  S147  1  0.60257696  0.38984288  0.64107725  1
  S2-  S148  1  0.60876096  0.62489694  0.14350817  1
  S2-  S149  1  0.44930467  0.61716645  0.68635738  1
  S2-  S150  1  0.54417609  0.84596111  0.16867605  1
  S2-  S151  1  0.54608537  0.79870293  0.64205268  1
  S2-  S152  1  0.74769053  0.24581880  0.15287428  1
  S2-  S153  1  0.76216826  0.18702438  0.70440226  1
  S2-  S154  1  0.77321150  0.46975622  0.17039266  1
  S2-  S155  1  0.85132300  0.39649714  0.65011609  1
  S2-  S156  1  0.83568098  0.68326393  0.14072397  1
  S2-  S157  1  0.66950428  0.61538346  0.63847156  1
  S2-  S158  1  0.75340106  0.91348625  0.16010440  1
  S2-  S159  1  0.73213426  0.93877146  0.64872040  1
  S2-  S160  1  0.23949529  -0.02821559  0.35276247  1
  S2-  S161  1  0.05501383  -0.00569365  0.84088773  1
  S2-  S162  1  0.11064782  0.14862792  0.35081616  1
  S2-  S163  1  0.11618629  0.19090536  0.85290495  1
  S2-  S164  1  0.12600900  0.38220254  0.36186581  1
  S2-  S165  1  0.12973978  0.60359630  0.84877828  1
  S2-  S166  1  0.11828849  0.77161015  0.33939257  1
  S2-  S167  1  0.19626269  0.81566732  0.84043675  1
  S2-  S168  1  0.47129959  -0.01642157  0.34613309  1
  S2-  S169  1  0.38377387  -0.05493674  0.84690376  1
  S2-  S170  1  0.35760005  0.19029381  0.33135995  1
  S2-  S171  1  0.36745971  0.24929273  0.85000865  1
  S2-  S172  1  0.36715670  0.40788160  0.36321384  1
  S2-  S173  1  0.37977108  0.52006739  0.84047254  1
  S2-  S174  1  0.36291486  0.77215522  0.34243135  1
  S2-  S175  1  0.34431748  0.71037894  0.78869738  1
  S2-  S176  1  0.64309053  -0.12204279  0.34613382  1
  S2-  S177  1  0.59318337  0.07970122  0.84296717  1
  S2-  S178  1  0.59142246  0.33612560  0.34895904  1
  S2-  S179  1  0.65106831  0.30443520  0.84247928  1
  S2-  S180  1  0.69371051  0.51248918  0.32345482  1
  S2-  S181  1  0.62284468  0.56377085  0.84871715  1
  S2-  S182  1  0.56774199  0.69040517  0.32641451  1
  S2-  S183  1  0.51512441  0.75497681  0.84435558  1
  S2-  S184  1  0.96900720  -0.01536348  0.35846997  1
  S2-  S185  1  0.81004304  0.02121878  0.84891179  1
  S2-  S186  1  0.88367094  0.25208822  0.35517837  1
  S2-  S187  1  0.87452495  0.23498356  0.84919520  1
  S2-  S188  1  0.90260695  0.48345801  0.34287828  1
  S2-  S189  1  0.88961162  0.50786361  0.84674823  1
  S2-  S190  1  0.88351561  0.72530747  0.34311108  1
  S2-  S191  1  0.96999221  0.75003742  0.85139388  1
  S2-  S192  1  -0.01208739  0.12498224  0.46312974  1
  S2-  S193  1  -0.00761856  0.13351957  0.96135902  1
  S2-  S194  1  -0.01717962  0.37539087  0.46590137  1
  S2-  S195  1  -0.00955986  0.38150551  0.96071982  1
  S2-  S196  1  -0.01250080  0.62129428  0.45523647  1
  S2-  S197  1  -0.01254012  0.62841264  0.95898703  1
  S2-  S198  1  -0.00993678  0.86990537  0.45964379  1
  S2-  S199  1  -0.00933733  0.88629350  0.94823884  1
  S2-  S200  1  0.24287810  0.12991114  0.45017171  1
  S2-  S201  1  0.24277746  0.13413426  0.95703378  1
  S2-  S202  1  0.24185183  0.37810387  0.46647003  1
  S2-  S203  1  0.24311979  0.38834931  0.95520900  1
  S2-  S204  1  0.23728092  0.62099692  0.46165392  1
  S2-  S205  1  0.25182522  0.64037471  0.94684294  1
  S2-  S206  1  0.23972651  0.86972829  0.46016377  1
  S2-  S207  1  0.24122028  0.88527123  0.95264230  1
  S2-  S208  1  0.48843462  0.12771820  0.44478053  1
  S2-  S209  1  0.48869332  0.13411061  0.95704119  1
  S2-  S210  1  0.49344664  0.37539320  0.45904199  1
  S2-  S211  1  0.49200352  0.38501372  0.95092213  1
  S2-  S212  1  0.48826749  0.62131561  0.44128575  1
  S2-  S213  1  0.49452058  0.62626889  0.95621758  1
  S2-  S214  1  0.48531240  0.87057507  0.45199082  1
  S2-  S215  1  0.48641633  0.87861326  0.95572269  1
  S2-  S216  1  0.73948688  0.11840091  0.43844101  1
  S2-  S217  1  0.73818038  0.13232158  0.96077200  1
  S2-  S218  1  0.74190013  0.37610914  0.45672922  1
  S2-  S219  1  0.73930519  0.38052166  0.95915342  1
  S2-  S220  1  0.74088572  0.62256266  0.44068814  1
  S2-  S221  1  0.74226984  0.63015465  0.95579789  1
  S2-  S222  1  0.74334111  0.87347280  0.45048457  1
  S2-  S223  1  0.74180132  0.88107328  0.95040812  1
  S2-  S224  1  0.11772994  0.00279000  0.04246773  1
  S2-  S225  1  0.11942481  -0.00028339  0.53715636  1
  S2-  S226  1  0.11990731  0.25789859  0.04750736  1
  S2-  S227  1  0.12463664  0.25566526  0.54450764  1
  S2-  S228  1  0.11228602  0.51138619  0.04171597  1
  S2-  S229  1  0.10864029  0.49608081  0.55086455  1
  S2-  S230  1  0.11408518  0.75533578  0.04065568  1
  S2-  S231  1  0.11198986  0.75181988  0.54684765  1
  S2-  S232  1  0.36385709  0.00652532  0.04322711  1
  S2-  S233  1  0.36413238  0.00615002  0.53471068  1
  S2-  S234  1  0.36293978  0.26592189  0.05322132  1
  S2-  S235  1  0.37065076  0.25090222  0.53895924  1
  S2-  S236  1  0.37206040  0.50935558  0.04440336  1
  S2-  S237  1  0.37841340  0.50420333  0.55504772  1
  S2-  S238  1  0.36735407  0.75030237  0.05180229  1
  S2-  S239  1  0.36994397  0.74156930  0.55007891  1
  S2-  S240  1  0.61271603  0.00100318  0.04492391  1
  S2-  S241  1  0.61209450  -0.00429747  0.53390868  1
  S2-  S242  1  0.61107285  0.25527495  0.04447198  1
  S2-  S243  1  0.61763463  0.24438696  0.54442964  1
  S2-  S244  1  0.61798268  0.50419743  0.04518430  1
  S2-  S245  1  0.61211885  0.50247562  0.53364107  1
  S2-  S246  1  0.61598936  0.75624935  0.04109890  1
  S2-  S247  1  0.61196324  0.74755280  0.53119457  1
  S2-  S248  1  0.86704292  0.01101875  0.05099988  1
  S2-  S249  1  0.85513068  -0.00354900  0.54388072  1
  S2-  S250  1  0.86584007  0.25480187  0.05130716  1
  S2-  S251  1  0.85533600  0.23806342  0.56062747  1
  S2-  S252  1  0.86108821  0.50485719  0.05233463  1
  S2-  S253  1  0.86102436  0.50534524  0.54500655  1
  S2-  S254  1  0.86834070  0.75922232  0.03616310  1
  S2-  S255  1  0.86338002  0.75152195  0.55075655  1
