# generated using pymatgen
data_La9Ce10Pr6Nd4Sm3(BiS2)32
_symmetry_space_group_name_H-M   'P 1'
_cell_length_a   16.25323348
_cell_length_b   16.25924677
_cell_length_c   27.16461731
_cell_angle_alpha   90.12987820
_cell_angle_beta   90.05310536
_cell_angle_gamma   90.00157445
_symmetry_Int_Tables_number   1
_chemical_formula_structural   La9Ce10Pr6Nd4Sm3(BiS2)32
_chemical_formula_sum   'La18 Ce20 Pr12 Nd8 Sm6 Bi64 S128'
_cell_volume   7178.64513772
_cell_formula_units_Z   2
loop_
 _symmetry_equiv_pos_site_id
 _symmetry_equiv_pos_as_xyz
  1  'x, y, z'
loop_
 _atom_type_symbol
 _atom_type_oxidation_number
  La3+  3.0
  Ce3+  3.0
  Pr3+  3.0
  Nd3+  3.0
  Sm3+  3.0
  Bi2+  2.0
  S2-  -2.0
loop_
 _atom_site_type_symbol
 _atom_site_label
 _atom_site_symmetry_multiplicity
 _atom_site_fract_x
 _atom_site_fract_y
 _atom_site_fract_z
 _atom_site_occupancy
  La3+  La0  1  0.48798765  0.87424124  0.57152899  1
  La3+  La1  1  0.62193193  0.23662089  0.93050820  1
  La3+  La2  1  0.87540671  0.24173930  0.94094762  1
  La3+  La3  1  0.37045873  0.24307306  0.94083895  1
  La3+  La4  1  0.60760666  -0.01013747  0.43561047  1
  La3+  La5  1  0.48557367  0.61739899  0.56419851  1
  La3+  La6  1  0.23428729  0.12489681  0.56347145  1
  La3+  La7  1  0.50339410  0.11705762  0.06777756  1
  La3+  La8  1  0.11968622  0.73742902  0.89871481  1
  La3+  La9  1  0.12390872  -0.00842934  0.92948243  1
  La3+  La10  1  0.87274091  0.74166207  0.92872562  1
  La3+  La11  1  0.23733624  0.61369655  0.57766654  1
  La3+  La12  1  0.22860279  0.88328418  0.58284887  1
  La3+  La13  1  0.75029036  0.36842928  0.06342545  1
  La3+  La14  1  0.38592312  0.74310111  0.90059247  1
  La3+  La15  1  -0.01865340  0.36186994  0.58293870  1
  La3+  La16  1  0.10865013  -0.01433765  0.42043933  1
  La3+  La17  1  0.25657964  0.38007797  0.09341644  1
  Ce3+  Ce18  1  0.62361515  0.74135256  0.93872427  1
  Ce3+  Ce19  1  -0.01108786  0.87512476  0.56316781  1
  Ce3+  Ce20  1  0.62338159  0.49325114  0.94153599  1
  Ce3+  Ce21  1  0.00318277  0.61720635  0.05212800  1
  Ce3+  Ce22  1  -0.01314276  0.12101621  0.55447749  1
  Ce3+  Ce23  1  0.73704215  0.87214864  0.55807241  1
  Ce3+  Ce24  1  0.11381743  0.74601114  0.45032156  1
  Ce3+  Ce25  1  0.48655508  0.12446725  0.55477361  1
  Ce3+  Ce26  1  0.11263847  0.49471325  0.44932597  1
  Ce3+  Ce27  1  0.62207643  -0.01146560  0.94211209  1
  Ce3+  Ce28  1  0.35741232  0.24900379  0.44384557  1
  Ce3+  Ce29  1  0.73832179  0.62063773  0.55644371  1
  Ce3+  Ce30  1  0.49730790  0.36899541  0.05719095  1
  Ce3+  Ce31  1  0.25004359  0.86692847  0.04672556  1
  Ce3+  Ce32  1  0.35733886  -0.00607599  0.44423492  1
  Ce3+  Ce33  1  0.49707922  0.86539195  0.05609643  1
  Ce3+  Ce34  1  0.60996047  0.74380200  0.44769314  1
  Ce3+  Ce35  1  0.74672908  0.11653675  0.06221754  1
  Ce3+  Ce36  1  -0.01333605  0.62147923  0.56448020  1
  Ce3+  Ce37  1  0.87497850  -0.00942344  0.94838638  1
  Pr3+  Pr38  1  0.00272490  0.86656915  0.05783716  1
  Pr3+  Pr39  1  0.11291016  0.24691920  0.43546741  1
  Pr3+  Pr40  1  0.60836065  0.24950512  0.43448536  1
  Pr3+  Pr41  1  0.73229453  0.36853769  0.57292597  1
  Pr3+  Pr42  1  0.12841908  0.24290328  0.94712754  1
  Pr3+  Pr43  1  0.34934097  0.50954809  0.41871676  1
  Pr3+  Pr44  1  0.25009970  0.61734248  0.04860271  1
  Pr3+  Pr45  1  0.61045762  0.49724157  0.43556725  1
  Pr3+  Pr46  1  0.37354396  0.49308419  0.92901526  1
  Pr3+  Pr47  1  0.25806132  0.10524915  0.08166724  1
  Pr3+  Pr48  1  0.75186307  0.61761279  0.05612443  1
  Pr3+  Pr49  1  0.86325366  -0.00539768  0.43772035  1
  Nd3+  Nd50  1  0.73589260  0.12130903  0.55512275  1
  Nd3+  Nd51  1  0.00651766  0.11848544  0.06155815  1
  Nd3+  Nd52  1  0.49694567  0.61744745  0.05836639  1
  Nd3+  Nd53  1  0.85909846  0.24779198  0.43773998  1
  Nd3+  Nd54  1  0.12592420  0.49431039  0.93076375  1
  Nd3+  Nd55  1  0.86257155  0.49444884  0.44375173  1
  Nd3+  Nd56  1  0.23338155  0.37208592  0.57045440  1
  Nd3+  Nd57  1  0.75038716  0.86507237  0.05574161  1
  Sm3+  Sm58  1  0.00510109  0.36631491  0.05557485  1
  Sm3+  Sm59  1  0.86288963  0.74390542  0.45027613  1
  Sm3+  Sm60  1  0.35774704  0.74523607  0.45466564  1
  Sm3+  Sm61  1  0.37495028  -0.00781458  0.93424691  1
  Sm3+  Sm62  1  0.87503558  0.49103014  0.94183785  1
  Sm3+  Sm63  1  0.48875435  0.37296991  0.55529467  1
  Bi2+  Bi64  1  -0.05919181  0.11486197  0.28349620  1
  Bi2+  Bi65  1  0.00761861  0.15874478  0.77207567  1
  Bi2+  Bi66  1  -0.03444118  0.40613417  0.25700063  1
  Bi2+  Bi67  1  0.09876437  0.33526418  0.76068672  1
  Bi2+  Bi68  1  0.00226565  0.63377528  0.29016650  1
  Bi2+  Bi69  1  -0.03275339  0.61254586  0.78667232  1
  Bi2+  Bi70  1  0.01426908  0.85701652  0.29152471  1
  Bi2+  Bi71  1  0.00955165  0.90861082  0.79223816  1
  Bi2+  Bi72  1  0.27039871  0.14245813  0.30315110  1
  Bi2+  Bi73  1  0.26738088  0.20645030  0.79416671  1
  Bi2+  Bi74  1  0.25576421  0.38374191  0.29759499  1
  Bi2+  Bi75  1  0.24101437  0.41002398  0.82712158  1
  Bi2+  Bi76  1  0.21823061  0.64785370  0.30492359  1
  Bi2+  Bi77  1  0.26912729  0.59942864  0.79056385  1
  Bi2+  Bi78  1  0.26002001  0.90186232  0.30150898  1
  Bi2+  Bi79  1  0.26375623  0.91844503  0.78218318  1
  Bi2+  Bi80  1  0.49809921  0.18697244  0.27927919  1
  Bi2+  Bi81  1  0.54240028  0.12967569  0.78414169  1
  Bi2+  Bi82  1  0.51492506  0.38680747  0.26607788  1
  Bi2+  Bi83  1  0.42148212  0.35403579  0.80673599  1
  Bi2+  Bi84  1  0.58612791  0.64512449  0.29618082  1
  Bi2+  Bi85  1  0.54300875  0.59438563  0.77960395  1
  Bi2+  Bi86  1  0.51111564  0.89581821  0.28776061  1
  Bi2+  Bi87  1  0.58253887  0.88640320  0.78953189  1
  Bi2+  Bi88  1  0.74273126  0.09949394  0.29431451  1
  Bi2+  Bi89  1  0.80671225  0.10976698  0.79360879  1
  Bi2+  Bi90  1  0.75631049  0.36599612  0.30820023  1
  Bi2+  Bi91  1  0.76674826  0.38227122  0.81568423  1
  Bi2+  Bi92  1  0.77891066  0.65255309  0.30062151  1
  Bi2+  Bi93  1  0.77030458  0.64774995  0.80838188  1
  Bi2+  Bi94  1  0.79673741  0.84784640  0.29382047  1
  Bi2+  Bi95  1  0.76420011  0.84153543  0.80867679  1
  Bi2+  Bi96  1  0.11795445  0.01188392  0.19711617  1
  Bi2+  Bi97  1  0.10228389  0.08162986  0.68417925  1
  Bi2+  Bi98  1  0.08649043  0.25622241  0.21109576  1
  Bi2+  Bi99  1  0.22904330  0.24338936  0.68377300  1
  Bi2+  Bi100  1  0.12914758  0.56483825  0.21408871  1
  Bi2+  Bi101  1  0.15111314  0.51780497  0.70571654  1
  Bi2+  Bi102  1  0.15285224  0.76383610  0.21938318  1
  Bi2+  Bi103  1  0.11428150  0.75988234  0.70171429  1
  Bi2+  Bi104  1  0.37649552  -0.04590636  0.20722120  1
  Bi2+  Bi105  1  0.40236843  0.02604243  0.71429155  1
  Bi2+  Bi106  1  0.36546013  0.24086941  0.20147462  1
  Bi2+  Bi107  1  0.42007461  0.26952806  0.69794398  1
  Bi2+  Bi108  1  0.38273677  0.52029495  0.20936656  1
  Bi2+  Bi109  1  0.41535971  0.46411034  0.71161726  1
  Bi2+  Bi110  1  0.37533756  0.75396210  0.26886389  1
  Bi2+  Bi111  1  0.39337715  0.75477447  0.70802920  1
  Bi2+  Bi112  1  0.63884554  -0.00850264  0.20623029  1
  Bi2+  Bi113  1  0.71332770  0.00748783  0.71294597  1
  Bi2+  Bi114  1  0.62949684  0.25825988  0.20814445  1
  Bi2+  Bi115  1  0.62388358  0.26540947  0.72273533  1
  Bi2+  Bi116  1  0.62185922  0.52977973  0.20484449  1
  Bi2+  Bi117  1  0.64306786  0.46137984  0.71986504  1
  Bi2+  Bi118  1  0.65666000  0.78189569  0.22450053  1
  Bi2+  Bi119  1  0.64481008  0.73407954  0.72004336  1
  Bi2+  Bi120  1  0.83490477  -0.00946182  0.21596923  1
  Bi2+  Bi121  1  0.90982945  0.00928905  0.70966742  1
  Bi2+  Bi122  1  0.83964615  0.26103031  0.22603401  1
  Bi2+  Bi123  1  0.84957401  0.24093186  0.70551676  1
  Bi2+  Bi124  1  0.85457451  0.54497810  0.21490917  1
  Bi2+  Bi125  1  0.82877540  0.52837551  0.71874098  1
  Bi2+  Bi126  1  0.95491667  0.75152609  0.19859285  1
  Bi2+  Bi127  1  0.84135382  0.75446995  0.71776694  1
  S2-  S128  1  0.00441838  0.12400044  0.16140818  1
  S2-  S129  1  -0.01933102  0.19950740  0.64065885  1
  S2-  S130  1  0.00427104  0.36511626  0.15347830  1
  S2-  S131  1  0.10355511  0.37440804  0.65480887  1
  S2-  S132  1  -0.00895312  0.60049573  0.14892147  1
  S2-  S133  1  0.02514139  0.62160751  0.66116959  1
  S2-  S134  1  0.01837446  0.90328342  0.15636734  1
  S2-  S135  1  0.07255530  0.89572541  0.64716591  1
  S2-  S136  1  0.20638961  0.15185235  0.17586632  1
  S2-  S137  1  0.25602845  0.03637883  0.64998393  1
  S2-  S138  1  0.22262116  0.35172818  0.19538379  1
  S2-  S139  1  0.28125458  0.47727673  0.64567203  1
  S2-  S140  1  0.25623268  0.54342078  0.14063708  1
  S2-  S141  1  0.23943014  0.65937889  0.67850390  1
  S2-  S142  1  0.24466112  0.94607558  0.13573831  1
  S2-  S143  1  0.26505740  0.84580003  0.68224133  1
  S2-  S144  1  0.40373506  0.10806215  0.15093356  1
  S2-  S145  1  0.48954139  0.11174319  0.65284527  1
  S2-  S146  1  0.41868612  0.38180686  0.14453040  1
  S2-  S147  1  0.59215199  0.37711508  0.63684579  1
  S2-  S148  1  0.48515034  0.61212528  0.15942862  1
  S2-  S149  1  0.46978178  0.61145647  0.66474765  1
  S2-  S150  1  0.49619434  0.88005744  0.15393840  1
  S2-  S151  1  0.47369505  0.89186138  0.67220382  1
  S2-  S152  1  0.63809862  0.11745423  0.14000527  1
  S2-  S153  1  0.71980321  0.17353574  0.64952121  1
  S2-  S154  1  0.68502877  0.38758441  0.15600066  1
  S2-  S155  1  0.84779243  0.38026021  0.65109526  1
  S2-  S156  1  0.73768376  0.62226525  0.15608037  1
  S2-  S157  1  0.72260203  0.61233370  0.65325595  1
  S2-  S158  1  0.74941830  0.87168368  0.15490438  1
  S2-  S159  1  0.69407848  0.87615610  0.65220347  1
  S2-  S160  1  0.15670255  0.04042859  0.32379845  1
  S2-  S161  1  0.13469317  -0.00014641  0.82861891  1
  S2-  S162  1  0.15733035  0.25953007  0.33657123  1
  S2-  S163  1  0.11028095  0.21980169  0.84728344  1
  S2-  S164  1  0.19647559  0.48992282  0.36284013  1
  S2-  S165  1  0.11429078  0.58668779  0.84421865  1
  S2-  S166  1  0.13361228  0.83021757  0.36542005  1
  S2-  S167  1  0.14114288  0.79898147  0.80160770  1
  S2-  S168  1  0.36855359  0.01117379  0.34636167  1
  S2-  S169  1  0.38871925  -0.04045351  0.83726101  1
  S2-  S170  1  0.38262973  0.25783225  0.34659292  1
  S2-  S171  1  0.41261741  0.18664004  0.84790015  1
  S2-  S172  1  0.39663545  0.47397238  0.31832150  1
  S2-  S173  1  0.40342054  0.58705187  0.84471525  1
  S2-  S174  1  0.35377192  0.67026249  0.36563218  1
  S2-  S175  1  0.33448689  0.76031385  0.80265483  1
  S2-  S176  1  0.61971062  0.00401103  0.33633312  1
  S2-  S177  1  0.61649600  0.03537981  0.84821243  1
  S2-  S178  1  0.64838731  0.22993142  0.33803832  1
  S2-  S179  1  0.64178962  0.26425921  0.83158129  1
  S2-  S180  1  0.62787697  0.45454477  0.33833289  1
  S2-  S181  1  0.62703664  0.48784164  0.84359654  1
  S2-  S182  1  0.58449105  0.78662522  0.35565609  1
  S2-  S183  1  0.54645552  0.75759881  0.85091187  1
  S2-  S184  1  0.96198017  -0.01636892  0.35539552  1
  S2-  S185  1  0.90093038  0.00054723  0.85280900  1
  S2-  S186  1  0.90008000  0.24249089  0.34117455  1
  S2-  S187  1  0.86486271  0.26264088  0.84073249  1
  S2-  S188  1  0.87262207  0.47096885  0.34524294  1
  S2-  S189  1  0.90076911  0.48055794  0.84478103  1
  S2-  S190  1  0.90300697  0.74386080  0.35485166  1
  S2-  S191  1  0.96619522  0.75294313  0.84452902  1
  S2-  S192  1  -0.01385381  0.12429733  0.44888053  1
  S2-  S193  1  0.00032503  0.11823424  0.95412959  1
  S2-  S194  1  -0.01377801  0.37012573  0.45306668  1
  S2-  S195  1  0.00180373  0.36948001  0.94965890  1
  S2-  S196  1  -0.01346127  0.62031810  0.45633057  1
  S2-  S197  1  -0.00178179  0.61589700  0.94835242  1
  S2-  S198  1  -0.01669000  0.86575374  0.45954430  1
  S2-  S199  1  0.00337806  0.86363841  0.95045034  1
  S2-  S200  1  0.23520851  0.12021094  0.45266451  1
  S2-  S201  1  0.25088367  0.11336136  0.94960799  1
  S2-  S202  1  0.23624846  0.37139587  0.46187418  1
  S2-  S203  1  0.24806817  0.37109304  0.95249521  1
  S2-  S204  1  0.23329541  0.62232832  0.46812513  1
  S2-  S205  1  0.25023418  0.62447948  0.94231285  1
  S2-  S206  1  0.24017648  0.86905539  0.46772571  1
  S2-  S207  1  0.25052446  0.86033692  0.93835988  1
  S2-  S208  1  0.48599408  0.12179524  0.44787967  1
  S2-  S209  1  0.49760454  0.11339045  0.95720267  1
  S2-  S210  1  0.48391919  0.37538101  0.44952500  1
  S2-  S211  1  0.49994891  0.36736947  0.94884549  1
  S2-  S212  1  0.48601482  0.62054655  0.45534916  1
  S2-  S213  1  0.50008546  0.61946116  0.95270700  1
  S2-  S214  1  0.48122572  0.86713061  0.46068485  1
  S2-  S215  1  0.49560824  0.86722860  0.95096809  1
  S2-  S216  1  0.73610964  0.11942192  0.44770347  1
  S2-  S217  1  0.74980674  0.11558412  0.95474398  1
  S2-  S218  1  0.73584043  0.37206450  0.45544874  1
  S2-  S219  1  0.74977633  0.36821502  0.95424550  1
  S2-  S220  1  0.73844959  0.62112553  0.44888155  1
  S2-  S221  1  0.75145837  0.61483690  0.94960370  1
  S2-  S222  1  0.74005136  0.86762834  0.45062462  1
  S2-  S223  1  0.74830814  0.86677311  0.94961306  1
  S2-  S224  1  0.12484599  -0.00529670  0.03868142  1
  S2-  S225  1  0.10770497  -0.00084187  0.53732362  1
  S2-  S226  1  0.13172888  0.24506267  0.05398616  1
  S2-  S227  1  0.11099873  0.24750539  0.54311867  1
  S2-  S228  1  0.12536768  0.48834363  0.04104660  1
  S2-  S229  1  0.10619879  0.49371269  0.55245593  1
  S2-  S230  1  0.12624315  0.74244325  0.05046670  1
  S2-  S231  1  0.11225586  0.74578084  0.55521441  1
  S2-  S232  1  0.37603423  -0.01009335  0.03965594  1
  S2-  S233  1  0.36437144  -0.00180061  0.54899694  1
  S2-  S234  1  0.36931484  0.24370448  0.04871711  1
  S2-  S235  1  0.36400310  0.25133574  0.55060009  1
  S2-  S236  1  0.37585376  0.49341828  0.03674816  1
  S2-  S237  1  0.36747638  0.49281960  0.53921762  1
  S2-  S238  1  0.37287365  0.74205001  0.05112004  1
  S2-  S239  1  0.35958008  0.74737739  0.56012999  1
  S2-  S240  1  0.62598275  -0.01359589  0.04590467  1
  S2-  S241  1  0.61208441  -0.00271458  0.54461648  1
  S2-  S242  1  0.62464488  0.24662108  0.04022649  1
  S2-  S243  1  0.61035395  0.24569804  0.54057327  1
  S2-  S244  1  0.62272425  0.49513409  0.04753582  1
  S2-  S245  1  0.61344651  0.49810023  0.54233322  1
  S2-  S246  1  0.62527185  0.74114471  0.04724422  1
  S2-  S247  1  0.61142664  0.74559382  0.55334261  1
  S2-  S248  1  0.87543985  -0.00620284  0.05408846  1
  S2-  S249  1  0.86042458  -0.00281292  0.54676623  1
  S2-  S250  1  0.87752863  0.24221261  0.05128164  1
  S2-  S251  1  0.85621711  0.24594055  0.54212135  1
  S2-  S252  1  0.87837518  0.48937564  0.04761404  1
  S2-  S253  1  0.86228143  0.49764677  0.54970200  1
  S2-  S254  1  0.87584967  0.74294817  0.04171610  1
  S2-  S255  1  0.86292965  0.74759628  0.55551094  1
