# generated using pymatgen
data_La9Ce10Pr6Nd4Sm3(BiS2)32
_symmetry_space_group_name_H-M   'P 1'
_cell_length_a   16.24773827
_cell_length_b   16.22772087
_cell_length_c   26.99643530
_cell_angle_alpha   90.15661026
_cell_angle_beta   90.08653052
_cell_angle_gamma   89.97353347
_symmetry_Int_Tables_number   1
_chemical_formula_structural   La9Ce10Pr6Nd4Sm3(BiS2)32
_chemical_formula_sum   'La18 Ce20 Pr12 Nd8 Sm6 Bi64 S128'
_cell_volume   7117.94622195
_cell_formula_units_Z   2
loop_
 _symmetry_equiv_pos_site_id
 _symmetry_equiv_pos_as_xyz
  1  'x, y, z'
loop_
 _atom_type_symbol
 _atom_type_oxidation_number
  La3+  3.0
  Ce3+  3.0
  Pr3+  3.0
  Nd3+  3.0
  Sm3+  3.0
  Bi2+  2.0
  S2-  -2.0
loop_
 _atom_site_type_symbol
 _atom_site_label
 _atom_site_symmetry_multiplicity
 _atom_site_fract_x
 _atom_site_fract_y
 _atom_site_fract_z
 _atom_site_occupancy
  La3+  La0  1  0.74004540  0.39166477  0.07477194  1
  La3+  La1  1  0.24839141  0.36497260  0.58561352  1
  La3+  La2  1  0.35966239  0.75898078  0.92218189  1
  La3+  La3  1  0.62448630  0.24545175  0.42834969  1
  La3+  La4  1  0.23734607  0.13314848  0.06596846  1
  La3+  La5  1  0.24433751  0.38760874  0.07157823  1
  La3+  La6  1  0.86447907  0.76581054  0.92676653  1
  La3+  La7  1  0.37940320  0.00216663  0.43095034  1
  La3+  La8  1  0.37370522  0.73895167  0.41640577  1
  La3+  La9  1  0.37164319  0.49921414  0.44912646  1
  La3+  La10  1  0.87447225  -0.00893904  0.41714949  1
  La3+  La11  1  0.88088579  0.49542507  0.43250988  1
  La3+  La12  1  -0.00486872  0.39221675  0.10610590  1
  La3+  La13  1  -0.02601812  0.12412349  0.08569796  1
  La3+  La14  1  0.75186892  0.89249426  0.07276530  1
  La3+  La15  1  0.48557208  0.88844350  0.09380534  1
  La3+  La16  1  0.50581097  0.12970515  0.57850978  1
  La3+  La17  1  0.62802292  0.49905771  0.44190220  1
  Ce3+  Ce18  1  0.49988056  0.87224322  0.55306530  1
  Ce3+  Ce19  1  0.50127811  0.62700039  0.56794694  1
  Ce3+  Ce20  1  -0.00976949  0.63489908  0.06151846  1
  Ce3+  Ce21  1  -0.00746235  0.88039649  0.05635365  1
  Ce3+  Ce22  1  0.48631892  0.38431980  0.06305436  1
  Ce3+  Ce23  1  0.00327164  0.37143570  0.56265586  1
  Ce3+  Ce24  1  0.25243357  0.12396476  0.55553015  1
  Ce3+  Ce25  1  0.62514206  -0.00257846  0.43987118  1
  Ce3+  Ce26  1  0.00207718  0.62643650  0.55561195  1
  Ce3+  Ce27  1  0.24059166  0.88135084  0.05968786  1
  Ce3+  Ce28  1  0.00060418  0.87373189  0.55173984  1
  Ce3+  Ce29  1  0.12962636  -0.00146761  0.43708582  1
  Ce3+  Ce30  1  0.75320284  0.87240815  0.55894451  1
  Ce3+  Ce31  1  0.25540317  0.87098106  0.55378710  1
  Ce3+  Ce32  1  0.13123054  0.74550730  0.43806533  1
  Ce3+  Ce33  1  0.87951365  0.75139300  0.43024057  1
  Ce3+  Ce34  1  0.75448708  0.62584531  0.55495096  1
  Ce3+  Ce35  1  0.86539954  0.50466905  0.94163385  1
  Ce3+  Ce36  1  0.50291403  0.37327276  0.55974211  1
  Ce3+  Ce37  1  0.61437369  0.50830350  0.94760374  1
  Pr3+  Pr38  1  0.36678030  0.01121392  0.93872383  1
  Pr3+  Pr39  1  0.48912616  0.13678444  0.07105337  1
  Pr3+  Pr40  1  0.24002398  0.63941587  0.05972948  1
  Pr3+  Pr41  1  0.25736829  0.63370785  0.58709427  1
  Pr3+  Pr42  1  0.75577730  0.37163638  0.55644762  1
  Pr3+  Pr43  1  0.73656506  0.13944661  0.06118889  1
  Pr3+  Pr44  1  0.37613950  0.24984701  0.43600784  1
  Pr3+  Pr45  1  0.87498979  0.02054113  0.92294866  1
  Pr3+  Pr46  1  0.73923508  0.63897861  0.05813423  1
  Pr3+  Pr47  1  0.00157120  0.12142035  0.55240882  1
  Pr3+  Pr48  1  0.62656899  0.74786385  0.43857938  1
  Pr3+  Pr49  1  0.11156436  0.75719136  0.92583332  1
  Nd3+  Nd50  1  0.11332196  0.01393916  0.94765509  1
  Nd3+  Nd51  1  0.88517729  0.24225798  0.42511061  1
  Nd3+  Nd52  1  0.11240941  0.26378744  0.95557983  1
  Nd3+  Nd53  1  0.13275344  0.25181704  0.43034629  1
  Nd3+  Nd54  1  0.48635384  0.63971597  0.05948652  1
  Nd3+  Nd55  1  0.61423091  0.26278184  0.93514153  1
  Nd3+  Nd56  1  0.61445381  0.00865603  0.94540892  1
  Nd3+  Nd57  1  0.61266166  0.76006030  0.94598111  1
  Sm3+  Sm58  1  0.75374448  0.12334250  0.54678733  1
  Sm3+  Sm59  1  0.11587604  0.50717123  0.94434683  1
  Sm3+  Sm60  1  0.36430026  0.26031993  0.93836069  1
  Sm3+  Sm61  1  0.12866751  0.49827728  0.45335774  1
  Sm3+  Sm62  1  0.86851205  0.26642816  0.94627742  1
  Sm3+  Sm63  1  0.36433584  0.51064073  0.93328492  1
  Bi2+  Bi64  1  0.04580863  0.10016155  0.28559172  1
  Bi2+  Bi65  1  0.00959961  0.15744993  0.79960952  1
  Bi2+  Bi66  1  0.00854780  0.39071396  0.30335820  1
  Bi2+  Bi67  1  -0.03015439  0.35574973  0.78165659  1
  Bi2+  Bi68  1  0.03463031  0.67679423  0.29226437  1
  Bi2+  Bi69  1  -0.01077065  0.63622072  0.77586790  1
  Bi2+  Bi70  1  0.01151056  0.87595229  0.28032396  1
  Bi2+  Bi71  1  0.04469206  0.89113449  0.78872320  1
  Bi2+  Bi72  1  0.30072383  0.11267044  0.29932808  1
  Bi2+  Bi73  1  0.22608532  0.12661165  0.79176610  1
  Bi2+  Bi74  1  0.27451162  0.36939163  0.28005676  1
  Bi2+  Bi75  1  0.22593547  0.37149772  0.81096712  1
  Bi2+  Bi76  1  0.25142267  0.56439270  0.30148373  1
  Bi2+  Bi77  1  0.26862189  0.60325513  0.79519027  1
  Bi2+  Bi78  1  0.19292254  0.79141574  0.26141928  1
  Bi2+  Bi79  1  0.24149746  0.87648628  0.78143886  1
  Bi2+  Bi80  1  0.47851706  0.14746188  0.33646987  1
  Bi2+  Bi81  1  0.50000780  0.09680894  0.79693522  1
  Bi2+  Bi82  1  0.46819790  0.33976250  0.30819066  1
  Bi2+  Bi83  1  0.54857799  0.37639199  0.77821858  1
  Bi2+  Bi84  1  0.53135525  0.64208158  0.30680274  1
  Bi2+  Bi85  1  0.55049508  0.63097931  0.79402217  1
  Bi2+  Bi86  1  0.53906253  0.88408473  0.28691251  1
  Bi2+  Bi87  1  0.54162906  0.84941797  0.75167073  1
  Bi2+  Bi88  1  0.72974853  0.09742804  0.28588788  1
  Bi2+  Bi89  1  0.75644805  0.15894620  0.78596225  1
  Bi2+  Bi90  1  0.74117843  0.39607525  0.30298316  1
  Bi2+  Bi91  1  0.74610930  0.38705777  0.79571618  1
  Bi2+  Bi92  1  0.84239094  0.69707509  0.30115690  1
  Bi2+  Bi93  1  0.81034980  0.56984207  0.77437193  1
  Bi2+  Bi94  1  0.75565650  0.81574649  0.22134236  1
  Bi2+  Bi95  1  0.76879165  0.75298997  0.79789205  1
  Bi2+  Bi96  1  0.13890886  -0.05491845  0.19938758  1
  Bi2+  Bi97  1  0.13919639  0.00477792  0.71217805  1
  Bi2+  Bi98  1  0.15901843  0.26022483  0.20580302  1
  Bi2+  Bi99  1  0.12294587  0.22536438  0.70875391  1
  Bi2+  Bi100  1  0.13783578  0.58218510  0.20499131  1
  Bi2+  Bi101  1  0.06727899  0.48731763  0.71627233  1
  Bi2+  Bi102  1  0.11208384  0.76621908  0.14519613  1
  Bi2+  Bi103  1  0.10825854  0.72379132  0.69459357  1
  Bi2+  Bi104  1  0.32469368  0.00261619  0.20426280  1
  Bi2+  Bi105  1  0.33406361  0.01623000  0.71822872  1
  Bi2+  Bi106  1  0.42229413  0.25622967  0.20016552  1
  Bi2+  Bi107  1  0.37858889  0.24934943  0.70928667  1
  Bi2+  Bi108  1  0.41540334  0.48198071  0.22863297  1
  Bi2+  Bi109  1  0.44693199  0.49943283  0.71044047  1
  Bi2+  Bi110  1  0.38658460  0.72988272  0.20733354  1
  Bi2+  Bi111  1  0.37394720  0.77454691  0.71205964  1
  Bi2+  Bi112  1  0.56209018  0.12275561  0.22783487  1
  Bi2+  Bi113  1  0.68448179  -0.01916029  0.74430882  1
  Bi2+  Bi114  1  0.60757088  0.27285470  0.15609180  1
  Bi2+  Bi115  1  0.63397209  0.21652208  0.70166898  1
  Bi2+  Bi116  1  0.60136323  0.42496909  0.22833204  1
  Bi2+  Bi117  1  0.63733196  0.51193418  0.70385520  1
  Bi2+  Bi118  1  0.63069438  0.67594935  0.20589868  1
  Bi2+  Bi119  1  0.61948727  0.70482516  0.68943472  1
  Bi2+  Bi120  1  0.84654252  0.00524999  0.21329513  1
  Bi2+  Bi121  1  0.87260984  -0.01663790  0.77013679  1
  Bi2+  Bi122  1  0.85472674  0.25453116  0.22345275  1
  Bi2+  Bi123  1  0.86444078  0.21735722  0.69586615  1
  Bi2+  Bi124  1  0.85355503  0.52957382  0.21755129  1
  Bi2+  Bi125  1  0.87313396  0.41299976  0.68523037  1
  Bi2+  Bi126  1  0.93336689  0.75306746  0.19495735  1
  Bi2+  Bi127  1  0.86336649  0.80285412  0.70003102  1
  S2-  S128  1  0.05766313  0.13050672  0.17900235  1
  S2-  S129  1  -0.00342746  0.14203711  0.65350205  1
  S2-  S130  1  0.00049195  0.32871878  0.20795424  1
  S2-  S131  1  0.09914815  0.36134008  0.64526392  1
  S2-  S132  1  -0.01873336  0.55147834  0.15132058  1
  S2-  S133  1  -0.00863184  0.61492581  0.65370249  1
  S2-  S134  1  -0.08013840  0.95093274  0.13236549  1
  S2-  S135  1  0.00346596  0.85559222  0.65028357  1
  S2-  S136  1  0.28561429  0.16075810  0.16221644  1
  S2-  S137  1  0.26046690  0.20346105  0.64260404  1
  S2-  S138  1  0.15682816  0.40775960  0.15862407  1
  S2-  S139  1  0.32146826  0.39253672  0.68225588  1
  S2-  S140  1  0.28192210  0.62135108  0.15888981  1
  S2-  S141  1  0.20278645  0.59090909  0.68601682  1
  S2-  S142  1  0.33392609  0.85658025  0.14420390  1
  S2-  S143  1  0.24514264  0.79210370  0.64166089  1
  S2-  S144  1  0.47625457  0.03213565  0.15468182  1
  S2-  S145  1  0.47381197  0.09118035  0.68104690  1
  S2-  S146  1  0.37896512  0.39537293  0.14134513  1
  S2-  S147  1  0.50465341  0.27993549  0.64167322  1
  S2-  S148  1  0.49287918  0.61562131  0.15995457  1
  S2-  S149  1  0.40421115  0.63817387  0.65007065  1
  S2-  S150  1  0.52853981  0.82109853  0.18768176  1
  S2-  S151  1  0.47925489  0.86637063  0.65121631  1
  S2-  S152  1  0.82896522  0.14589425  0.14978785  1
  S2-  S153  1  0.73645024  0.12584939  0.64522183  1
  S2-  S154  1  0.83678796  0.38386906  0.15995699  1
  S2-  S155  1  0.71880742  0.34597450  0.65457499  1
  S2-  S156  1  0.74013811  0.57024279  0.15233585  1
  S2-  S157  1  0.77335008  0.67584275  0.64832576  1
  S2-  S158  1  0.70514602  0.95153217  0.16565444  1
  S2-  S159  1  0.75069902  0.90339582  0.65623189  1
  S2-  S160  1  0.16925066  0.01809215  0.34129308  1
  S2-  S161  1  0.02970077  0.02061491  0.86056380  1
  S2-  S162  1  0.05705815  0.23794632  0.33839543  1
  S2-  S163  1  0.09205214  0.28659087  0.85611833  1
  S2-  S164  1  0.13410440  0.47756513  0.35417560  1
  S2-  S165  1  0.14385534  0.51635777  0.84496388  1
  S2-  S166  1  0.22472039  0.73009533  0.35621591  1
  S2-  S167  1  0.22663373  0.74432516  0.84887713  1
  S2-  S168  1  0.41094464  -0.01996258  0.33077789  1
  S2-  S169  1  0.39442212  0.00041951  0.83817108  1
  S2-  S170  1  0.26203266  0.25804874  0.35733510  1
  S2-  S171  1  0.32433082  0.24420902  0.84070926  1
  S2-  S172  1  0.38947088  0.58170754  0.36055056  1
  S2-  S173  1  0.34910741  0.46259655  0.83672933  1
  S2-  S174  1  0.42376837  0.77848176  0.31450698  1
  S2-  S175  1  0.40484747  0.65855855  0.83919829  1
  S2-  S176  1  0.65734594  -0.02128454  0.34270420  1
  S2-  S177  1  0.62281176  0.02228415  0.84410372  1
  S2-  S178  1  0.67507700  0.24939732  0.33075446  1
  S2-  S179  1  0.55171476  0.24646862  0.84156804  1
  S2-  S180  1  0.63554034  0.51713922  0.34150938  1
  S2-  S181  1  0.62167521  0.49052489  0.85009235  1
  S2-  S182  1  0.63206466  0.76189810  0.33659380  1
  S2-  S183  1  0.61407872  0.77151567  0.84477198  1
  S2-  S184  1  0.89211142  0.08463116  0.33117946  1
  S2-  S185  1  0.82752511  -0.10512198  0.85520146  1
  S2-  S186  1  0.87383267  0.30017266  0.33040560  1
  S2-  S187  1  0.86903716  0.16615382  0.86244555  1
  S2-  S188  1  0.88342673  0.50892018  0.33002033  1
  S2-  S189  1  0.86922398  0.38920901  0.86661046  1
  S2-  S190  1  0.87172983  0.85464503  0.35031920  1
  S2-  S191  1  0.99281831  0.75292316  0.84885029  1
  S2-  S192  1  0.00472429  0.11929096  0.44563140  1
  S2-  S193  1  -0.00652382  0.14132560  0.96811511  1
  S2-  S194  1  0.00455402  0.37219441  0.45349001  1
  S2-  S195  1  -0.00655983  0.38788961  0.96408979  1
  S2-  S196  1  0.00473252  0.62329703  0.44654992  1
  S2-  S197  1  -0.01035489  0.62838668  0.95166491  1
  S2-  S198  1  0.00869787  0.87261235  0.44518395  1
  S2-  S199  1  -0.00830032  0.88600858  0.95319143  1
  S2-  S200  1  0.25310201  0.12205486  0.45198305  1
  S2-  S201  1  0.23965324  0.13704838  0.95540826  1
  S2-  S202  1  0.24920989  0.37539708  0.46560034  1
  S2-  S203  1  0.24260262  0.38483630  0.95885658  1
  S2-  S204  1  0.24815890  0.62147832  0.46595675  1
  S2-  S205  1  0.24001020  0.62856231  0.95203258  1
  S2-  S206  1  0.25640882  0.87507973  0.44770206  1
  S2-  S207  1  0.23690506  0.88946376  0.94907905  1
  S2-  S208  1  0.50302350  0.12315750  0.46099886  1
  S2-  S209  1  0.48873515  0.13761149  0.95706996  1
  S2-  S210  1  0.50186895  0.37404331  0.45164151  1
  S2-  S211  1  0.48480528  0.38475575  0.95217996  1
  S2-  S212  1  0.50451689  0.62403661  0.46004374  1
  S2-  S213  1  0.48927998  0.63227535  0.95245585  1
  S2-  S214  1  0.50009631  0.87129140  0.44569467  1
  S2-  S215  1  0.48862358  0.88295987  0.94597856  1
  S2-  S216  1  0.75523621  0.12239895  0.44226313  1
  S2-  S217  1  0.73379689  0.14034980  0.95355907  1
  S2-  S218  1  0.75546862  0.37031517  0.44753784  1
  S2-  S219  1  0.73608222  0.38368750  0.96302603  1
  S2-  S220  1  0.75574139  0.62490929  0.44671094  1
  S2-  S221  1  0.73992637  0.63479446  0.94928046  1
  S2-  S222  1  0.74877339  0.87257289  0.45219096  1
  S2-  S223  1  0.73196113  0.88226087  0.96202243  1
  S2-  S224  1  0.11321163  0.00812885  0.05381303  1
  S2-  S225  1  0.12885578  -0.00349095  0.54597922  1
  S2-  S226  1  0.10984983  0.25918308  0.06309667  1
  S2-  S227  1  0.12463016  0.24436857  0.53961915  1
  S2-  S228  1  0.11617495  0.51370363  0.04939090  1
  S2-  S229  1  0.12821753  0.50356164  0.55687178  1
  S2-  S230  1  0.11539972  0.75904997  0.03245588  1
  S2-  S231  1  0.12487618  0.74984227  0.54334130  1
  S2-  S232  1  0.36500731  0.00889730  0.04605248  1
  S2-  S233  1  0.37870528  0.00085644  0.54696046  1
  S2-  S234  1  0.36530735  0.25548074  0.04452915  1
  S2-  S235  1  0.37830635  0.24875393  0.54287568  1
  S2-  S236  1  0.36608015  0.51539853  0.04079477  1
  S2-  S237  1  0.37654359  0.49579904  0.55701113  1
  S2-  S238  1  0.36651966  0.76149261  0.03671388  1
  S2-  S239  1  0.37857062  0.74901522  0.53883365  1
  S2-  S240  1  0.61252575  0.01068067  0.05198786  1
  S2-  S241  1  0.62711096  0.00047424  0.54796556  1
  S2-  S242  1  0.61131579  0.26221765  0.04224862  1
  S2-  S243  1  0.63134809  0.24768840  0.53815699  1
  S2-  S244  1  0.60940738  0.51209114  0.05362005  1
  S2-  S245  1  0.62902488  0.49905908  0.55142183  1
  S2-  S246  1  0.61341610  0.76578643  0.05512690  1
  S2-  S247  1  0.62724695  0.74908030  0.54676608  1
  S2-  S248  1  0.85782372  0.01680395  0.03111001  1
  S2-  S249  1  0.87533647  -0.00168756  0.53719149  1
  S2-  S250  1  0.86447403  0.26606769  0.05119482  1
  S2-  S251  1  0.87796431  0.24624102  0.53744169  1
  S2-  S252  1  0.86348371  0.51319684  0.04614964  1
  S2-  S253  1  0.87825894  0.49918320  0.54310401  1
  S2-  S254  1  0.86580112  0.75903602  0.04373573  1
  S2-  S255  1  0.87788847  0.75031344  0.53827626  1
