# generated using pymatgen
data_La9Ce10Pr6Nd4Sm3(BiS2)32
_symmetry_space_group_name_H-M   'P 1'
_cell_length_a   16.23141230
_cell_length_b   16.23055662
_cell_length_c   27.10336823
_cell_angle_alpha   90.08371337
_cell_angle_beta   89.94864291
_cell_angle_gamma   90.10086030
_symmetry_Int_Tables_number   1
_chemical_formula_structural   La9Ce10Pr6Nd4Sm3(BiS2)32
_chemical_formula_sum   'La18 Ce20 Pr12 Nd8 Sm6 Bi64 S128'
_cell_volume   7140.22141560
_cell_formula_units_Z   2
loop_
 _symmetry_equiv_pos_site_id
 _symmetry_equiv_pos_as_xyz
  1  'x, y, z'
loop_
 _atom_type_symbol
 _atom_type_oxidation_number
  La3+  3.0
  Ce3+  3.0
  Pr3+  3.0
  Nd3+  3.0
  Sm3+  3.0
  Bi2+  2.0
  S2-  -2.0
loop_
 _atom_site_type_symbol
 _atom_site_label
 _atom_site_symmetry_multiplicity
 _atom_site_fract_x
 _atom_site_fract_y
 _atom_site_fract_z
 _atom_site_occupancy
  La3+  La0  1  -0.01191755  0.14659757  0.58002313  1
  La3+  La1  1  0.24733360  0.14179287  0.57356481  1
  La3+  La2  1  0.62614307  0.26859584  0.43084559  1
  La3+  La3  1  0.25495276  0.38059631  0.07400637  1
  La3+  La4  1  0.87236328  0.23648799  0.92023944  1
  La3+  La5  1  0.00190581  0.37070090  0.06446635  1
  La3+  La6  1  0.39345349  0.00849423  0.91325231  1
  La3+  La7  1  0.88146045  0.01699860  0.41193492  1
  La3+  La8  1  0.49703948  0.13024605  0.08379382  1
  La3+  La9  1  0.50062615  0.87176176  0.05650611  1
  La3+  La10  1  0.13214548  0.74822211  0.92731442  1
  La3+  La11  1  0.76412014  0.13049723  0.08956007  1
  La3+  La12  1  -0.00720276  0.39848761  0.57168759  1
  La3+  La13  1  0.24587869  0.89497988  0.59909028  1
  La3+  La14  1  0.13078315  0.00587237  0.92658964  1
  La3+  La15  1  0.49832640  0.38733117  0.55917986  1
  La3+  La16  1  0.63676692  0.74295971  0.92523860  1
  La3+  La17  1  0.38747194  0.73883849  0.91280011  1
  Ce3+  Ce18  1  0.37412193  0.76826083  0.44428206  1
  Ce3+  Ce19  1  0.24761084  0.38752620  0.56914474  1
  Ce3+  Ce20  1  0.88185502  0.49680856  0.94507271  1
  Ce3+  Ce21  1  0.87284170  0.76410009  0.44610359  1
  Ce3+  Ce22  1  0.63296589  0.49605897  0.94219203  1
  Ce3+  Ce23  1  0.00696496  0.11916678  0.06231972  1
  Ce3+  Ce24  1  0.37344677  0.01267956  0.44556075  1
  Ce3+  Ce25  1  0.74813553  0.89047250  0.55073118  1
  Ce3+  Ce26  1  0.36893480  0.26227102  0.43526447  1
  Ce3+  Ce27  1  0.74739399  0.39425733  0.55471477  1
  Ce3+  Ce28  1  0.62999071  0.24426473  0.94658241  1
  Ce3+  Ce29  1  0.62272182  0.01785076  0.42882296  1
  Ce3+  Ce30  1  0.75539404  0.36869830  0.05682989  1
  Ce3+  Ce31  1  0.87669339  0.74873896  0.94271266  1
  Ce3+  Ce32  1  0.25671034  0.12094282  0.05885701  1
  Ce3+  Ce33  1  0.00684866  0.62552283  0.05889086  1
  Ce3+  Ce34  1  -0.00102605  0.89062023  0.56574676  1
  Ce3+  Ce35  1  0.50115098  0.64185933  0.55612971  1
  Ce3+  Ce36  1  0.87828558  0.26342706  0.43491891  1
  Ce3+  Ce37  1  0.12123510  0.26308841  0.45095161  1
  Pr3+  Pr38  1  0.37191791  0.51506511  0.44414077  1
  Pr3+  Pr39  1  0.50504760  0.62626424  0.05646019  1
  Pr3+  Pr40  1  0.37731571  0.49719973  0.93527633  1
  Pr3+  Pr41  1  0.75018371  0.87282937  0.06688428  1
  Pr3+  Pr42  1  0.62896884  0.00226986  0.94824130  1
  Pr3+  Pr43  1  -0.00171686  0.64064323  0.56401663  1
  Pr3+  Pr44  1  0.12237154  0.76765548  0.44539009  1
  Pr3+  Pr45  1  0.00643465  0.87430753  0.05647408  1
  Pr3+  Pr46  1  0.12449516  0.51324373  0.44237186  1
  Pr3+  Pr47  1  0.50753329  0.88820716  0.56681853  1
  Pr3+  Pr48  1  0.87737955  0.51127176  0.42736041  1
  Pr3+  Pr49  1  0.37894565  0.25336138  0.93848732  1
  Nd3+  Nd50  1  0.75414539  0.62220677  0.06604461  1
  Nd3+  Nd51  1  0.24948104  0.63961283  0.07688291  1
  Nd3+  Nd52  1  0.12973611  0.25053821  0.94700546  1
  Nd3+  Nd53  1  0.50348233  0.37588423  0.05985645  1
  Nd3+  Nd54  1  0.75007758  0.13928823  0.55730959  1
  Nd3+  Nd55  1  0.12279422  0.01525094  0.44613325  1
  Nd3+  Nd56  1  0.49966071  0.13724966  0.55681303  1
  Nd3+  Nd57  1  0.25163337  0.64178512  0.56172824  1
  Sm3+  Sm58  1  0.25782213  0.87239474  0.04103884  1
  Sm3+  Sm59  1  0.12864474  0.49944572  0.94480094  1
  Sm3+  Sm60  1  0.62406469  0.76597151  0.43250259  1
  Sm3+  Sm61  1  0.87755198  -0.00026905  0.94756544  1
  Sm3+  Sm62  1  0.74664508  0.63769129  0.54785101  1
  Sm3+  Sm63  1  0.62179804  0.51508663  0.43075574  1
  Bi2+  Bi64  1  0.01249169  0.11615874  0.28353617  1
  Bi2+  Bi65  1  0.01458944  0.13923837  0.80024279  1
  Bi2+  Bi66  1  0.02432050  0.37617883  0.29792909  1
  Bi2+  Bi67  1  0.01243080  0.40977230  0.79486480  1
  Bi2+  Bi68  1  -0.02896907  0.56922854  0.30004277  1
  Bi2+  Bi69  1  -0.04637494  0.64016690  0.78979850  1
  Bi2+  Bi70  1  0.01952513  0.85862456  0.29408918  1
  Bi2+  Bi71  1  -0.05986917  0.84068998  0.79131106  1
  Bi2+  Bi72  1  0.21413542  0.09290348  0.28296135  1
  Bi2+  Bi73  1  0.27712968  0.20905836  0.78481106  1
  Bi2+  Bi74  1  0.25803034  0.37410848  0.31147377  1
  Bi2+  Bi75  1  0.34105700  0.38305981  0.81652496  1
  Bi2+  Bi76  1  0.29815617  0.63333137  0.28303882  1
  Bi2+  Bi77  1  0.20188633  0.57887838  0.78013911  1
  Bi2+  Bi78  1  0.21268894  0.89235590  0.29495396  1
  Bi2+  Bi79  1  0.20420150  0.85709975  0.79039754  1
  Bi2+  Bi80  1  0.50550118  0.10614139  0.28861330  1
  Bi2+  Bi81  1  0.55570846  0.17665690  0.81491213  1
  Bi2+  Bi82  1  0.51032580  0.42092627  0.28480135  1
  Bi2+  Bi83  1  0.53256358  0.38065661  0.81032550  1
  Bi2+  Bi84  1  0.57814034  0.60322037  0.30788419  1
  Bi2+  Bi85  1  0.50822213  0.59257635  0.79788163  1
  Bi2+  Bi86  1  0.40679695  0.88166267  0.28749144  1
  Bi2+  Bi87  1  0.47114437  0.88786243  0.79529012  1
  Bi2+  Bi88  1  0.74607642  0.10699963  0.29531193  1
  Bi2+  Bi89  1  0.75738765  0.10322917  0.79326964  1
  Bi2+  Bi90  1  0.76870735  0.37636640  0.27917481  1
  Bi2+  Bi91  1  0.68691075  0.37594745  0.73962181  1
  Bi2+  Bi92  1  0.77195923  0.57091373  0.30520848  1
  Bi2+  Bi93  1  0.75207315  0.64231013  0.77970152  1
  Bi2+  Bi94  1  0.76809019  0.80467357  0.28855067  1
  Bi2+  Bi95  1  0.73485704  0.88754982  0.79230402  1
  Bi2+  Bi96  1  0.09991861  0.04237565  0.17972476  1
  Bi2+  Bi97  1  0.14631130  0.00373787  0.72212212  1
  Bi2+  Bi98  1  0.12576558  0.22926838  0.21716360  1
  Bi2+  Bi99  1  0.13549188  0.25655220  0.71361084  1
  Bi2+  Bi100  1  0.14017804  0.52318040  0.21241136  1
  Bi2+  Bi101  1  0.10645057  0.45013715  0.69880171  1
  Bi2+  Bi102  1  0.12067748  0.71426154  0.23852679  1
  Bi2+  Bi103  1  0.00866714  0.74213440  0.69655921  1
  Bi2+  Bi104  1  0.28434178  -0.02427132  0.19882171  1
  Bi2+  Bi105  1  0.40401515  0.04062550  0.72199058  1
  Bi2+  Bi106  1  0.37516268  0.22999983  0.21582565  1
  Bi2+  Bi107  1  0.40812606  0.30537853  0.71112101  1
  Bi2+  Bi108  1  0.38882930  0.50127353  0.21556063  1
  Bi2+  Bi109  1  0.30235374  0.47464308  0.70333943  1
  Bi2+  Bi110  1  0.36050858  0.75438163  0.20198518  1
  Bi2+  Bi111  1  0.35034289  0.69750368  0.71885912  1
  Bi2+  Bi112  1  0.62593908  -0.04150951  0.20976252  1
  Bi2+  Bi113  1  0.66612876  0.00526623  0.70501105  1
  Bi2+  Bi114  1  0.62885498  0.34218190  0.20224592  1
  Bi2+  Bi115  1  0.63008752  0.19503368  0.70444816  1
  Bi2+  Bi116  1  0.67842840  0.52923706  0.19467183  1
  Bi2+  Bi117  1  0.59320209  0.54493607  0.69905079  1
  Bi2+  Bi118  1  0.56094367  0.71756964  0.21559845  1
  Bi2+  Bi119  1  0.56234162  0.80871425  0.70971563  1
  Bi2+  Bi120  1  0.87974241  -0.01797485  0.19997227  1
  Bi2+  Bi121  1  0.86588132  -0.02049859  0.72089153  1
  Bi2+  Bi122  1  0.91396489  0.33263669  0.20287242  1
  Bi2+  Bi123  1  0.86513251  0.25648901  0.71112871  1
  Bi2+  Bi124  1  0.87684856  0.52724464  0.19522707  1
  Bi2+  Bi125  1  0.84356789  0.52031673  0.70798776  1
  Bi2+  Bi126  1  0.90058171  0.71131524  0.22747987  1
  Bi2+  Bi127  1  0.82128825  0.78244678  0.70035385  1
  S2-  S128  1  -0.07715649  0.12545719  0.14621742  1
  S2-  S129  1  0.07536125  0.11243959  0.66801808  1
  S2-  S130  1  0.06012788  0.39616845  0.15889259  1
  S2-  S131  1  -0.00940963  0.29345723  0.65389181  1
  S2-  S132  1  0.09898664  0.64281019  0.14196049  1
  S2-  S133  1  -0.02240896  0.53255898  0.64267868  1
  S2-  S134  1  0.00922591  0.89622204  0.15759293  1
  S2-  S135  1  0.08061197  0.88977669  0.65265699  1
  S2-  S136  1  0.34887739  0.11048724  0.14241816  1
  S2-  S137  1  0.27238494  0.03953214  0.65719536  1
  S2-  S138  1  0.25750093  0.29725273  0.16663527  1
  S2-  S139  1  0.26238959  0.27434560  0.64432938  1
  S2-  S140  1  0.26624301  0.51184203  0.14474241  1
  S2-  S141  1  0.23029986  0.62745463  0.66087133  1
  S2-  S142  1  0.25943591  0.79542556  0.13026644  1
  S2-  S143  1  0.26799867  0.82652901  0.69381644  1
  S2-  S144  1  0.53646671  0.08255836  0.18382736  1
  S2-  S145  1  0.47259319  0.15987404  0.65579497  1
  S2-  S146  1  0.48137756  0.30185445  0.15010207  1
  S2-  S147  1  0.51201220  0.41487678  0.65836242  1
  S2-  S148  1  0.45764173  0.61932082  0.15418776  1
  S2-  S149  1  0.48915232  0.67259437  0.65282859  1
  S2-  S150  1  0.51874729  0.85802033  0.15716083  1
  S2-  S151  1  0.45440424  0.92109926  0.66489973  1
  S2-  S152  1  0.73794398  0.08381052  0.19023644  1
  S2-  S153  1  0.84277380  0.14206553  0.64451372  1
  S2-  S154  1  0.77058732  0.29034516  0.14350819  1
  S2-  S155  1  0.79041753  0.38249805  0.65004216  1
  S2-  S156  1  0.68792859  0.68264198  0.15105604  1
  S2-  S157  1  0.73346219  0.60947712  0.64504212  1
  S2-  S158  1  0.76768937  0.87960616  0.16759816  1
  S2-  S159  1  0.65422149  0.87258213  0.63295172  1
  S2-  S160  1  0.03583315  0.00385999  0.35842141  1
  S2-  S161  1  0.09695478  -0.01146880  0.82744707  1
  S2-  S162  1  0.13137823  0.27098266  0.35281555  1
  S2-  S163  1  0.13410246  0.20783604  0.84969634  1
  S2-  S164  1  0.13618086  0.49486817  0.34163179  1
  S2-  S165  1  0.15392839  0.46963273  0.84811484  1
  S2-  S166  1  0.12736153  0.75108642  0.34449930  1
  S2-  S167  1  0.12957192  0.71112676  0.82796853  1
  S2-  S168  1  0.39297975  0.02254066  0.34769132  1
  S2-  S169  1  0.32585145  -0.01921627  0.81464667  1
  S2-  S170  1  0.37222100  0.26386300  0.33519895  1
  S2-  S171  1  0.39860853  0.16016351  0.85424583  1
  S2-  S172  1  0.36336867  0.48900709  0.34409518  1
  S2-  S173  1  0.36960250  0.58990559  0.84967991  1
  S2-  S174  1  0.38081138  0.73811835  0.34699390  1
  S2-  S175  1  0.33926709  0.77889656  0.81487760  1
  S2-  S176  1  0.61801182  -0.00224668  0.32838692  1
  S2-  S177  1  0.55320177  0.01259274  0.85562276  1
  S2-  S178  1  0.61896231  0.19200976  0.33879365  1
  S2-  S179  1  0.71322651  0.22828068  0.86046042  1
  S2-  S180  1  0.62630863  0.40001601  0.35637530  1
  S2-  S181  1  0.65505500  0.56572963  0.85319436  1
  S2-  S182  1  0.62159477  0.77238424  0.33321415  1
  S2-  S183  1  0.53195819  0.74940644  0.84402684  1
  S2-  S184  1  0.82376228  -0.03804626  0.31718597  1
  S2-  S185  1  0.88793097  0.08164129  0.86121908  1
  S2-  S186  1  0.88136252  0.16206245  0.35102026  1
  S2-  S187  1  0.92240307  0.28390067  0.82162790  1
  S2-  S188  1  0.88340026  0.37766293  0.35876106  1
  S2-  S189  1  0.89851564  0.50360541  0.84683933  1
  S2-  S190  1  0.90185252  0.77057514  0.35069836  1
  S2-  S191  1  0.77658557  0.75365704  0.86137091  1
  S2-  S192  1  -0.00046125  0.13836544  0.46336917  1
  S2-  S193  1  0.00595662  0.12358216  0.95696689  1
  S2-  S194  1  0.00188920  0.39130290  0.46047816  1
  S2-  S195  1  0.00537292  0.37226948  0.95441360  1
  S2-  S196  1  -0.00059615  0.63914256  0.45547391  1
  S2-  S197  1  0.00466939  0.62409158  0.95070242  1
  S2-  S198  1  -0.00400815  0.88894083  0.45975776  1
  S2-  S199  1  0.00275197  0.87643141  0.94696048  1
  S2-  S200  1  0.24776492  0.13804012  0.45688285  1
  S2-  S201  1  0.25675106  0.12430421  0.95123815  1
  S2-  S202  1  0.24865578  0.38898498  0.45994386  1
  S2-  S203  1  0.25119006  0.37573289  0.95988943  1
  S2-  S204  1  0.24819526  0.64102486  0.45361464  1
  S2-  S205  1  0.24941457  0.62157725  0.95211085  1
  S2-  S206  1  0.24789569  0.89071503  0.44899556  1
  S2-  S207  1  0.25800434  0.87619019  0.93650789  1
  S2-  S208  1  0.49786473  0.14056781  0.44970815  1
  S2-  S209  1  0.50535153  0.12809797  0.96640982  1
  S2-  S210  1  0.49370363  0.38945366  0.45198593  1
  S2-  S211  1  0.50722185  0.37376689  0.95328479  1
  S2-  S212  1  0.50056243  0.64018826  0.44900585  1
  S2-  S213  1  0.50893338  0.61760987  0.95119722  1
  S2-  S214  1  0.50270839  0.88857653  0.45297887  1
  S2-  S215  1  0.50469595  0.87239879  0.94879196  1
  S2-  S216  1  0.74999237  0.13636011  0.45156575  1
  S2-  S217  1  0.75491131  0.11990978  0.96685960  1
  S2-  S218  1  0.74980876  0.39424351  0.45220445  1
  S2-  S219  1  0.75748400  0.37286155  0.95089850  1
  S2-  S220  1  0.74598005  0.63913290  0.44200176  1
  S2-  S221  1  0.75965630  0.61909344  0.96064040  1
  S2-  S222  1  0.74836205  0.89001662  0.44450450  1
  S2-  S223  1  0.75502993  0.87913616  0.95888824  1
  S2-  S224  1  0.13396198  -0.00581287  0.03804007  1
  S2-  S225  1  0.12401425  0.01445430  0.55098695  1
  S2-  S226  1  0.13015585  0.24578369  0.05325161  1
  S2-  S227  1  0.11944170  0.26762148  0.55370918  1
  S2-  S228  1  0.12682134  0.50121034  0.04651733  1
  S2-  S229  1  0.12837730  0.51739264  0.54903952  1
  S2-  S230  1  0.12742808  0.75255033  0.03455630  1
  S2-  S231  1  0.12722482  0.76445061  0.55266584  1
  S2-  S232  1  0.37773297  -0.00566212  0.03969648  1
  S2-  S233  1  0.37621889  0.01134090  0.54977161  1
  S2-  S234  1  0.37541940  0.25310910  0.04457127  1
  S2-  S235  1  0.37674550  0.26234326  0.54287072  1
  S2-  S236  1  0.38285737  0.50053819  0.04276647  1
  S2-  S237  1  0.37364697  0.51623843  0.55189415  1
  S2-  S238  1  0.37903402  0.74511367  0.03190596  1
  S2-  S239  1  0.37116560  0.77101308  0.55292823  1
  S2-  S240  1  0.62820341  0.00212769  0.05733916  1
  S2-  S241  1  0.62509256  0.01729833  0.53935493  1
  S2-  S242  1  0.62733111  0.24831699  0.05210855  1
  S2-  S243  1  0.62539969  0.26300610  0.54495965  1
  S2-  S244  1  0.63032660  0.49704035  0.05100321  1
  S2-  S245  1  0.62189467  0.51570468  0.53698138  1
  S2-  S246  1  0.63011015  0.74889271  0.03842520  1
  S2-  S247  1  0.62552180  0.75946736  0.53679150  1
  S2-  S248  1  0.87822051  -0.00467836  0.05073494  1
  S2-  S249  1  0.87301402  0.00890181  0.54953783  1
  S2-  S250  1  0.88239044  0.24743695  0.03920721  1
  S2-  S251  1  0.86860327  0.26971510  0.54183382  1
  S2-  S252  1  0.87916465  0.49927430  0.05302776  1
  S2-  S253  1  0.86900436  0.51969196  0.53602298  1
  S2-  S254  1  0.87894227  0.74888250  0.05172682  1
  S2-  S255  1  0.87047036  0.76204350  0.55299331  1
