# generated using pymatgen
data_La9Ce10Pr6Nd4Sm3(BiS2)32
_symmetry_space_group_name_H-M   'P 1'
_cell_length_a   16.19992107
_cell_length_b   16.24292948
_cell_length_c   27.23472206
_cell_angle_alpha   89.85517858
_cell_angle_beta   89.56501498
_cell_angle_gamma   89.95814005
_symmetry_Int_Tables_number   1
_chemical_formula_structural   La9Ce10Pr6Nd4Sm3(BiS2)32
_chemical_formula_sum   'La18 Ce20 Pr12 Nd8 Sm6 Bi64 S128'
_cell_volume   7166.15490612
_cell_formula_units_Z   2
loop_
 _symmetry_equiv_pos_site_id
 _symmetry_equiv_pos_as_xyz
  1  'x, y, z'
loop_
 _atom_type_symbol
 _atom_type_oxidation_number
  La3+  3.0
  Ce3+  3.0
  Pr3+  3.0
  Nd3+  3.0
  Sm3+  3.0
  Bi2+  2.0
  S2-  -2.0
loop_
 _atom_site_type_symbol
 _atom_site_label
 _atom_site_symmetry_multiplicity
 _atom_site_fract_x
 _atom_site_fract_y
 _atom_site_fract_z
 _atom_site_occupancy
  La3+  La0  1  0.89737180  0.25701018  0.42597046  1
  La3+  La1  1  0.13691085  0.75822668  0.44442454  1
  La3+  La2  1  0.13532895  -0.01654228  0.90386959  1
  La3+  La3  1  0.01032522  0.63144306  0.56680041  1
  La3+  La4  1  0.74929444  0.86232817  0.07635306  1
  La3+  La5  1  0.01305126  0.37801391  0.58012899  1
  La3+  La6  1  0.62280331  0.74755954  0.93954308  1
  La3+  La7  1  0.90435565  -0.00510394  0.39428265  1
  La3+  La8  1  0.87412711  -0.01637631  0.92719472  1
  La3+  La9  1  0.49040196  0.86320856  0.08291852  1
  La3+  La10  1  0.24775989  0.11893943  0.05686363  1
  La3+  La11  1  0.14315617  0.25793695  0.43636084  1
  La3+  La12  1  0.26881711  0.87948297  0.56850864  1
  La3+  La13  1  0.26438855  0.38134104  0.57611866  1
  La3+  La14  1  0.50145132  0.11560679  0.05832659  1
  La3+  La15  1  0.37900038  0.49360280  0.93263238  1
  La3+  La16  1  0.02022873  0.88735887  0.58915789  1
  La3+  La17  1  0.01146197  0.13074173  0.56668689  1
  Ce3+  Ce18  1  0.64180816  0.75788615  0.44268527  1
  Ce3+  Ce19  1  0.38932329  0.00363662  0.43986501  1
  Ce3+  Ce20  1  0.25094089  0.36725574  0.05656669  1
  Ce3+  Ce21  1  0.50437263  0.36987347  0.05560435  1
  Ce3+  Ce22  1  0.00077183  0.11551300  0.04591678  1
  Ce3+  Ce23  1  0.62441282  -0.01286413  0.94396627  1
  Ce3+  Ce24  1  0.62778709  0.24143961  0.94111264  1
  Ce3+  Ce25  1  0.64167905  0.25506012  0.43975119  1
  Ce3+  Ce26  1  0.00062421  0.87049529  0.06118173  1
  Ce3+  Ce27  1  0.87792231  0.49158493  0.94294578  1
  Ce3+  Ce28  1  0.00089473  0.36364510  0.05738623  1
  Ce3+  Ce29  1  0.26406407  0.13233259  0.56120760  1
  Ce3+  Ce30  1  0.87485677  0.23825665  0.93768001  1
  Ce3+  Ce31  1  0.89150868  0.50167582  0.43720577  1
  Ce3+  Ce32  1  0.76222484  0.62986877  0.55565807  1
  Ce3+  Ce33  1  0.75116050  0.61684302  0.06900118  1
  Ce3+  Ce34  1  0.75129293  0.36681426  0.05353566  1
  Ce3+  Ce35  1  0.00173830  0.61500935  0.05595174  1
  Ce3+  Ce36  1  0.14104216  0.50452988  0.44943402  1
  Ce3+  Ce37  1  0.26816319  0.63050641  0.55942703  1
  Pr3+  Pr38  1  0.51249010  0.88154911  0.56651674  1
  Pr3+  Pr39  1  0.76722951  0.12768755  0.55644256  1
  Pr3+  Pr40  1  0.49925180  0.61359174  0.06762971  1
  Pr3+  Pr41  1  0.63951075  0.50406966  0.43988228  1
  Pr3+  Pr42  1  0.76617005  0.37932224  0.56389447  1
  Pr3+  Pr43  1  0.89117797  0.75516390  0.44139207  1
  Pr3+  Pr44  1  0.12562838  0.24444701  0.92674025  1
  Pr3+  Pr45  1  0.51129288  0.37973815  0.56963020  1
  Pr3+  Pr46  1  0.62931971  0.50260680  0.92576290  1
  Pr3+  Pr47  1  0.51450085  0.13145657  0.55281942  1
  Pr3+  Pr48  1  0.13284381  0.49343554  0.93425748  1
  Pr3+  Pr49  1  0.12830455  0.74497914  0.94279100  1
  Nd3+  Nd50  1  0.64356248  0.00582781  0.43714830  1
  Nd3+  Nd51  1  0.76755215  0.88091992  0.55484150  1
  Nd3+  Nd52  1  0.75411356  0.11187720  0.06203055  1
  Nd3+  Nd53  1  0.38769267  0.25701309  0.43587315  1
  Nd3+  Nd54  1  0.87730667  0.74437406  0.94515652  1
  Nd3+  Nd55  1  0.37797289  0.24057152  0.93767304  1
  Nd3+  Nd56  1  0.24825193  0.86799174  0.06180343  1
  Nd3+  Nd57  1  0.38932150  0.75712946  0.43491521  1
  Sm3+  Sm58  1  0.24752497  0.61496945  0.06107053  1
  Sm3+  Sm59  1  0.51572997  0.63032457  0.55203870  1
  Sm3+  Sm60  1  0.13678163  0.00618760  0.44493121  1
  Sm3+  Sm61  1  0.39098447  0.50434795  0.44698252  1
  Sm3+  Sm62  1  0.37765570  0.74577428  0.94995746  1
  Sm3+  Sm63  1  0.37730366  -0.00966299  0.93719353  1
  Bi2+  Bi64  1  0.02659372  0.14888234  0.28628529  1
  Bi2+  Bi65  1  -0.04426040  0.14133764  0.78888264  1
  Bi2+  Bi66  1  -0.06745206  0.45463675  0.26473182  1
  Bi2+  Bi67  1  -0.05941298  0.40500470  0.79085922  1
  Bi2+  Bi68  1  -0.06563851  0.62371929  0.32348517  1
  Bi2+  Bi69  1  0.00424360  0.63396436  0.77124489  1
  Bi2+  Bi70  1  0.02086269  0.78265720  0.27958042  1
  Bi2+  Bi71  1  0.00150391  0.86524144  0.78998922  1
  Bi2+  Bi72  1  0.28052265  0.13774685  0.28912752  1
  Bi2+  Bi73  1  0.37711391  0.12653898  0.79490884  1
  Bi2+  Bi74  1  0.16906899  0.35235639  0.29033031  1
  Bi2+  Bi75  1  0.21444527  0.37365605  0.80755151  1
  Bi2+  Bi76  1  0.20842865  0.61788761  0.30170954  1
  Bi2+  Bi77  1  0.24953094  0.64224418  0.78176237  1
  Bi2+  Bi78  1  0.29192523  0.88058216  0.30513160  1
  Bi2+  Bi79  1  0.31187674  0.84579777  0.79678121  1
  Bi2+  Bi80  1  0.48839533  0.16382045  0.26428451  1
  Bi2+  Bi81  1  0.56833851  0.10542902  0.81188863  1
  Bi2+  Bi82  1  0.45801434  0.33238586  0.31559287  1
  Bi2+  Bi83  1  0.48620786  0.37498364  0.78573574  1
  Bi2+  Bi84  1  0.47738799  0.61080209  0.27829009  1
  Bi2+  Bi85  1  0.51799105  0.63525705  0.79538496  1
  Bi2+  Bi86  1  0.47264070  0.88560349  0.26336955  1
  Bi2+  Bi87  1  0.49297771  0.91722651  0.81712459  1
  Bi2+  Bi88  1  0.74429978  0.12372542  0.28928570  1
  Bi2+  Bi89  1  0.70111213  0.15066026  0.73144455  1
  Bi2+  Bi90  1  0.74090932  0.38033896  0.29121356  1
  Bi2+  Bi91  1  0.70824059  0.34923429  0.77574538  1
  Bi2+  Bi92  1  0.74358449  0.62506216  0.29882936  1
  Bi2+  Bi93  1  0.70801267  0.54291803  0.77985673  1
  Bi2+  Bi94  1  0.72177316  0.88012368  0.28449283  1
  Bi2+  Bi95  1  0.76335268  0.91710945  0.79506900  1
  Bi2+  Bi96  1  0.15009557  0.00098579  0.26162955  1
  Bi2+  Bi97  1  0.14894885  0.01607207  0.71179467  1
  Bi2+  Bi98  1  0.11224232  0.23491321  0.18321785  1
  Bi2+  Bi99  1  0.13624916  0.25535275  0.71657487  1
  Bi2+  Bi100  1  0.09523232  0.53479294  0.22180693  1
  Bi2+  Bi101  1  0.13562607  0.51116407  0.72483697  1
  Bi2+  Bi102  1  0.16301747  0.71721944  0.20375227  1
  Bi2+  Bi103  1  0.12001708  0.76221202  0.72122133  1
  Bi2+  Bi104  1  0.36159971  0.02764985  0.19992669  1
  Bi2+  Bi105  1  0.38557418  -0.01249650  0.71653454  1
  Bi2+  Bi106  1  0.34930767  0.29818715  0.21570673  1
  Bi2+  Bi107  1  0.47293098  0.23421713  0.70705009  1
  Bi2+  Bi108  1  0.33389663  0.48217222  0.25642598  1
  Bi2+  Bi109  1  0.37071204  0.49386682  0.71114937  1
  Bi2+  Bi110  1  0.35735084  0.74461255  0.21202190  1
  Bi2+  Bi111  1  0.37859537  0.73144335  0.70957746  1
  Bi2+  Bi112  1  0.63159056  0.04291047  0.20086995  1
  Bi2+  Bi113  1  0.58836336  -0.02232544  0.71164147  1
  Bi2+  Bi114  1  0.58378440  0.33894644  0.22711577  1
  Bi2+  Bi115  1  0.64033813  0.31773424  0.66848675  1
  Bi2+  Bi116  1  0.57063219  0.52389401  0.18887545  1
  Bi2+  Bi117  1  0.56706281  0.49795345  0.69358111  1
  Bi2+  Bi118  1  0.61434966  0.71070995  0.21830274  1
  Bi2+  Bi119  1  0.57155552  0.78097096  0.72184019  1
  Bi2+  Bi120  1  0.92199526  -0.01201075  0.19895182  1
  Bi2+  Bi121  1  0.87287379  -0.03747322  0.69898757  1
  Bi2+  Bi122  1  0.86598752  0.24813745  0.18883856  1
  Bi2+  Bi123  1  0.87523691  0.26433092  0.70706036  1
  Bi2+  Bi124  1  0.78318631  0.52561168  0.19685523  1
  Bi2+  Bi125  1  0.86798308  0.53799301  0.70999996  1
  Bi2+  Bi126  1  0.87941175  0.70737248  0.21398646  1
  Bi2+  Bi127  1  0.76074198  0.75586644  0.72993768  1
  S2-  S128  1  -0.01631411  0.12723775  0.14506146  1
  S2-  S129  1  0.01971791  0.02814488  0.65501966  1
  S2-  S130  1  -0.00517676  0.35127431  0.15541315  1
  S2-  S131  1  0.01401240  0.23953253  0.64871003  1
  S2-  S132  1  -0.01038123  0.60888848  0.15378519  1
  S2-  S133  1  0.02293938  0.58841025  0.66372819  1
  S2-  S134  1  0.01534327  0.87298262  0.15862946  1
  S2-  S135  1  -0.03693458  0.81867296  0.67915346  1
  S2-  S136  1  0.23212180  0.11042260  0.15711699  1
  S2-  S137  1  0.23242191  0.14562948  0.65899374  1
  S2-  S138  1  0.21984372  0.35183670  0.15260660  1
  S2-  S139  1  0.14641983  0.38558725  0.65429213  1
  S2-  S140  1  0.28006477  0.61123994  0.15724424  1
  S2-  S141  1  0.26578123  0.58833347  0.65416430  1
  S2-  S142  1  0.33781404  0.88723958  0.14604523  1
  S2-  S143  1  0.17102877  0.88418516  0.65471435  1
  S2-  S144  1  0.49344798  0.12905772  0.15851533  1
  S2-  S145  1  0.49327650  0.09057440  0.65013493  1
  S2-  S146  1  0.46934068  0.38296771  0.15129216  1
  S2-  S147  1  0.38942789  0.36229326  0.64735092  1
  S2-  S148  1  0.49252934  0.71793039  0.14788152  1
  S2-  S149  1  0.49632693  0.63616075  0.64930399  1
  S2-  S150  1  0.56422312  0.90727842  0.17396770  1
  S2-  S151  1  0.39457012  0.86851833  0.64234784  1
  S2-  S152  1  0.73940694  0.16690494  0.15747229  1
  S2-  S153  1  0.80955898  0.12214563  0.65532067  1
  S2-  S154  1  0.76733778  0.37207075  0.15140490  1
  S2-  S155  1  0.87201865  0.39806836  0.64509423  1
  S2-  S156  1  0.74585136  0.72789652  0.14684917  1
  S2-  S157  1  0.76994286  0.64093626  0.65292852  1
  S2-  S158  1  0.77987238  0.95947471  0.15923800  1
  S2-  S159  1  0.75070745  0.88402777  0.65456493  1
  S2-  S160  1  0.07056027  0.01021306  0.35181214  1
  S2-  S161  1  0.07249244  0.01929454  0.80972121  1
  S2-  S162  1  0.04972288  0.26819572  0.35031108  1
  S2-  S163  1  0.12730190  0.23132941  0.82360911  1
  S2-  S164  1  0.15565731  0.47150280  0.35382737  1
  S2-  S165  1  0.06927786  0.43969061  0.84476578  1
  S2-  S166  1  0.16613793  0.77207599  0.34515463  1
  S2-  S167  1  0.12394528  0.82744485  0.85460551  1
  S2-  S168  1  0.38040192  0.01676263  0.34315188  1
  S2-  S169  1  0.28979948  -0.00335066  0.85177658  1
  S2-  S170  1  0.27081166  0.26164370  0.36047284  1
  S2-  S171  1  0.35957028  0.28940337  0.84268567  1
  S2-  S172  1  0.40883651  0.49490899  0.34977313  1
  S2-  S173  1  0.26096185  0.51732229  0.85835464  1
  S2-  S174  1  0.42197451  0.76497539  0.33735237  1
  S2-  S175  1  0.42870624  0.75105025  0.85587585  1
  S2-  S176  1  0.64405415  0.00165652  0.33616135  1
  S2-  S177  1  0.63948260  -0.12151492  0.86742139  1
  S2-  S178  1  0.67240532  0.24203558  0.34340633  1
  S2-  S179  1  0.60798742  0.27671438  0.84556273  1
  S2-  S180  1  0.64844514  0.49452700  0.33914658  1
  S2-  S181  1  0.49647116  0.49813430  0.85571566  1
  S2-  S182  1  0.66332611  0.76277184  0.34581680  1
  S2-  S183  1  0.64869895  0.64230536  0.85988087  1
  S2-  S184  1  0.84527575  -0.01689590  0.29249896  1
  S2-  S185  1  0.84123775  0.05778863  0.83613759  1
  S2-  S186  1  0.88145903  0.15190954  0.34469292  1
  S2-  S187  1  0.87682420  0.26452550  0.84126920  1
  S2-  S188  1  0.87993082  0.39830481  0.35872576  1
  S2-  S189  1  0.84132031  0.51126337  0.84889199  1
  S2-  S190  1  0.91550672  0.82959925  0.35176911  1
  S2-  S191  1  0.87636439  0.83570076  0.85940268  1
  S2-  S192  1  0.01498919  0.12604918  0.45684730  1
  S2-  S193  1  0.00577452  0.11241205  0.93876643  1
  S2-  S194  1  0.01683361  0.38530662  0.46337092  1
  S2-  S195  1  -0.00067850  0.36497174  0.95164784  1
  S2-  S196  1  0.01554829  0.62984411  0.45711886  1
  S2-  S197  1  0.00361867  0.61947562  0.94800419  1
  S2-  S198  1  0.01582076  0.88384701  0.45930545  1
  S2-  S199  1  0.00640924  0.87087040  0.95621906  1
  S2-  S200  1  0.26540935  0.12528247  0.45465968  1
  S2-  S201  1  0.24994182  0.11858779  0.94827834  1
  S2-  S202  1  0.27044442  0.38497770  0.46376469  1
  S2-  S203  1  0.25232146  0.36297618  0.95220483  1
  S2-  S204  1  0.26844545  0.63104413  0.45174994  1
  S2-  S205  1  0.25373972  0.62480208  0.95757305  1
  S2-  S206  1  0.26466130  0.88138506  0.45580346  1
  S2-  S207  1  0.25437177  0.86904153  0.95686246  1
  S2-  S208  1  0.51420393  0.13053316  0.44455704  1
  S2-  S209  1  0.49981034  0.11444364  0.94982373  1
  S2-  S210  1  0.51355247  0.37944989  0.45805746  1
  S2-  S211  1  0.50398835  0.36496293  0.95244499  1
  S2-  S212  1  0.51413689  0.63164604  0.44676426  1
  S2-  S213  1  0.49866875  0.62004778  0.96102278  1
  S2-  S214  1  0.51555776  0.88080830  0.45395159  1
  S2-  S215  1  0.49465791  0.87119217  0.96796754  1
  S2-  S216  1  0.76420661  0.12734849  0.45053215  1
  S2-  S217  1  0.74844466  0.11472944  0.95311232  1
  S2-  S218  1  0.76017626  0.37957517  0.45700379  1
  S2-  S219  1  0.74947167  0.36974794  0.94750347  1
  S2-  S220  1  0.76485329  0.62959620  0.44983206  1
  S2-  S221  1  0.75794542  0.61926804  0.96183512  1
  S2-  S222  1  0.76849970  0.88507800  0.44825897  1
  S2-  S223  1  0.75361841  0.86526502  0.96726590  1
  S2-  S224  1  0.12661602  -0.00837037  0.04874918  1
  S2-  S225  1  0.14364748  0.00588722  0.54765518  1
  S2-  S226  1  0.12398047  0.24290572  0.03679666  1
  S2-  S227  1  0.14343295  0.25576637  0.54457697  1
  S2-  S228  1  0.12653553  0.49151145  0.04376784  1
  S2-  S229  1  0.13970231  0.50984441  0.55277289  1
  S2-  S230  1  0.12701423  0.74179404  0.05052423  1
  S2-  S231  1  0.13941547  0.75374122  0.55308082  1
  S2-  S232  1  0.37348229  -0.00460536  0.04238352  1
  S2-  S233  1  0.38968044  0.00747797  0.54484520  1
  S2-  S234  1  0.37703292  0.24399712  0.04597880  1
  S2-  S235  1  0.38993530  0.25290363  0.54210703  1
  S2-  S236  1  0.37263252  0.49304390  0.04496182  1
  S2-  S237  1  0.39303243  0.50856228  0.54974185  1
  S2-  S238  1  0.36769007  0.73807867  0.05106108  1
  S2-  S239  1  0.39314782  0.75228150  0.54136226  1
  S2-  S240  1  0.62553056  -0.00946632  0.05154203  1
  S2-  S241  1  0.63813030  0.00336229  0.54549044  1
  S2-  S242  1  0.62730316  0.24185236  0.04810648  1
  S2-  S243  1  0.63959629  0.25435079  0.54519757  1
  S2-  S244  1  0.62845296  0.49379465  0.04363876  1
  S2-  S245  1  0.63752602  0.50517173  0.54791934  1
  S2-  S246  1  0.62112384  0.74062480  0.04771397  1
  S2-  S247  1  0.63662501  0.75724428  0.54984333  1
  S2-  S248  1  0.87787369  -0.00824587  0.04112481  1
  S2-  S249  1  0.88897952  0.00066641  0.55308601  1
  S2-  S250  1  0.87479555  0.24049756  0.04292831  1
  S2-  S251  1  0.88616468  0.25545724  0.54023506  1
  S2-  S252  1  0.87699474  0.49127021  0.04944668  1
  S2-  S253  1  0.88702352  0.50893409  0.54370364  1
  S2-  S254  1  0.88169692  0.74122583  0.04968396  1
  S2-  S255  1  0.88889430  0.75690659  0.54964238  1
