# generated using pymatgen
data_La9Ce10Pr6Nd4Sm3(BiS2)32
_symmetry_space_group_name_H-M   'P 1'
_cell_length_a   16.23331419
_cell_length_b   16.23364117
_cell_length_c   27.07704582
_cell_angle_alpha   90.04832700
_cell_angle_beta   89.97941620
_cell_angle_gamma   90.07629988
_symmetry_Int_Tables_number   1
_chemical_formula_structural   La9Ce10Pr6Nd4Sm3(BiS2)32
_chemical_formula_sum   'La18 Ce20 Pr12 Nd8 Sm6 Bi64 S128'
_cell_volume   7135.49077051
_cell_formula_units_Z   2
loop_
 _symmetry_equiv_pos_site_id
 _symmetry_equiv_pos_as_xyz
  1  'x, y, z'
loop_
 _atom_type_symbol
 _atom_type_oxidation_number
  La3+  3.0
  Ce3+  3.0
  Pr3+  3.0
  Nd3+  3.0
  Sm3+  3.0
  Bi2+  2.0
  S2-  -2.0
loop_
 _atom_site_type_symbol
 _atom_site_label
 _atom_site_symmetry_multiplicity
 _atom_site_fract_x
 _atom_site_fract_y
 _atom_site_fract_z
 _atom_site_occupancy
  La3+  La0  1  0.00428465  0.13977372  0.09001128  1
  La3+  La1  1  0.13509588  0.25945117  0.92890085  1
  La3+  La2  1  0.87753308  0.25504083  0.92129024  1
  La3+  La3  1  0.62141827  0.00532478  0.92673313  1
  La3+  La4  1  -0.00744820  0.62691783  0.56728386  1
  La3+  La5  1  0.62831726  0.50975413  0.94056176  1
  La3+  La6  1  0.11940417  -0.00767093  0.38840620  1
  La3+  La7  1  0.49210400  0.62312472  0.56471497  1
  La3+  La8  1  0.36653137  0.50559618  0.42527391  1
  La3+  La9  1  0.62597441  0.73948524  0.41559482  1
  La3+  La10  1  0.51076801  0.63616409  0.09162597  1
  La3+  La11  1  0.38719052  0.51170553  0.90300032  1
  La3+  La12  1  0.85982394  -0.00280483  0.43788660  1
  La3+  La13  1  0.11633328  0.24921498  0.43094103  1
  La3+  La14  1  0.73361650  0.86653597  0.58039531  1
  La3+  La15  1  0.11102028  0.49781975  0.43134874  1
  La3+  La16  1  -0.00575542  0.36998820  0.56861855  1
  La3+  La17  1  0.73689759  0.12451985  0.58577957  1
  Ce3+  Ce18  1  -0.00091260  0.62827833  0.06621279  1
  Ce3+  Ce19  1  0.24013392  0.11799338  0.56026806  1
  Ce3+  Ce20  1  0.49510520  0.12271953  0.55911995  1
  Ce3+  Ce21  1  0.24246464  0.87684549  0.55875725  1
  Ce3+  Ce22  1  0.11499516  0.75279667  0.44236332  1
  Ce3+  Ce23  1  0.86372544  0.74981569  0.44405569  1
  Ce3+  Ce24  1  0.75772922  0.13000827  0.04731145  1
  Ce3+  Ce25  1  0.61683708  0.24886143  0.43922706  1
  Ce3+  Ce26  1  0.50540829  0.87974989  0.06446953  1
  Ce3+  Ce27  1  0.62080605  -0.00335310  0.44260618  1
  Ce3+  Ce28  1  0.12838841  0.00587373  0.94009818  1
  Ce3+  Ce29  1  0.36540081  -0.00117932  0.43949181  1
  Ce3+  Ce30  1  0.73957180  0.62445232  0.56376205  1
  Ce3+  Ce31  1  0.62362580  0.25428344  0.94053953  1
  Ce3+  Ce32  1  0.13062685  0.50615985  0.94359320  1
  Ce3+  Ce33  1  0.38037239  0.00327512  0.94486594  1
  Ce3+  Ce34  1  0.49576864  0.87194523  0.54983703  1
  Ce3+  Ce35  1  0.24113762  0.62346167  0.55633378  1
  Ce3+  Ce36  1  0.00347625  0.37558770  0.05285989  1
  Ce3+  Ce37  1  0.36716520  0.74854265  0.44119491  1
  Pr3+  Pr38  1  0.49087410  0.37319200  0.56106202  1
  Pr3+  Pr39  1  0.50717120  0.13122537  0.06855081  1
  Pr3+  Pr40  1  0.86718014  0.24580986  0.44267598  1
  Pr3+  Pr41  1  0.25600721  0.38291553  0.05788684  1
  Pr3+  Pr42  1  0.75980785  0.62947277  0.06755037  1
  Pr3+  Pr43  1  0.75739473  0.88537350  0.05997959  1
  Pr3+  Pr44  1  0.88038192  -0.00298492  0.92492033  1
  Pr3+  Pr45  1  -0.00770146  0.12087295  0.55937939  1
  Pr3+  Pr46  1  0.00366210  0.88365577  0.05803389  1
  Pr3+  Pr47  1  0.13105556  0.75125733  0.94315008  1
  Pr3+  Pr48  1  0.88269033  0.50841470  0.93245802  1
  Pr3+  Pr49  1  0.25205020  0.88095441  0.06063465  1
  Nd3+  Nd50  1  0.25609916  0.62862591  0.06090462  1
  Nd3+  Nd51  1  0.87961419  0.75398169  0.93491983  1
  Nd3+  Nd52  1  0.24373535  0.37112919  0.56353867  1
  Nd3+  Nd53  1  0.36475523  0.24796318  0.44189552  1
  Nd3+  Nd54  1  0.62671403  0.75144932  0.94606140  1
  Nd3+  Nd55  1  0.61639045  0.48959687  0.43750364  1
  Nd3+  Nd56  1  0.50491065  0.38272768  0.06085983  1
  Nd3+  Nd57  1  0.86712645  0.49899483  0.45063438  1
  Sm3+  Sm58  1  0.38090331  0.75008843  0.94648767  1
  Sm3+  Sm59  1  0.25442894  0.13231665  0.05817743  1
  Sm3+  Sm60  1  0.74188602  0.37290463  0.55873623  1
  Sm3+  Sm61  1  0.38022532  0.25713738  0.94626232  1
  Sm3+  Sm62  1  0.75748571  0.37814252  0.05090979  1
  Sm3+  Sm63  1  -0.00913217  0.87843633  0.55728509  1
  Bi2+  Bi64  1  -0.00592423  0.12059504  0.28357722  1
  Bi2+  Bi65  1  -0.00047788  0.13247206  0.79832406  1
  Bi2+  Bi66  1  -0.01889266  0.37234666  0.29074355  1
  Bi2+  Bi67  1  -0.01587173  0.46226490  0.79291990  1
  Bi2+  Bi68  1  0.06304843  0.62775673  0.32366787  1
  Bi2+  Bi69  1  -0.03003863  0.64458733  0.83156802  1
  Bi2+  Bi70  1  0.00064978  0.85787247  0.28959588  1
  Bi2+  Bi71  1  0.01770340  0.82631210  0.79759265  1
  Bi2+  Bi72  1  0.25383834  0.13243399  0.28022379  1
  Bi2+  Bi73  1  0.30307880  0.09087836  0.77634193  1
  Bi2+  Bi74  1  0.26934263  0.38933998  0.29960403  1
  Bi2+  Bi75  1  0.22953947  0.35366059  0.79159038  1
  Bi2+  Bi76  1  0.24401427  0.62623877  0.28818940  1
  Bi2+  Bi77  1  0.23366397  0.65655893  0.76274463  1
  Bi2+  Bi78  1  0.33984650  0.87345444  0.29106344  1
  Bi2+  Bi79  1  0.29557264  0.89827909  0.80439636  1
  Bi2+  Bi80  1  0.52389636  0.11452472  0.28977787  1
  Bi2+  Bi81  1  0.49702157  0.13468806  0.79149190  1
  Bi2+  Bi82  1  0.56009834  0.35101965  0.25160964  1
  Bi2+  Bi83  1  0.47941451  0.36155197  0.79693289  1
  Bi2+  Bi84  1  0.50193764  0.59859598  0.29809596  1
  Bi2+  Bi85  1  0.51132064  0.63881196  0.79390910  1
  Bi2+  Bi86  1  0.52942515  0.92018069  0.28579845  1
  Bi2+  Bi87  1  0.48702703  0.87075200  0.79135395  1
  Bi2+  Bi88  1  0.72240687  0.12830297  0.29179121  1
  Bi2+  Bi89  1  0.73390763  0.10653106  0.78450273  1
  Bi2+  Bi90  1  0.74196343  0.35175282  0.29803682  1
  Bi2+  Bi91  1  0.71134732  0.40112835  0.75431283  1
  Bi2+  Bi92  1  0.79012683  0.57078233  0.29931781  1
  Bi2+  Bi93  1  0.77928832  0.65169298  0.80180213  1
  Bi2+  Bi94  1  0.79564451  0.89569979  0.29241695  1
  Bi2+  Bi95  1  0.76392837  0.86089584  0.77248611  1
  Bi2+  Bi96  1  0.13556896  -0.01974412  0.18007161  1
  Bi2+  Bi97  1  0.13947703  -0.00903070  0.74708499  1
  Bi2+  Bi98  1  0.11433799  0.31672166  0.21542573  1
  Bi2+  Bi99  1  0.11420431  0.23950438  0.69986812  1
  Bi2+  Bi100  1  0.10497630  0.51722486  0.22218075  1
  Bi2+  Bi101  1  0.12229721  0.51882381  0.71524053  1
  Bi2+  Bi102  1  0.10641294  0.71989278  0.22355615  1
  Bi2+  Bi103  1  0.15326586  0.80354667  0.71073206  1
  Bi2+  Bi104  1  0.39257495  0.01485749  0.21812211  1
  Bi2+  Bi105  1  0.36630784  -0.02324883  0.68317509  1
  Bi2+  Bi106  1  0.35936595  0.26066400  0.22686433  1
  Bi2+  Bi107  1  0.38578432  0.23091983  0.70913265  1
  Bi2+  Bi108  1  0.35851766  0.48740024  0.19376880  1
  Bi2+  Bi109  1  0.36423459  0.49527340  0.69422940  1
  Bi2+  Bi110  1  0.36681879  0.74955355  0.20656448  1
  Bi2+  Bi111  1  0.36329280  0.78649197  0.71526805  1
  Bi2+  Bi112  1  0.66375997  -0.00503189  0.20628985  1
  Bi2+  Bi113  1  0.55047764  -0.00275082  0.70947161  1
  Bi2+  Bi114  1  0.60957296  0.18282192  0.18908397  1
  Bi2+  Bi115  1  0.58514333  0.26522129  0.71366656  1
  Bi2+  Bi116  1  0.69213192  0.48656157  0.21452752  1
  Bi2+  Bi117  1  0.64647854  0.56116140  0.70081927  1
  Bi2+  Bi118  1  0.63896357  0.75153920  0.21548085  1
  Bi2+  Bi119  1  0.62980908  0.76081125  0.71549358  1
  Bi2+  Bi120  1  0.86555301  -0.02230456  0.19144963  1
  Bi2+  Bi121  1  0.90958292  -0.00575055  0.69663873  1
  Bi2+  Bi122  1  0.80331495  0.24090803  0.21057511  1
  Bi2+  Bi123  1  0.86504533  0.27694186  0.71509037  1
  Bi2+  Bi124  1  0.91190571  0.49874999  0.20406561  1
  Bi2+  Bi125  1  0.84001834  0.53413016  0.71208043  1
  Bi2+  Bi126  1  0.91098886  0.69272979  0.24400650  1
  Bi2+  Bi127  1  0.90254853  0.72259554  0.71565099  1
  S2-  S128  1  0.00119007  0.08527542  0.18862882  1
  S2-  S129  1  0.02437314  0.12218176  0.66085400  1
  S2-  S130  1  0.00601928  0.29523905  0.13978758  1
  S2-  S131  1  -0.00131145  0.35816726  0.66909987  1
  S2-  S132  1  -0.11331069  0.63673059  0.14062947  1
  S2-  S133  1  0.01889389  0.61156862  0.66714814  1
  S2-  S134  1  -0.00722526  0.87824905  0.15867193  1
  S2-  S135  1  -0.03322873  0.85892606  0.65549554  1
  S2-  S136  1  0.18695224  0.12546432  0.14761524  1
  S2-  S137  1  0.24462345  0.18553542  0.65187648  1
  S2-  S138  1  0.25548455  0.35334831  0.15779912  1
  S2-  S139  1  0.23057511  0.40346635  0.66273037  1
  S2-  S140  1  0.26685570  0.61360468  0.16022018  1
  S2-  S141  1  0.25928788  0.61460439  0.65415643  1
  S2-  S142  1  0.25786427  0.85387852  0.16050025  1
  S2-  S143  1  0.20546060  0.93885442  0.64881111  1
  S2-  S144  1  0.42661543  0.15330237  0.15811831  1
  S2-  S145  1  0.58748317  0.12871821  0.64375015  1
  S2-  S146  1  0.49951540  0.39865158  0.16044953  1
  S2-  S147  1  0.47219682  0.37581471  0.66165183  1
  S2-  S148  1  0.46847010  0.60357747  0.19367119  1
  S2-  S149  1  0.48641709  0.60568746  0.66593809  1
  S2-  S150  1  0.50818518  0.79713520  0.15145699  1
  S2-  S151  1  0.56573125  0.85957378  0.63909577  1
  S2-  S152  1  0.83216641  0.12565108  0.13485768  1
  S2-  S153  1  0.80362372  0.13715934  0.68298896  1
  S2-  S154  1  0.77351334  0.38156351  0.14955058  1
  S2-  S155  1  0.73713664  0.33556254  0.65432329  1
  S2-  S156  1  0.65993256  0.63231926  0.15207808  1
  S2-  S157  1  0.74545188  0.72209635  0.64414098  1
  S2-  S158  1  0.74867118  0.84663093  0.15995075  1
  S2-  S159  1  0.76521991  0.94194863  0.67350155  1
  S2-  S160  1  0.11303752  -0.01007485  0.27679495  1
  S2-  S161  1  0.08730436  -0.00401251  0.84519505  1
  S2-  S162  1  0.12606455  0.15565110  0.34514972  1
  S2-  S163  1  0.12844948  0.24179813  0.82765557  1
  S2-  S164  1  0.12203993  0.37975793  0.35654125  1
  S2-  S165  1  0.14385004  0.46537372  0.84814619  1
  S2-  S166  1  0.12696337  0.82317532  0.35302566  1
  S2-  S167  1  0.14176115  0.72011620  0.84337192  1
  S2-  S168  1  0.29013948  0.00596438  0.35139108  1
  S2-  S169  1  0.47661228  0.00419234  0.86329986  1
  S2-  S170  1  0.34253779  0.24539946  0.34181360  1
  S2-  S171  1  0.35691982  0.27856076  0.84954259  1
  S2-  S172  1  0.41043230  0.45675502  0.32991420  1
  S2-  S173  1  0.35460818  0.47401629  0.80069995  1
  S2-  S174  1  0.37088984  0.65815326  0.35648804  1
  S2-  S175  1  0.39499421  0.67140227  0.85768554  1
  S2-  S176  1  0.72548458  -0.00541587  0.36354502  1
  S2-  S177  1  0.68286019  -0.02642114  0.83077279  1
  S2-  S178  1  0.60592846  0.34756217  0.35846525  1
  S2-  S179  1  0.63320246  0.21159019  0.84543058  1
  S2-  S180  1  0.63209892  0.58153292  0.35438315  1
  S2-  S181  1  0.54697336  0.49759969  0.85110698  1
  S2-  S182  1  0.56963990  0.75903518  0.31546133  1
  S2-  S183  1  0.63478964  0.71418918  0.84787028  1
  S2-  S184  1  0.95259087  -0.00344209  0.35055022  1
  S2-  S185  1  0.86884088  0.05056986  0.82594126  1
  S2-  S186  1  0.91834317  0.24527779  0.34492613  1
  S2-  S187  1  0.88859180  0.24552237  0.81909545  1
  S2-  S188  1  0.91391331  0.50046188  0.35468917  1
  S2-  S189  1  0.84307809  0.44582257  0.84092117  1
  S2-  S190  1  0.78119301  0.76842820  0.35819441  1
  S2-  S191  1  0.87494077  0.85685820  0.85390412  1
  S2-  S192  1  -0.00938228  0.12201814  0.45346914  1
  S2-  S193  1  0.00541770  0.13152462  0.93868358  1
  S2-  S194  1  -0.01147670  0.37310397  0.46041458  1
  S2-  S195  1  0.00433521  0.38027463  0.94527418  1
  S2-  S196  1  -0.01008806  0.62580872  0.45909103  1
  S2-  S197  1  0.00501139  0.62980607  0.95984543  1
  S2-  S198  1  -0.01148299  0.87198076  0.45325538  1
  S2-  S199  1  0.00881785  0.87633468  0.95153878  1
  S2-  S200  1  0.24406389  0.12323278  0.45502528  1
  S2-  S201  1  0.25804372  0.12978111  0.94950649  1
  S2-  S202  1  0.24655718  0.37680277  0.45529062  1
  S2-  S203  1  0.26353520  0.38762932  0.95105386  1
  S2-  S204  1  0.23578429  0.62493066  0.45105946  1
  S2-  S205  1  0.25830653  0.62557983  0.95439024  1
  S2-  S206  1  0.24485918  0.87266275  0.45367235  1
  S2-  S207  1  0.25626336  0.87651708  0.95261168  1
  S2-  S208  1  0.49236466  0.12390572  0.44969115  1
  S2-  S209  1  0.50033996  0.13353363  0.96062482  1
  S2-  S210  1  0.48605670  0.37370279  0.45517299  1
  S2-  S211  1  0.49994501  0.38100999  0.95402162  1
  S2-  S212  1  0.49518472  0.62138916  0.45566830  1
  S2-  S213  1  0.50300893  0.62914593  0.96389836  1
  S2-  S214  1  0.49454750  0.87122904  0.44221042  1
  S2-  S215  1  0.50214915  0.87315063  0.95831682  1
  S2-  S216  1  0.73848042  0.12827548  0.46246489  1
  S2-  S217  1  0.75267109  0.12716721  0.94288287  1
  S2-  S218  1  0.74557593  0.37315685  0.45433612  1
  S2-  S219  1  0.74942746  0.37815045  0.94616500  1
  S2-  S220  1  0.74390297  0.61896741  0.45886850  1
  S2-  S221  1  0.75735971  0.63082389  0.95548186  1
  S2-  S222  1  0.73770845  0.87017695  0.46596703  1
  S2-  S223  1  0.74784807  0.87901344  0.95248571  1
  S2-  S224  1  0.12712884  0.01032319  0.04597892  1
  S2-  S225  1  0.11433443  -0.00279433  0.54552911  1
  S2-  S226  1  0.13329631  0.25408051  0.03825821  1
  S2-  S227  1  0.11913520  0.24801484  0.54450385  1
  S2-  S228  1  0.12712414  0.50491000  0.05253119  1
  S2-  S229  1  0.11716441  0.49763735  0.54613840  1
  S2-  S230  1  0.12770394  0.75220789  0.05224173  1
  S2-  S231  1  0.11623307  0.75342215  0.55157267  1
  S2-  S232  1  0.37802912  0.00600387  0.05265995  1
  S2-  S233  1  0.37136587  -0.00140977  0.54552446  1
  S2-  S234  1  0.37873844  0.25577627  0.05037341  1
  S2-  S235  1  0.36823344  0.24656774  0.54870005  1
  S2-  S236  1  0.38317415  0.50834448  0.05838902  1
  S2-  S237  1  0.36542136  0.49850524  0.54319725  1
  S2-  S238  1  0.37769711  0.75444214  0.05104808  1
  S2-  S239  1  0.36689239  0.75019978  0.54918742  1
  S2-  S240  1  0.62827502  0.00607578  0.04573488  1
  S2-  S241  1  0.61791398  -0.00083528  0.54646779  1
  S2-  S242  1  0.63093302  0.25736664  0.04804232  1
  S2-  S243  1  0.61756815  0.25275297  0.54553162  1
  S2-  S244  1  0.63291156  0.50154600  0.04942658  1
  S2-  S245  1  0.61856606  0.49486492  0.54857837  1
  S2-  S246  1  0.63337613  0.75781324  0.04995174  1
  S2-  S247  1  0.61426476  0.74252640  0.53798434  1
  S2-  S248  1  0.88397199  0.00724982  0.03570839  1
  S2-  S249  1  0.86328189  -0.00090366  0.55141676  1
  S2-  S250  1  0.87937812  0.25518836  0.03273303  1
  S2-  S251  1  0.86406704  0.24710155  0.55220917  1
  S2-  S252  1  0.87966735  0.49971072  0.04075588  1
  S2-  S253  1  0.86618099  0.49715539  0.55839021  1
  S2-  S254  1  0.87962167  0.75991586  0.04131620  1
  S2-  S255  1  0.87007401  0.75070601  0.54871182  1
