# generated using pymatgen
data_La9Ce10Pr6Nd4Sm3(BiS2)32
_symmetry_space_group_name_H-M   'P 1'
_cell_length_a   16.16493230
_cell_length_b   16.19858341
_cell_length_c   27.02164444
_cell_angle_alpha   90.16325415
_cell_angle_beta   89.94092782
_cell_angle_gamma   90.10647257
_symmetry_Int_Tables_number   1
_chemical_formula_structural   La9Ce10Pr6Nd4Sm3(BiS2)32
_chemical_formula_sum   'La18 Ce20 Pr12 Nd8 Sm6 Bi64 S128'
_cell_volume   7075.54602578
_cell_formula_units_Z   2
loop_
 _symmetry_equiv_pos_site_id
 _symmetry_equiv_pos_as_xyz
  1  'x, y, z'
loop_
 _atom_type_symbol
 _atom_type_oxidation_number
  La3+  3.0
  Ce3+  3.0
  Pr3+  3.0
  Nd3+  3.0
  Sm3+  3.0
  Bi2+  2.0
  S2-  -2.0
loop_
 _atom_site_type_symbol
 _atom_site_label
 _atom_site_symmetry_multiplicity
 _atom_site_fract_x
 _atom_site_fract_y
 _atom_site_fract_z
 _atom_site_occupancy
  La3+  La0  1  -0.02776552  0.87069700  0.56800272  1
  La3+  La1  1  0.35358714  0.24750185  0.43249477  1
  La3+  La2  1  0.24925292  0.13794070  0.07114156  1
  La3+  La3  1  0.62630639  0.25000379  0.91061272  1
  La3+  La4  1  0.86476370  0.50018003  0.40397553  1
  La3+  La5  1  0.10760707  0.24772732  0.43296541  1
  La3+  La6  1  0.49037769  0.63301155  0.08777769  1
  La3+  La7  1  -0.02614734  0.12997369  0.56857405  1
  La3+  La8  1  0.47049830  0.62734454  0.56710827  1
  La3+  La9  1  0.35159307  0.75368714  0.40884635  1
  La3+  La10  1  -0.01287175  0.38130903  0.07493081  1
  La3+  La11  1  -0.00059297  0.12337502  0.11797479  1
  La3+  La12  1  0.22279580  0.11565217  0.57445224  1
  La3+  La13  1  0.34769137  0.00274521  0.42556707  1
  La3+  La14  1  0.09915490  0.74889629  0.43097335  1
  La3+  La15  1  -0.03251777  0.62371773  0.56528730  1
  La3+  La16  1  0.60020714  0.49075833  0.40651818  1
  La3+  La17  1  0.49528501  0.37693195  0.05543648  1
  Ce3+  Ce18  1  0.73618209  0.37712758  0.06583368  1
  Ce3+  Ce19  1  0.22961506  0.62528748  0.55572560  1
  Ce3+  Ce20  1  0.73228172  0.12740276  0.55817357  1
  Ce3+  Ce21  1  0.61688917  0.00512326  0.94083734  1
  Ce3+  Ce22  1  0.74633952  0.88287357  0.05873918  1
  Ce3+  Ce23  1  0.24395142  0.37640428  0.05478559  1
  Ce3+  Ce24  1  0.36909431  0.75648585  0.94133857  1
  Ce3+  Ce25  1  -0.00640036  0.88164426  0.06287453  1
  Ce3+  Ce26  1  0.61398577  0.75541671  0.95249316  1
  Ce3+  Ce27  1  0.09926081  -0.00159216  0.44053395  1
  Ce3+  Ce28  1  -0.00748195  0.62967447  0.07133048  1
  Ce3+  Ce29  1  0.49456983  0.13085584  0.05680841  1
  Ce3+  Ce30  1  0.22609194  0.87133922  0.55595655  1
  Ce3+  Ce31  1  0.86549456  0.25213584  0.94729796  1
  Ce3+  Ce32  1  0.22873767  0.37228648  0.55915392  1
  Ce3+  Ce33  1  0.86121905  0.24763451  0.41633079  1
  Ce3+  Ce34  1  0.11511103  0.00469329  0.94423432  1
  Ce3+  Ce35  1  0.35891780  0.50215891  0.43915918  1
  Ce3+  Ce36  1  0.85130000  0.74851545  0.42746087  1
  Ce3+  Ce37  1  -0.02642485  0.37420182  0.55393707  1
  Pr3+  Pr38  1  0.60646862  0.24741051  0.43627694  1
  Pr3+  Pr39  1  0.48766967  0.88363968  0.08014873  1
  Pr3+  Pr40  1  0.24476744  0.63189268  0.06505310  1
  Pr3+  Pr41  1  0.60324287  -0.00027287  0.44336346  1
  Pr3+  Pr42  1  0.48080482  0.37128586  0.56487126  1
  Pr3+  Pr43  1  0.37233520  0.51277346  0.93263589  1
  Pr3+  Pr44  1  0.36151129  0.24728132  0.92121167  1
  Pr3+  Pr45  1  0.11592841  0.50441624  0.94289175  1
  Pr3+  Pr46  1  0.36558862  0.00360422  0.93308242  1
  Pr3+  Pr47  1  0.11494666  0.25340150  0.93972197  1
  Pr3+  Pr48  1  0.61547754  0.50844408  0.94313732  1
  Pr3+  Pr49  1  0.86695623  0.50538530  0.94085578  1
  Nd3+  Nd50  1  0.24355953  0.88451387  0.06228489  1
  Nd3+  Nd51  1  0.74430823  0.13070758  0.06507658  1
  Nd3+  Nd52  1  0.74371519  0.63229836  0.07013054  1
  Nd3+  Nd53  1  0.47419455  0.12288349  0.57134896  1
  Nd3+  Nd54  1  0.85350378  -0.00010036  0.43075621  1
  Nd3+  Nd55  1  0.86715204  0.74957696  0.93587203  1
  Nd3+  Nd56  1  0.60366267  0.74577322  0.44014564  1
  Nd3+  Nd57  1  0.72860539  0.87339852  0.56090475  1
  Sm3+  Sm58  1  0.72632729  0.37662798  0.54953043  1
  Sm3+  Sm59  1  0.72320302  0.62009024  0.54694723  1
  Sm3+  Sm60  1  0.10282625  0.50050052  0.44643905  1
  Sm3+  Sm61  1  0.87059490  0.00317217  0.94463839  1
  Sm3+  Sm62  1  0.11658353  0.75344704  0.94757200  1
  Sm3+  Sm63  1  0.47535027  0.87549293  0.55228441  1
  Bi2+  Bi64  1  0.01335286  0.07336127  0.31686657  1
  Bi2+  Bi65  1  0.02224127  0.19714423  0.79432231  1
  Bi2+  Bi66  1  -0.02031326  0.37306181  0.28706416  1
  Bi2+  Bi67  1  0.01767383  0.39133710  0.81549444  1
  Bi2+  Bi68  1  0.01605134  0.62615458  0.28450515  1
  Bi2+  Bi69  1  -0.00531930  0.68481552  0.80640144  1
  Bi2+  Bi70  1  -0.01870574  0.87630756  0.34347430  1
  Bi2+  Bi71  1  -0.00340638  0.93839116  0.80133913  1
  Bi2+  Bi72  1  0.26450592  0.13594702  0.28818553  1
  Bi2+  Bi73  1  0.22628049  0.12826274  0.79074181  1
  Bi2+  Bi74  1  0.22729394  0.39578843  0.28536148  1
  Bi2+  Bi75  1  0.23324116  0.37208808  0.77408085  1
  Bi2+  Bi76  1  0.27359969  0.58258210  0.30261238  1
  Bi2+  Bi77  1  0.28952284  0.61193030  0.78747095  1
  Bi2+  Bi78  1  0.15337401  0.84839849  0.28662862  1
  Bi2+  Bi79  1  0.34973017  0.87419515  0.82080587  1
  Bi2+  Bi80  1  0.50630508  0.15109637  0.27697923  1
  Bi2+  Bi81  1  0.50269649  0.15562646  0.78755160  1
  Bi2+  Bi82  1  0.44559557  0.36938009  0.28535072  1
  Bi2+  Bi83  1  0.49626738  0.40909382  0.78606305  1
  Bi2+  Bi84  1  0.53868815  0.61513001  0.28229586  1
  Bi2+  Bi85  1  0.54361412  0.65114791  0.79736580  1
  Bi2+  Bi86  1  0.51872010  0.89615074  0.30663778  1
  Bi2+  Bi87  1  0.53422083  0.90561061  0.79054321  1
  Bi2+  Bi88  1  0.74093428  0.05244647  0.27780700  1
  Bi2+  Bi89  1  0.75628591  0.12030779  0.79244306  1
  Bi2+  Bi90  1  0.68639711  0.24286868  0.28225590  1
  Bi2+  Bi91  1  0.82356263  0.38779399  0.78751369  1
  Bi2+  Bi92  1  0.77312512  0.69686098  0.26681902  1
  Bi2+  Bi93  1  0.79925094  0.58097027  0.76754752  1
  Bi2+  Bi94  1  0.78055632  0.87526145  0.32371901  1
  Bi2+  Bi95  1  0.72549931  0.85214718  0.78824883  1
  Bi2+  Bi96  1  0.16329768  -0.07010512  0.18804937  1
  Bi2+  Bi97  1  0.12084612  -0.03156652  0.71316487  1
  Bi2+  Bi98  1  0.14848410  0.23280055  0.21966587  1
  Bi2+  Bi99  1  0.11894867  0.24749760  0.70155738  1
  Bi2+  Bi100  1  0.14903563  0.53059786  0.21292953  1
  Bi2+  Bi101  1  0.12121598  0.51926665  0.74114256  1
  Bi2+  Bi102  1  0.15082350  0.72823466  0.19015480  1
  Bi2+  Bi103  1  0.20823728  0.78408167  0.75896046  1
  Bi2+  Bi104  1  0.40712509  0.01067545  0.22060932  1
  Bi2+  Bi105  1  0.37326334  -0.01572066  0.71162796  1
  Bi2+  Bi106  1  0.40721085  0.27371037  0.19158140  1
  Bi2+  Bi107  1  0.37358405  0.26333967  0.69191485  1
  Bi2+  Bi108  1  0.36427357  0.49257221  0.20750033  1
  Bi2+  Bi109  1  0.39431221  0.54144395  0.70136164  1
  Bi2+  Bi110  1  0.37259235  0.76932469  0.21584872  1
  Bi2+  Bi111  1  0.39718057  0.78461443  0.71905766  1
  Bi2+  Bi112  1  0.58830158  0.01534453  0.17705653  1
  Bi2+  Bi113  1  0.65191572  -0.01961124  0.70705711  1
  Bi2+  Bi114  1  0.62659524  0.20267209  0.17425062  1
  Bi2+  Bi115  1  0.68812276  0.17830141  0.68855778  1
  Bi2+  Bi116  1  0.66803330  0.46748083  0.21047350  1
  Bi2+  Bi117  1  0.67154393  0.50360119  0.69033195  1
  Bi2+  Bi118  1  0.63465223  0.83971963  0.22097308  1
  Bi2+  Bi119  1  0.67487861  0.71001106  0.71191198  1
  Bi2+  Bi120  1  0.89458515  -0.09681752  0.23062600  1
  Bi2+  Bi121  1  0.84807420  -0.03730127  0.72300147  1
  Bi2+  Bi122  1  0.87276147  0.25196922  0.21501415  1
  Bi2+  Bi123  1  0.87580665  0.23395771  0.71792732  1
  Bi2+  Bi124  1  0.88053023  0.52581442  0.21471189  1
  Bi2+  Bi125  1  0.93816691  0.47610516  0.70505825  1
  Bi2+  Bi126  1  0.95155270  0.72502434  0.19288823  1
  Bi2+  Bi127  1  0.94240493  0.76447010  0.70518102  1
  S2-  S128  1  -0.00248854  0.13240839  0.22946323  1
  S2-  S129  1  0.08918603  0.10740836  0.64816780  1
  S2-  S130  1  0.01752795  0.29055976  0.15973592  1
  S2-  S131  1  -0.01892885  0.32537895  0.64843676  1
  S2-  S132  1  0.00096795  0.51520179  0.14728913  1
  S2-  S133  1  0.01125250  0.62504771  0.66441223  1
  S2-  S134  1  -0.00311096  0.95279144  0.15343512  1
  S2-  S135  1  0.06808583  0.84273913  0.65456829  1
  S2-  S136  1  0.16466613  0.09806084  0.15756535  1
  S2-  S137  1  0.34746176  0.12066452  0.64630190  1
  S2-  S138  1  0.25570311  0.30169711  0.14352874  1
  S2-  S139  1  0.23967435  0.36126153  0.65818028  1
  S2-  S140  1  0.34126612  0.63746551  0.14989542  1
  S2-  S141  1  0.31768337  0.64834326  0.63896110  1
  S2-  S142  1  0.34001089  0.89857575  0.14787759  1
  S2-  S143  1  0.24919991  0.94116058  0.64688087  1
  S2-  S144  1  0.39238177  0.12946440  0.13895366  1
  S2-  S145  1  0.52651322  0.19478755  0.66335628  1
  S2-  S146  1  0.60212781  0.36059867  0.13821123  1
  S2-  S147  1  0.47054756  0.39915964  0.66759404  1
  S2-  S148  1  0.52905168  0.54885298  0.18131131  1
  S2-  S149  1  0.53795798  0.61585554  0.66200534  1
  S2-  S150  1  0.50819299  0.76780013  0.15922195  1
  S2-  S151  1  0.47976883  0.88391809  0.65210445  1
  S2-  S152  1  0.83130036  0.13270081  0.15453020  1
  S2-  S153  1  0.84140075  0.12368224  0.63679796  1
  S2-  S154  1  0.81058449  0.39017506  0.15747600  1
  S2-  S155  1  0.71567840  0.36400982  0.65058885  1
  S2-  S156  1  0.73744035  0.61431552  0.17125221  1
  S2-  S157  1  0.77524509  0.62628617  0.64185004  1
  S2-  S158  1  0.76474584  0.86802522  0.15636349  1
  S2-  S159  1  0.83999859  0.86168485  0.63893627  1
  S2-  S160  1  0.17722507  0.03180531  0.35272956  1
  S2-  S161  1  0.14518462  0.00936306  0.84649005  1
  S2-  S162  1  0.23005217  0.26418041  0.35467769  1
  S2-  S163  1  0.21376929  0.25488477  0.85512210  1
  S2-  S164  1  0.03452392  0.49941820  0.35389968  1
  S2-  S165  1  0.08877362  0.54729974  0.84586941  1
  S2-  S166  1  0.20109014  0.72583191  0.34878935  1
  S2-  S167  1  0.12341728  0.76648226  0.84828176  1
  S2-  S168  1  0.36918683  -0.10300823  0.34370458  1
  S2-  S169  1  0.36915707  0.09618327  0.84615464  1
  S2-  S170  1  0.39066545  0.12993546  0.35618683  1
  S2-  S171  1  0.41767908  0.28008753  0.82334254  1
  S2-  S172  1  0.44837938  0.50439584  0.35239145  1
  S2-  S173  1  0.33591558  0.46309399  0.83495914  1
  S2-  S174  1  0.39682765  0.70143581  0.30848213  1
  S2-  S175  1  0.40331745  0.65422361  0.86407766  1
  S2-  S176  1  0.60231493  0.04020407  0.34403862  1
  S2-  S177  1  0.61675186  0.09294431  0.85518437  1
  S2-  S178  1  0.58744998  0.33217861  0.34774812  1
  S2-  S179  1  0.60305416  0.29440434  0.80558216  1
  S2-  S180  1  0.66878022  0.52782205  0.31144324  1
  S2-  S181  1  0.60011318  0.51301991  0.84078487  1
  S2-  S182  1  0.59623814  0.74243611  0.33942262  1
  S2-  S183  1  0.64612053  0.73555985  0.85567799  1
  S2-  S184  1  0.84707177  0.10850564  0.35028196  1
  S2-  S185  1  0.87113195  0.02876412  0.84568347  1
  S2-  S186  1  1.00778694  0.24256930  0.34889360  1
  S2-  S187  1  0.78913161  0.25656305  0.85886131  1
  S2-  S188  1  0.84228394  0.36622859  0.33852336  1
  S2-  S189  1  0.86149775  0.61625859  0.86274797  1
  S2-  S190  1  0.86280710  0.64960244  0.34364567  1
  S2-  S191  1  0.89974472  0.81526257  0.84242351  1
  S2-  S192  1  -0.02218192  0.12115979  0.45738706  1
  S2-  S193  1  -0.00996756  0.12926401  0.94585909  1
  S2-  S194  1  -0.02067324  0.37699477  0.45078193  1
  S2-  S195  1  -0.01000394  0.38000030  0.95907856  1
  S2-  S196  1  -0.02208441  0.62281699  0.45509748  1
  S2-  S197  1  -0.00519906  0.63114409  0.96328369  1
  S2-  S198  1  -0.02655417  0.87191796  0.45782158  1
  S2-  S199  1  -0.00708252  0.87711726  0.95578784  1
  S2-  S200  1  0.22703435  0.12456002  0.46368396  1
  S2-  S201  1  0.23992982  0.12630355  0.95851084  1
  S2-  S202  1  0.22968112  0.38309484  0.45343177  1
  S2-  S203  1  0.24381372  0.38436423  0.95021440  1
  S2-  S204  1  0.22955652  0.62103024  0.45126919  1
  S2-  S205  1  0.24036061  0.63140364  0.95638556  1
  S2-  S206  1  0.22441786  0.87308055  0.44959187  1
  S2-  S207  1  0.23972552  0.87764719  0.95537737  1
  S2-  S208  1  0.48303615  0.12544614  0.46315440  1
  S2-  S209  1  0.49247740  0.12982839  0.95095959  1
  S2-  S210  1  0.47749586  0.37263507  0.45613863  1
  S2-  S211  1  0.49344128  0.37934708  0.94465131  1
  S2-  S212  1  0.47758181  0.62926038  0.45250847  1
  S2-  S213  1  0.49473686  0.63167097  0.97096956  1
  S2-  S214  1  0.48129256  0.87225145  0.44842947  1
  S2-  S215  1  0.49262638  0.88096363  0.95420601  1
  S2-  S216  1  0.72886407  0.12389567  0.45232949  1
  S2-  S217  1  0.74628931  0.12272324  0.95774554  1
  S2-  S218  1  0.72900540  0.37864742  0.44462722  1
  S2-  S219  1  0.73968548  0.38404292  0.95463249  1
  S2-  S220  1  0.72565081  0.61765734  0.44205755  1
  S2-  S221  1  0.74005739  0.63144935  0.96259910  1
  S2-  S222  1  0.72734592  0.87356693  0.45388634  1
  S2-  S223  1  0.74476672  0.88003638  0.95059899  1
  S2-  S224  1  0.11651592  0.00604720  0.04845959  1
  S2-  S225  1  0.09710436  -0.00698541  0.54530338  1
  S2-  S226  1  0.11509635  0.25425533  0.04634160  1
  S2-  S227  1  0.10329665  0.25271571  0.54374301  1
  S2-  S228  1  0.12265308  0.50451874  0.04990827  1
  S2-  S229  1  0.10263155  0.50030305  0.55258039  1
  S2-  S230  1  0.11886102  0.75637764  0.05309979  1
  S2-  S231  1  0.10183374  0.74311851  0.54213669  1
  S2-  S232  1  0.37053226  0.00354318  0.04048696  1
  S2-  S233  1  0.35462288  -0.00533536  0.53861387  1
  S2-  S234  1  0.37114687  0.25766717  0.03266420  1
  S2-  S235  1  0.35266819  0.25049403  0.54474812  1
  S2-  S236  1  0.36893394  0.50205246  0.04652685  1
  S2-  S237  1  0.35335015  0.49623108  0.54638968  1
  S2-  S238  1  0.36828288  0.76035351  0.04693173  1
  S2-  S239  1  0.35347663  0.75543286  0.53566924  1
  S2-  S240  1  0.61795391  0.00331187  0.04686118  1
  S2-  S241  1  0.60361959  -0.00118471  0.55216928  1
  S2-  S242  1  0.61926580  0.24874961  0.03259034  1
  S2-  S243  1  0.60522987  0.24939589  0.54398345  1
  S2-  S244  1  0.61799073  0.51135374  0.05126680  1
  S2-  S245  1  0.60081575  0.49964993  0.54413011  1
  S2-  S246  1  0.62037368  0.75972912  0.05725058  1
  S2-  S247  1  0.60322100  0.75061821  0.54837638  1
  S2-  S248  1  0.87101514  0.00758283  0.04930368  1
  S2-  S249  1  0.85033822  -0.00244894  0.53807995  1
  S2-  S250  1  0.86453928  0.25623749  0.05106125  1
  S2-  S251  1  0.84868173  0.25485537  0.53470437  1
  S2-  S252  1  0.86280994  0.50877553  0.04775073  1
  S2-  S253  1  0.84854143  0.49761192  0.54386657  1
  S2-  S254  1  0.86853853  0.75485692  0.04759507  1
  S2-  S255  1  0.84595367  0.74484129  0.53552686  1
