# generated using pymatgen
data_La9Ce10Pr6Nd4Sm3(BiS2)32
_symmetry_space_group_name_H-M   'P 1'
_cell_length_a   16.25924591
_cell_length_b   16.26453504
_cell_length_c   27.02220771
_cell_angle_alpha   89.99906994
_cell_angle_beta   89.89248898
_cell_angle_gamma   89.98993746
_symmetry_Int_Tables_number   1
_chemical_formula_structural   La9Ce10Pr6Nd4Sm3(BiS2)32
_chemical_formula_sum   'La18 Ce20 Pr12 Nd8 Sm6 Bi64 S128'
_cell_volume   7145.98513533
_cell_formula_units_Z   2
loop_
 _symmetry_equiv_pos_site_id
 _symmetry_equiv_pos_as_xyz
  1  'x, y, z'
loop_
 _atom_type_symbol
 _atom_type_oxidation_number
  La3+  3.0
  Ce3+  3.0
  Pr3+  3.0
  Nd3+  3.0
  Sm3+  3.0
  Bi2+  2.0
  S2-  -2.0
loop_
 _atom_site_type_symbol
 _atom_site_label
 _atom_site_symmetry_multiplicity
 _atom_site_fract_x
 _atom_site_fract_y
 _atom_site_fract_z
 _atom_site_occupancy
  La3+  La0  1  0.62691975  0.00099831  0.92454941  1
  La3+  La1  1  0.12827155  0.49279924  0.43348483  1
  La3+  La2  1  0.88679336  0.00925003  0.90965288  1
  La3+  La3  1  0.74542389  0.86468457  0.57055647  1
  La3+  La4  1  0.25938677  0.62885016  0.08367884  1
  La3+  La5  1  0.36687661  0.49316828  0.91617412  1
  La3+  La6  1  0.88702467  0.73647807  0.91778582  1
  La3+  La7  1  0.48913895  0.60998358  0.59071405  1
  La3+  La8  1  -0.00085270  0.12153696  0.07237168  1
  La3+  La9  1  0.12520569  0.74177451  0.42864338  1
  La3+  La10  1  0.37675936  0.23526910  0.43464322  1
  La3+  La11  1  -0.00941190  0.61958948  0.08602019  1
  La3+  La12  1  0.87238458  0.49080072  0.42846838  1
  La3+  La13  1  0.37359822  -0.00267857  0.93735082  1
  La3+  La14  1  0.38032409  0.74114757  0.43300113  1
  La3+  La15  1  0.86971824  0.74133133  0.43305851  1
  La3+  La16  1  0.12252066  0.23932696  0.44185639  1
  La3+  La17  1  0.50715536  0.11443598  0.07650965  1
  Ce3+  Ce18  1  0.25104792  0.86404375  0.55525806  1
  Ce3+  Ce19  1  0.37524663  -0.00812835  0.44469782  1
  Ce3+  Ce20  1  -0.00110215  0.37775867  0.06472248  1
  Ce3+  Ce21  1  0.50341378  0.87375678  0.05555930  1
  Ce3+  Ce22  1  0.75541326  0.87349012  0.04257045  1
  Ce3+  Ce23  1  0.12625140  0.49891935  0.94860878  1
  Ce3+  Ce24  1  0.62193545  0.74062023  0.45135285  1
  Ce3+  Ce25  1  -0.00145123  0.11647701  0.56636136  1
  Ce3+  Ce26  1  0.74536169  0.37401724  0.05818233  1
  Ce3+  Ce27  1  0.87302132  0.23868139  0.44836394  1
  Ce3+  Ce28  1  0.12276902  0.74291298  0.94955536  1
  Ce3+  Ce29  1  0.24891520  0.12198867  0.05621795  1
  Ce3+  Ce30  1  0.87868876  0.49523410  0.94037464  1
  Ce3+  Ce31  1  0.49879852  0.11658997  0.56013295  1
  Ce3+  Ce32  1  0.24940945  0.11533856  0.56013247  1
  Ce3+  Ce33  1  0.74719638  0.61530177  0.55748018  1
  Ce3+  Ce34  1  0.62650799  -0.00641395  0.44458883  1
  Ce3+  Ce35  1  0.25120604  0.61918918  0.55750748  1
  Ce3+  Ce36  1  0.37459702  0.25063517  0.94382993  1
  Ce3+  Ce37  1  0.25028680  0.37699618  0.06329255  1
  Pr3+  Pr38  1  0.87391077  -0.00851714  0.44644286  1
  Pr3+  Pr39  1  0.24839694  0.87209119  0.06185870  1
  Pr3+  Pr40  1  -0.00328436  0.61740853  0.55572974  1
  Pr3+  Pr41  1  0.75106503  0.12173987  0.05837435  1
  Pr3+  Pr42  1  0.12249124  -0.00869496  0.44705998  1
  Pr3+  Pr43  1  0.62656965  0.23214985  0.43076428  1
  Pr3+  Pr44  1  0.49822624  0.36579192  0.56211499  1
  Pr3+  Pr45  1  0.74624353  0.12341848  0.57288761  1
  Pr3+  Pr46  1  0.62110713  0.25235771  0.94222242  1
  Pr3+  Pr47  1  0.24900588  0.36794712  0.55685633  1
  Pr3+  Pr48  1  0.48865252  0.36723785  0.07951850  1
  Pr3+  Pr49  1  0.37877628  0.48986301  0.43299383  1
  Nd3+  Nd50  1  0.62559098  0.74649276  0.93652014  1
  Nd3+  Nd51  1  0.75081971  0.62579702  0.05497693  1
  Nd3+  Nd52  1  0.12206398  -0.00349820  0.94473789  1
  Nd3+  Nd53  1  -0.00137040  0.36983579  0.55364744  1
  Nd3+  Nd54  1  0.74640398  0.36906749  0.55177586  1
  Nd3+  Nd55  1  -0.00183717  0.86406977  0.56364785  1
  Nd3+  Nd56  1  0.62051089  0.49078064  0.43910420  1
  Nd3+  Nd57  1  0.49770210  0.62160819  0.05344331  1
  Sm3+  Sm58  1  0.87676697  0.24886083  0.94618231  1
  Sm3+  Sm59  1  0.49804353  0.86730548  0.56226366  1
  Sm3+  Sm60  1  0.62186942  0.49703751  0.94662745  1
  Sm3+  Sm61  1  -0.00751704  0.86975441  0.05880901  1
  Sm3+  Sm62  1  0.37450230  0.74644423  0.93736814  1
  Sm3+  Sm63  1  0.12365799  0.24837664  0.95271923  1
  Bi2+  Bi64  1  -0.00017189  0.11367178  0.31524355  1
  Bi2+  Bi65  1  0.01837108  0.15210253  0.79647640  1
  Bi2+  Bi66  1  -0.02729236  0.34071483  0.26936287  1
  Bi2+  Bi67  1  -0.02587628  0.42708355  0.81844106  1
  Bi2+  Bi68  1  -0.00464490  0.64212587  0.29447560  1
  Bi2+  Bi69  1  0.00426106  0.58963891  0.76114801  1
  Bi2+  Bi70  1  -0.00723045  0.88775252  0.29449625  1
  Bi2+  Bi71  1  -0.00771574  0.86290640  0.80129636  1
  Bi2+  Bi72  1  0.24380993  0.09158776  0.29926767  1
  Bi2+  Bi73  1  0.26522097  0.16046685  0.79163711  1
  Bi2+  Bi74  1  0.25203304  0.34686340  0.28252279  1
  Bi2+  Bi75  1  0.23298247  0.35704640  0.80194887  1
  Bi2+  Bi76  1  0.24673892  0.60242590  0.28571348  1
  Bi2+  Bi77  1  0.19554957  0.62486637  0.78177120  1
  Bi2+  Bi78  1  0.27181300  0.91862398  0.24808435  1
  Bi2+  Bi79  1  0.22510528  0.90581997  0.78928460  1
  Bi2+  Bi80  1  0.50976641  0.15205276  0.30481243  1
  Bi2+  Bi81  1  0.45206878  0.12592298  0.77615974  1
  Bi2+  Bi82  1  0.49415793  0.39531631  0.29563819  1
  Bi2+  Bi83  1  0.52396737  0.34763894  0.80006916  1
  Bi2+  Bi84  1  0.47659605  0.67625012  0.29693403  1
  Bi2+  Bi85  1  0.54609750  0.60350665  0.78788066  1
  Bi2+  Bi86  1  0.52191771  0.86987243  0.29279855  1
  Bi2+  Bi87  1  0.48197608  0.85745344  0.80014042  1
  Bi2+  Bi88  1  0.77427859  0.12835239  0.29295476  1
  Bi2+  Bi89  1  0.75724585  0.20894619  0.78364696  1
  Bi2+  Bi90  1  0.77341400  0.35228521  0.26224514  1
  Bi2+  Bi91  1  0.78630076  0.40072236  0.80190241  1
  Bi2+  Bi92  1  0.74174582  0.65834513  0.28757079  1
  Bi2+  Bi93  1  0.75379046  0.58812129  0.74983648  1
  Bi2+  Bi94  1  0.71803913  0.85566592  0.27617306  1
  Bi2+  Bi95  1  0.72904527  0.86356968  0.79201971  1
  Bi2+  Bi96  1  0.13658594  0.04616143  0.20491871  1
  Bi2+  Bi97  1  0.14290601  0.04785118  0.72471962  1
  Bi2+  Bi98  1  0.12440759  0.24523309  0.21027173  1
  Bi2+  Bi99  1  0.11193405  0.27651089  0.71729219  1
  Bi2+  Bi100  1  0.12403582  0.43877194  0.21530523  1
  Bi2+  Bi101  1  0.14918959  0.47028437  0.71361542  1
  Bi2+  Bi102  1  0.13780575  0.78791675  0.21610549  1
  Bi2+  Bi103  1  0.15052784  0.78079987  0.71440899  1
  Bi2+  Bi104  1  0.42577559  0.02730219  0.21992340  1
  Bi2+  Bi105  1  0.33640459  -0.00115026  0.71031610  1
  Bi2+  Bi106  1  0.33537392  0.22581815  0.20808325  1
  Bi2+  Bi107  1  0.38123228  0.28036168  0.72175903  1
  Bi2+  Bi108  1  0.38972564  0.50170964  0.20279822  1
  Bi2+  Bi109  1  0.37870462  0.49543785  0.71401764  1
  Bi2+  Bi110  1  0.43948647  0.77618524  0.20213311  1
  Bi2+  Bi111  1  0.33479551  0.73339511  0.73146162  1
  Bi2+  Bi112  1  0.62585165  0.01106600  0.22666958  1
  Bi2+  Bi113  1  0.60128678  0.02264538  0.71716804  1
  Bi2+  Bi114  1  0.62775637  0.26611312  0.19585545  1
  Bi2+  Bi115  1  0.60564636  0.25383862  0.70974562  1
  Bi2+  Bi116  1  0.61640772  0.54632209  0.23228027  1
  Bi2+  Bi117  1  0.65151350  0.44228729  0.70623725  1
  Bi2+  Bi118  1  0.62902521  0.73373537  0.19787870  1
  Bi2+  Bi119  1  0.63329361  0.77719449  0.69956249  1
  Bi2+  Bi120  1  0.82462024  -0.00583529  0.21330834  1
  Bi2+  Bi121  1  0.88264765  0.00024249  0.70617149  1
  Bi2+  Bi122  1  0.87480641  0.21242543  0.20363291  1
  Bi2+  Bi123  1  0.91456995  0.27613868  0.72685879  1
  Bi2+  Bi124  1  0.85704989  0.50440073  0.21085378  1
  Bi2+  Bi125  1  0.87760318  0.46369388  0.70001863  1
  Bi2+  Bi126  1  0.89331693  0.77130216  0.19212286  1
  Bi2+  Bi127  1  0.89404799  0.74637600  0.69386386  1
  S2-  S128  1  -0.03585342  0.07641272  0.16836997  1
  S2-  S129  1  -0.01817970  0.10636863  0.66375747  1
  S2-  S130  1  -0.01275247  0.46578194  0.14817249  1
  S2-  S131  1  0.02315433  0.38995453  0.65131312  1
  S2-  S132  1  0.02971987  0.66475718  0.18871381  1
  S2-  S133  1  0.00250688  0.64491941  0.65504584  1
  S2-  S134  1  0.01392565  0.86527622  0.15904870  1
  S2-  S135  1  -0.01035866  0.87934598  0.66394753  1
  S2-  S136  1  0.27964931  0.08962626  0.15040399  1
  S2-  S137  1  0.25931707  0.12302598  0.65714984  1
  S2-  S138  1  0.33993989  0.37297695  0.14651208  1
  S2-  S139  1  0.28365314  0.38333073  0.65560127  1
  S2-  S140  1  0.22962714  0.55949405  0.17994365  1
  S2-  S141  1  0.32980414  0.61502885  0.64457899  1
  S2-  S142  1  0.25369757  0.77708175  0.14590735  1
  S2-  S143  1  0.27988406  0.84743115  0.65224437  1
  S2-  S144  1  0.48735722  0.22770323  0.15326683  1
  S2-  S145  1  0.51731848  0.12547160  0.65690048  1
  S2-  S146  1  0.54668320  0.42747170  0.17209695  1
  S2-  S147  1  0.49816312  0.45954525  0.64784512  1
  S2-  S148  1  0.41935986  0.62776425  0.14303910  1
  S2-  S149  1  0.52585291  0.66323252  0.68688315  1
  S2-  S150  1  0.51011960  0.96877427  0.13715807  1
  S2-  S151  1  0.52998954  0.88952623  0.65974138  1
  S2-  S152  1  0.66947478  0.12951086  0.14791660  1
  S2-  S153  1  0.74370437  0.07793418  0.67090249  1
  S2-  S154  1  0.76655564  0.38641618  0.15515900  1
  S2-  S155  1  0.72984149  0.32133498  0.64659476  1
  S2-  S156  1  0.83374733  0.62946564  0.14287446  1
  S2-  S157  1  0.75871215  0.65437621  0.65317632  1
  S2-  S158  1  0.78195366  0.87632301  0.14008633  1
  S2-  S159  1  0.77657414  0.87121098  0.67099119  1
  S2-  S160  1  0.10314574  -0.01287145  0.34672677  1
  S2-  S161  1  0.04139399  0.00467328  0.85651481  1
  S2-  S162  1  0.13245402  0.20965053  0.34300378  1
  S2-  S163  1  0.11099239  0.26127282  0.85446088  1
  S2-  S164  1  0.10810634  0.54076830  0.33704742  1
  S2-  S165  1  0.20778388  0.50170678  0.86110792  1
  S2-  S166  1  0.10446570  0.76421927  0.32817185  1
  S2-  S167  1  0.04532791  0.75020048  0.86195744  1
  S2-  S168  1  0.38633274  0.05638765  0.35440225  1
  S2-  S169  1  0.37746785  -0.03923148  0.83885528  1
  S2-  S170  1  0.38173664  0.27610321  0.33616269  1
  S2-  S171  1  0.38579442  0.34152540  0.86095992  1
  S2-  S172  1  0.33246320  0.49412862  0.33436934  1
  S2-  S173  1  0.40978294  0.53755328  0.81395135  1
  S2-  S174  1  0.32497049  0.72643367  0.33707815  1
  S2-  S175  1  0.38127100  0.74802324  0.83747311  1
  S2-  S176  1  0.63701103  0.08539434  0.36095269  1
  S2-  S177  1  0.60675918  -0.01862171  0.82416040  1
  S2-  S178  1  0.59740490  0.28787673  0.33387958  1
  S2-  S179  1  0.62116359  0.21512166  0.84355261  1
  S2-  S180  1  0.58952317  0.50046778  0.34029218  1
  S2-  S181  1  0.61012344  0.48171188  0.84857406  1
  S2-  S182  1  0.62017028  0.73378751  0.35344870  1
  S2-  S183  1  0.61301513  0.74740193  0.83655238  1
  S2-  S184  1  0.87601167  0.00208043  0.34484574  1
  S2-  S185  1  0.84267899  -0.02467632  0.80945285  1
  S2-  S186  1  0.88644886  0.23197475  0.35142848  1
  S2-  S187  1  0.88169042  0.17015784  0.85879722  1
  S2-  S188  1  0.86179297  0.55739286  0.33522882  1
  S2-  S189  1  0.89732217  0.57416835  0.85556268  1
  S2-  S190  1  0.90130255  0.77419083  0.33504286  1
  S2-  S191  1  0.85007647  0.76926731  0.81735096  1
  S2-  S192  1  -0.00215658  0.11546022  0.45894979  1
  S2-  S193  1  0.00181945  0.12714417  0.96351752  1
  S2-  S194  1  -0.00114481  0.36802946  0.44581789  1
  S2-  S195  1  0.00112806  0.37048315  0.95854917  1
  S2-  S196  1  -0.00221916  0.61763974  0.44771272  1
  S2-  S197  1  0.00263767  0.61630662  0.96463994  1
  S2-  S198  1  -0.00173017  0.86492141  0.45510750  1
  S2-  S199  1  -0.00318509  0.87597781  0.95564312  1
  S2-  S200  1  0.24855091  0.11458695  0.45418618  1
  S2-  S201  1  0.24541016  0.12357933  0.94848500  1
  S2-  S202  1  0.25094048  0.36469807  0.44782375  1
  S2-  S203  1  0.24629863  0.36952349  0.95956892  1
  S2-  S204  1  0.25172698  0.61758003  0.44959043  1
  S2-  S205  1  0.25352536  0.62782884  0.95808008  1
  S2-  S206  1  0.25024997  0.86749222  0.44607587  1
  S2-  S207  1  0.24672636  0.87023249  0.95201577  1
  S2-  S208  1  0.50016746  0.11418447  0.45690730  1
  S2-  S209  1  0.49878198  0.12228839  0.94993558  1
  S2-  S210  1  0.50039369  0.36369453  0.45339450  1
  S2-  S211  1  0.49991076  0.37701730  0.96297781  1
  S2-  S212  1  0.49944734  0.61468745  0.45217397  1
  S2-  S213  1  0.49777717  0.62171425  0.94626260  1
  S2-  S214  1  0.50140025  0.86993379  0.45489934  1
  S2-  S215  1  0.50077800  0.87049822  0.94733373  1
  S2-  S216  1  0.75241946  0.11612140  0.46424456  1
  S2-  S217  1  0.75124948  0.12562650  0.95107023  1
  S2-  S218  1  0.74667398  0.36561381  0.44340126  1
  S2-  S219  1  0.75000216  0.37273192  0.95008518  1
  S2-  S220  1  0.74580702  0.61455505  0.45042738  1
  S2-  S221  1  0.74629935  0.62025262  0.94804438  1
  S2-  S222  1  0.74733506  0.86688519  0.45682160  1
  S2-  S223  1  0.75527304  0.87334677  0.93571164  1
  S2-  S224  1  0.12163451  -0.00588300  0.05176448  1
  S2-  S225  1  0.12375940  -0.01117172  0.55531805  1
  S2-  S226  1  0.12446714  0.24969433  0.05890385  1
  S2-  S227  1  0.12279711  0.24336927  0.55125690  1
  S2-  S228  1  0.12799457  0.50289323  0.05476810  1
  S2-  S229  1  0.12442228  0.49403032  0.54353713  1
  S2-  S230  1  0.11771604  0.74629541  0.05353665  1
  S2-  S231  1  0.12355758  0.74210593  0.54256954  1
  S2-  S232  1  0.37194487  -0.00437345  0.04384040  1
  S2-  S233  1  0.37570351  -0.01009150  0.55178518  1
  S2-  S234  1  0.37256520  0.24121588  0.04701643  1
  S2-  S235  1  0.37337168  0.24187752  0.54693195  1
  S2-  S236  1  0.37323109  0.49950435  0.04263427  1
  S2-  S237  1  0.37318768  0.49085680  0.54006853  1
  S2-  S238  1  0.37929862  0.75329446  0.04138986  1
  S2-  S239  1  0.37932567  0.74277926  0.54340133  1
  S2-  S240  1  0.63110636  -0.00414501  0.03409624  1
  S2-  S241  1  0.62404314  -0.00783482  0.55216492  1
  S2-  S242  1  0.62269337  0.24975503  0.04804891  1
  S2-  S243  1  0.62245825  0.24239584  0.54230572  1
  S2-  S244  1  0.62455931  0.50229135  0.05241878  1
  S2-  S245  1  0.62277707  0.49341342  0.54685643  1
  S2-  S246  1  0.62537058  0.74753048  0.04422615  1
  S2-  S247  1  0.61672123  0.73857137  0.55687442  1
  S2-  S248  1  0.87702361  -0.00032146  0.04424893  1
  S2-  S249  1  0.87218994  -0.00890819  0.55461211  1
  S2-  S250  1  0.87437440  0.24961445  0.05212727  1
  S2-  S251  1  0.87471949  0.24557866  0.55481209  1
  S2-  S252  1  0.87025816  0.49583454  0.04483617  1
  S2-  S253  1  0.87265348  0.49147305  0.54036812  1
  S2-  S254  1  0.87566866  0.74685009  0.03593862  1
  S2-  S255  1  0.87217073  0.74261973  0.54391297  1
