# generated using pymatgen
data_La9Ce10Pr6Nd4Sm3(BiS2)32
_symmetry_space_group_name_H-M   'P 1'
_cell_length_a   16.19352831
_cell_length_b   16.22937242
_cell_length_c   27.10771544
_cell_angle_alpha   90.07977641
_cell_angle_beta   90.13994475
_cell_angle_gamma   90.00503123
_symmetry_Int_Tables_number   1
_chemical_formula_structural   La9Ce10Pr6Nd4Sm3(BiS2)32
_chemical_formula_sum   'La18 Ce20 Pr12 Nd8 Sm6 Bi64 S128'
_cell_volume   7124.17223961
_cell_formula_units_Z   2
loop_
 _symmetry_equiv_pos_site_id
 _symmetry_equiv_pos_as_xyz
  1  'x, y, z'
loop_
 _atom_type_symbol
 _atom_type_oxidation_number
  La3+  3.0
  Ce3+  3.0
  Pr3+  3.0
  Nd3+  3.0
  Sm3+  3.0
  Bi2+  2.0
  S2-  -2.0
loop_
 _atom_site_type_symbol
 _atom_site_label
 _atom_site_symmetry_multiplicity
 _atom_site_fract_x
 _atom_site_fract_y
 _atom_site_fract_z
 _atom_site_occupancy
  La3+  La0  1  0.23059218  0.10708394  0.07694285  1
  La3+  La1  1  0.74575568  0.88804468  0.57088367  1
  La3+  La2  1  0.35519766  0.23931970  0.91119423  1
  La3+  La3  1  0.87663658  0.50962751  0.42153819  1
  La3+  La4  1  0.87302318  0.75808018  0.43772979  1
  La3+  La5  1  0.50695668  0.38777749  0.58088942  1
  La3+  La6  1  0.36400157  0.75259982  0.43847987  1
  La3+  La7  1  0.85385268  0.00206612  0.90523363  1
  La3+  La8  1  -0.01548038  0.86643951  0.05469330  1
  La3+  La9  1  0.24707302  0.13029613  0.57088645  1
  La3+  La10  1  0.36668504  0.50188169  0.43942141  1
  La3+  La11  1  0.10414750  0.74082173  0.91668689  1
  La3+  La12  1  0.60789286  0.24893120  0.41550591  1
  La3+  La13  1  0.24023178  0.36571406  0.06759957  1
  La3+  La14  1  0.73557899  0.36900588  0.07339460  1
  La3+  La15  1  -0.01200240  0.62341244  0.58385641  1
  La3+  La16  1  0.74190732  0.62768237  0.11125896  1
  La3+  La17  1  0.36802071  0.73059584  0.92465225  1
  Ce3+  Ce18  1  0.61484096  0.24124950  0.94444426  1
  Ce3+  Ce19  1  0.36102981  0.25490806  0.43785255  1
  Ce3+  Ce20  1  0.36160180  -0.00906623  0.93375814  1
  Ce3+  Ce21  1  0.11377618  0.23959446  0.94647943  1
  Ce3+  Ce22  1  0.24259664  0.87860773  0.56332294  1
  Ce3+  Ce23  1  0.61969164  0.75539620  0.44279021  1
  Ce3+  Ce24  1  0.61879478  0.74205351  0.94615116  1
  Ce3+  Ce25  1  0.23601343  0.86482066  0.05381371  1
  Ce3+  Ce26  1  0.49371090  0.62029423  0.06653306  1
  Ce3+  Ce27  1  -0.01518769  0.11714916  0.05802951  1
  Ce3+  Ce28  1  0.61413191  -0.00615194  0.94067075  1
  Ce3+  Ce29  1  0.73903083  0.87065527  0.05777314  1
  Ce3+  Ce30  1  0.87912479  0.00017309  0.43200839  1
  Ce3+  Ce31  1  0.73657727  0.12120234  0.07044647  1
  Ce3+  Ce32  1  0.49181221  0.63066010  0.55783161  1
  Ce3+  Ce33  1  0.86089157  0.49077554  0.94863032  1
  Ce3+  Ce34  1  0.49160914  0.87910019  0.55156809  1
  Ce3+  Ce35  1  -0.00711408  0.88300787  0.58265286  1
  Ce3+  Ce36  1  0.11452087  0.50616715  0.44822314  1
  Ce3+  Ce37  1  0.48352181  0.11777225  0.05295517  1
  Pr3+  Pr38  1  0.11480664  -0.00682979  0.93298353  1
  Pr3+  Pr39  1  0.48526443  0.36705764  0.06104887  1
  Pr3+  Pr40  1  0.48822544  0.86684910  0.05131932  1
  Pr3+  Pr41  1  0.61954527  0.50163804  0.42704345  1
  Pr3+  Pr42  1  0.11331247  0.48785244  0.93795624  1
  Pr3+  Pr43  1  0.49448888  0.13015043  0.55756931  1
  Pr3+  Pr44  1  0.74286360  0.13097886  0.55406087  1
  Pr3+  Pr45  1  0.86929561  0.25360042  0.43331125  1
  Pr3+  Pr46  1  -0.00923075  0.37651706  0.56714487  1
  Pr3+  Pr47  1  0.12176560  0.00374798  0.44007512  1
  Pr3+  Pr48  1  0.11357375  0.25461044  0.43271534  1
  Pr3+  Pr49  1  0.61798437  0.00291459  0.43178406  1
  Nd3+  Nd50  1  -0.01457733  0.37078618  0.06176093  1
  Nd3+  Nd51  1  -0.00797714  0.12914871  0.56546112  1
  Nd3+  Nd52  1  0.74471155  0.62796496  0.55724497  1
  Nd3+  Nd53  1  0.61536745  0.49088933  0.94255037  1
  Nd3+  Nd54  1  0.24484291  0.37861867  0.56369754  1
  Nd3+  Nd55  1  0.23829768  0.62100903  0.05349975  1
  Nd3+  Nd56  1  -0.01046772  0.61979107  0.05766081  1
  Nd3+  Nd57  1  0.24289061  0.62748215  0.57574076  1
  Sm3+  Sm58  1  0.74372948  0.38046826  0.54664857  1
  Sm3+  Sm59  1  0.36628143  0.49073821  0.94323981  1
  Sm3+  Sm60  1  0.36055994  0.00631823  0.43839726  1
  Sm3+  Sm61  1  0.86135223  0.73979437  0.93895151  1
  Sm3+  Sm62  1  0.11447545  0.75322782  0.45728278  1
  Sm3+  Sm63  1  0.86226164  0.24223610  0.94034153  1
  Bi2+  Bi64  1  -0.02461821  0.12830136  0.28414588  1
  Bi2+  Bi65  1  0.01355464  0.14387115  0.76396514  1
  Bi2+  Bi66  1  0.05369811  0.37497007  0.28114755  1
  Bi2+  Bi67  1  -0.06090279  0.30576861  0.81279954  1
  Bi2+  Bi68  1  0.01444252  0.62542292  0.29692603  1
  Bi2+  Bi69  1  -0.01113654  0.49661527  0.78536526  1
  Bi2+  Bi70  1  -0.00100712  0.88098200  0.29765008  1
  Bi2+  Bi71  1  0.01365848  0.84803041  0.78556825  1
  Bi2+  Bi72  1  0.24946962  0.11927951  0.28373424  1
  Bi2+  Bi73  1  0.21687392  0.10267406  0.79335002  1
  Bi2+  Bi74  1  0.24927483  0.36979439  0.29159549  1
  Bi2+  Bi75  1  0.13649135  0.36907159  0.80140900  1
  Bi2+  Bi76  1  0.24662173  0.56899041  0.30885932  1
  Bi2+  Bi77  1  0.26610314  0.63442707  0.79503734  1
  Bi2+  Bi78  1  0.29582958  0.87611064  0.29280794  1
  Bi2+  Bi79  1  0.33569430  0.93712912  0.79506321  1
  Bi2+  Bi80  1  0.45759611  0.12645299  0.28614317  1
  Bi2+  Bi81  1  0.51604218  0.11480572  0.76052288  1
  Bi2+  Bi82  1  0.51453143  0.38075140  0.29516677  1
  Bi2+  Bi83  1  0.53744089  0.34838021  0.78085906  1
  Bi2+  Bi84  1  0.50135920  0.71545890  0.27229851  1
  Bi2+  Bi85  1  0.50810807  0.64563931  0.78766324  1
  Bi2+  Bi86  1  0.54308390  0.95457376  0.30787517  1
  Bi2+  Bi87  1  0.53107334  0.93297841  0.80381247  1
  Bi2+  Bi88  1  0.77130211  0.10575134  0.28586218  1
  Bi2+  Bi89  1  0.72574594  0.13723436  0.78739779  1
  Bi2+  Bi90  1  0.82284274  0.31191542  0.29402173  1
  Bi2+  Bi91  1  0.75810453  0.38705513  0.80763046  1
  Bi2+  Bi92  1  0.73510107  0.62190326  0.30404523  1
  Bi2+  Bi93  1  0.79630247  0.67338912  0.81357760  1
  Bi2+  Bi94  1  0.73298348  0.89436166  0.29120671  1
  Bi2+  Bi95  1  0.70306614  0.83768888  0.77775938  1
  Bi2+  Bi96  1  0.11759587  -0.03947393  0.20108341  1
  Bi2+  Bi97  1  0.12163818  -0.00011009  0.71537886  1
  Bi2+  Bi98  1  0.11843586  0.21499037  0.22237995  1
  Bi2+  Bi99  1  0.09903962  0.27455099  0.69115216  1
  Bi2+  Bi100  1  0.16851417  0.48820575  0.21168718  1
  Bi2+  Bi101  1  0.12667028  0.47584948  0.70269351  1
  Bi2+  Bi102  1  0.15266357  0.75061593  0.26233048  1
  Bi2+  Bi103  1  0.19679758  0.76138682  0.70423523  1
  Bi2+  Bi104  1  0.41441068  -0.02881933  0.22053585  1
  Bi2+  Bi105  1  0.36914284  0.03911517  0.69507606  1
  Bi2+  Bi106  1  0.39383966  0.27377371  0.19014772  1
  Bi2+  Bi107  1  0.33760421  0.29814388  0.72695046  1
  Bi2+  Bi108  1  0.37028275  0.60091733  0.21901343  1
  Bi2+  Bi109  1  0.40432654  0.52780132  0.70292435  1
  Bi2+  Bi110  1  0.31214795  0.77648905  0.18837938  1
  Bi2+  Bi111  1  0.47014701  0.77842787  0.70862065  1
  Bi2+  Bi112  1  0.69455330  0.01122981  0.18678980  1
  Bi2+  Bi113  1  0.62513255  -0.01906080  0.70489792  1
  Bi2+  Bi114  1  0.61667377  0.18070495  0.21575266  1
  Bi2+  Bi115  1  0.71921067  0.26541011  0.70083081  1
  Bi2+  Bi116  1  0.60146391  0.49259121  0.21620384  1
  Bi2+  Bi117  1  0.67200592  0.55383948  0.75011557  1
  Bi2+  Bi118  1  0.61484852  0.83058619  0.20748160  1
  Bi2+  Bi119  1  0.65249716  0.71984775  0.68917782  1
  Bi2+  Bi120  1  0.89240913  -0.02914400  0.21071487  1
  Bi2+  Bi121  1  0.86395661  -0.00763552  0.71040815  1
  Bi2+  Bi122  1  0.87633986  0.16452171  0.18604563  1
  Bi2+  Bi123  1  0.91009647  0.24055350  0.67862714  1
  Bi2+  Bi124  1  0.89758017  0.48982460  0.20748783  1
  Bi2+  Bi125  1  0.83023765  0.43432838  0.70155944  1
  Bi2+  Bi126  1  0.91643841  0.75976059  0.19396398  1
  Bi2+  Bi127  1  0.86805546  0.72740360  0.71628619  1
  S2-  S128  1  0.07277495  0.09910779  0.14229561  1
  S2-  S129  1  -0.00105169  0.02629481  0.64712156  1
  S2-  S130  1  -0.02607155  0.37411773  0.16175027  1
  S2-  S131  1  -0.02156225  0.47638678  0.64930172  1
  S2-  S132  1  -0.02062722  0.61956153  0.15807762  1
  S2-  S133  1  0.12781036  0.62748002  0.65470573  1
  S2-  S134  1  0.05363944  0.83346986  0.14597591  1
  S2-  S135  1  0.05342055  0.81979667  0.67914530  1
  S2-  S136  1  0.26623112  0.18683675  0.16667118  1
  S2-  S137  1  0.24989853  0.18167436  0.66776081  1
  S2-  S138  1  0.29965177  0.39786540  0.16084098  1
  S2-  S139  1  0.28087532  0.42225078  0.65945859  1
  S2-  S140  1  0.22709218  0.63180766  0.15308159  1
  S2-  S141  1  0.34119355  0.66301446  0.66036485  1
  S2-  S142  1  0.24176396  0.95723559  0.13856619  1
  S2-  S143  1  0.24804226  0.91409072  0.66039258  1
  S2-  S144  1  0.48988821  0.13805523  0.15121541  1
  S2-  S145  1  0.48287231  0.14013838  0.65909599  1
  S2-  S146  1  0.53209316  0.37722840  0.16037842  1
  S2-  S147  1  0.47088133  0.34879016  0.68252075  1
  S2-  S148  1  0.57945017  0.62032148  0.15321262  1
  S2-  S149  1  0.52102123  0.53994779  0.63871759  1
  S2-  S150  1  0.46700906  0.84611415  0.15120502  1
  S2-  S151  1  0.48472394  0.91254954  0.64807760  1
  S2-  S152  1  0.73848146  0.23930499  0.14643265  1
  S2-  S153  1  0.74134244  0.03830453  0.64035851  1
  S2-  S154  1  0.74893665  0.46716613  0.15845021  1
  S2-  S155  1  0.68706093  0.39800005  0.63964011  1
  S2-  S156  1  0.79705671  0.64006074  0.21621735  1
  S2-  S157  1  0.83779371  0.62832561  0.64283681  1
  S2-  S158  1  0.76309873  0.79805766  0.14595702  1
  S2-  S159  1  0.85529444  0.86475536  0.65043694  1
  S2-  S160  1  0.01338357  0.01400281  0.36021494  1
  S2-  S161  1  0.11719082  -0.03414444  0.83241850  1
  S2-  S162  1  0.23875705  0.23895304  0.36037556  1
  S2-  S163  1  0.19391282  0.23571364  0.85953002  1
  S2-  S164  1  0.03236127  0.49997703  0.36013131  1
  S2-  S165  1  0.13891954  0.53897921  0.84215105  1
  S2-  S166  1  0.08333153  0.75714910  0.35931848  1
  S2-  S167  1  0.15431356  0.74570565  0.81621010  1
  S2-  S168  1  0.24927362  0.00672178  0.36048459  1
  S2-  S169  1  0.35717078  0.09147085  0.85276823  1
  S2-  S170  1  0.45839315  0.26020325  0.35566540  1
  S2-  S171  1  0.39298335  0.33300521  0.82413873  1
  S2-  S172  1  0.38035111  0.46748718  0.34013658  1
  S2-  S173  1  0.38621521  0.57375536  0.85846983  1
  S2-  S174  1  0.38046534  0.74000838  0.33784190  1
  S2-  S175  1  0.35710957  0.77645993  0.82635047  1
  S2-  S176  1  0.61818566  0.10409023  0.34941703  1
  S2-  S177  1  0.69528723  0.00861862  0.85525513  1
  S2-  S178  1  0.66836391  0.30854483  0.32280162  1
  S2-  S179  1  0.61978234  0.24096891  0.84591973  1
  S2-  S180  1  0.58862536  0.52525284  0.32637507  1
  S2-  S181  1  0.61194629  0.47354438  0.84195610  1
  S2-  S182  1  0.63480758  0.74927922  0.34465246  1
  S2-  S183  1  0.60974218  0.73177059  0.84844478  1
  S2-  S184  1  0.85948123  -0.12305724  0.35991000  1
  S2-  S185  1  0.89252841  -0.05541820  0.80871397  1
  S2-  S186  1  0.98799203  0.26121886  0.35752306  1
  S2-  S187  1  0.85550263  0.15761897  0.85356982  1
  S2-  S188  1  0.81127883  0.46485001  0.32617509  1
  S2-  S189  1  0.85619504  0.51505661  0.85080581  1
  S2-  S190  1  0.87745464  0.65472709  0.35393317  1
  S2-  S191  1  0.95196606  0.73518837  0.85368447  1
  S2-  S192  1  -0.00565987  0.13138941  0.46055795  1
  S2-  S193  1  -0.01349263  0.11575121  0.95012178  1
  S2-  S194  1  -0.00788105  0.37897293  0.46060532  1
  S2-  S195  1  -0.01270643  0.36499575  0.95352630  1
  S2-  S196  1  -0.00397329  0.63029068  0.46834714  1
  S2-  S197  1  -0.01165643  0.61265293  0.95144862  1
  S2-  S198  1  -0.00031537  0.87949065  0.46723367  1
  S2-  S199  1  -0.02025516  0.87592943  0.94556632  1
  S2-  S200  1  0.24159440  0.13002687  0.46357456  1
  S2-  S201  1  0.23678337  0.11528741  0.96055424  1
  S2-  S202  1  0.23716251  0.38120080  0.45624998  1
  S2-  S203  1  0.24314888  0.36967676  0.95627418  1
  S2-  S204  1  0.23984191  0.62959466  0.46055823  1
  S2-  S205  1  0.23665571  0.61498070  0.94853270  1
  S2-  S206  1  0.24124103  0.87514439  0.45661576  1
  S2-  S207  1  0.23814393  0.86276317  0.94340332  1
  S2-  S208  1  0.48489265  0.12388859  0.45173650  1
  S2-  S209  1  0.48920831  0.11835101  0.94704942  1
  S2-  S210  1  0.49466683  0.38085643  0.45552032  1
  S2-  S211  1  0.48566876  0.36669186  0.95166339  1
  S2-  S212  1  0.49373047  0.62895137  0.44826752  1
  S2-  S213  1  0.49558709  0.61549343  0.95928764  1
  S2-  S214  1  0.48717572  0.88197014  0.44496397  1
  S2-  S215  1  0.48897028  0.86638447  0.94441296  1
  S2-  S216  1  0.74679412  0.12792448  0.44790700  1
  S2-  S217  1  0.74014508  0.11928509  0.96181072  1
  S2-  S218  1  0.74150942  0.37476700  0.44352203  1
  S2-  S219  1  0.73919607  0.36459309  0.95816224  1
  S2-  S220  1  0.74132209  0.62818655  0.45046046  1
  S2-  S221  1  0.73876061  0.61598527  0.94968612  1
  S2-  S222  1  0.73889547  0.88122038  0.45919096  1
  S2-  S223  1  0.74386969  0.86851040  0.95011115  1
  S2-  S224  1  0.10890717  -0.01220787  0.03813921  1
  S2-  S225  1  0.12273935  0.00658825  0.54941773  1
  S2-  S226  1  0.11049923  0.24626185  0.05180743  1
  S2-  S227  1  0.11779326  0.25427861  0.54896795  1
  S2-  S228  1  0.11425434  0.49274679  0.04811789  1
  S2-  S229  1  0.12060188  0.50061944  0.55228161  1
  S2-  S230  1  0.11275300  0.74089947  0.03177468  1
  S2-  S231  1  0.11878131  0.75562124  0.55851464  1
  S2-  S232  1  0.36389803  -0.00973074  0.04016262  1
  S2-  S233  1  0.36759519  0.00401464  0.54374497  1
  S2-  S234  1  0.36100394  0.24131746  0.04586635  1
  S2-  S235  1  0.37269870  0.25961021  0.55035775  1
  S2-  S236  1  0.36458621  0.49825019  0.04852578  1
  S2-  S237  1  0.36721141  0.50566061  0.54755186  1
  S2-  S238  1  0.36440470  0.74059222  0.03908740  1
  S2-  S239  1  0.36656964  0.75552244  0.54672648  1
  S2-  S240  1  0.61176650  -0.00612212  0.04800664  1
  S2-  S241  1  0.61448538  0.00494920  0.53961212  1
  S2-  S242  1  0.60837922  0.24231337  0.04846510  1
  S2-  S243  1  0.61855019  0.25529762  0.54428480  1
  S2-  S244  1  0.61193224  0.49203026  0.04844317  1
  S2-  S245  1  0.62237696  0.50669184  0.53423518  1
  S2-  S246  1  0.61744353  0.74343454  0.05047663  1
  S2-  S247  1  0.61963044  0.75576511  0.54951210  1
  S2-  S248  1  0.86102583  -0.00435846  0.05563850  1
  S2-  S249  1  0.87109578  0.00854370  0.54034750  1
  S2-  S250  1  0.86569147  0.24523688  0.04478795  1
  S2-  S251  1  0.86635499  0.25524471  0.54224193  1
  S2-  S252  1  0.86267119  0.49829613  0.05344076  1
  S2-  S253  1  0.86386640  0.50024732  0.53775619  1
  S2-  S254  1  0.86176180  0.73689285  0.04311369  1
  S2-  S255  1  0.86811264  0.75675767  0.54559359  1
