# generated using pymatgen
data_La9Ce10Pr6Nd4Sm3(BiS2)32
_symmetry_space_group_name_H-M   'P 1'
_cell_length_a   16.18326026
_cell_length_b   16.19089178
_cell_length_c   27.17040903
_cell_angle_alpha   89.88782538
_cell_angle_beta   89.88451114
_cell_angle_gamma   89.96379132
_symmetry_Int_Tables_number   1
_chemical_formula_structural   La9Ce10Pr6Nd4Sm3(BiS2)32
_chemical_formula_sum   'La18 Ce20 Pr12 Nd8 Sm6 Bi64 S128'
_cell_volume   7119.19952256
_cell_formula_units_Z   2
loop_
 _symmetry_equiv_pos_site_id
 _symmetry_equiv_pos_as_xyz
  1  'x, y, z'
loop_
 _atom_type_symbol
 _atom_type_oxidation_number
  La3+  3.0
  Ce3+  3.0
  Pr3+  3.0
  Nd3+  3.0
  Sm3+  3.0
  Bi2+  2.0
  S2-  -2.0
loop_
 _atom_site_type_symbol
 _atom_site_label
 _atom_site_symmetry_multiplicity
 _atom_site_fract_x
 _atom_site_fract_y
 _atom_site_fract_z
 _atom_site_occupancy
  La3+  La0  1  0.48518164  0.86715924  0.56936933  1
  La3+  La1  1  0.00054836  0.11033531  0.07068353  1
  La3+  La2  1  0.23918364  0.61875051  0.55434799  1
  La3+  La3  1  0.13038973  0.74406211  0.92515369  1
  La3+  La4  1  0.86408932  0.25289251  0.42789217  1
  La3+  La5  1  0.24809364  0.12958349  0.57248906  1
  La3+  La6  1  0.61518428  0.74127594  0.43581211  1
  La3+  La7  1  0.10900851  0.49475893  0.41370914  1
  La3+  La8  1  0.36404703  0.75358514  0.42236949  1
  La3+  La9  1  0.86736694  -0.00036700  0.90853325  1
  La3+  La10  1  0.62794249  0.73698238  0.93234643  1
  La3+  La11  1  0.37481838  -0.01120462  0.93826641  1
  La3+  La12  1  0.74437459  0.11853482  0.11134450  1
  La3+  La13  1  0.11267483  0.74650850  0.42550624  1
  La3+  La14  1  0.86842903  -0.00719198  0.43998352  1
  La3+  La15  1  0.48779453  0.37060038  0.57004289  1
  La3+  La16  1  0.36410758  0.00170562  0.42574919  1
  La3+  La17  1  0.61941790  -0.01168834  0.41954565  1
  Ce3+  Ce18  1  0.24735589  0.36653132  0.06429284  1
  Ce3+  Ce19  1  0.11814426  -0.00107693  0.45153830  1
  Ce3+  Ce20  1  0.48736747  0.61793997  0.56274162  1
  Ce3+  Ce21  1  0.87384000  0.49260422  0.94560235  1
  Ce3+  Ce22  1  -0.01185242  0.11971625  0.56117249  1
  Ce3+  Ce23  1  0.73971709  0.36907035  0.55829432  1
  Ce3+  Ce24  1  -0.00270211  0.36546459  0.05698658  1
  Ce3+  Ce25  1  0.62731654  -0.02023458  0.93601388  1
  Ce3+  Ce26  1  0.50171256  0.11018654  0.05881382  1
  Ce3+  Ce27  1  0.61146703  0.49976595  0.43970652  1
  Ce3+  Ce28  1  0.24826909  0.11429197  0.06223980  1
  Ce3+  Ce29  1  0.49459932  0.61614299  0.06227805  1
  Ce3+  Ce30  1  0.24007133  0.37012207  0.54974511  1
  Ce3+  Ce31  1  0.12265829  0.23784776  0.94184413  1
  Ce3+  Ce32  1  0.36901187  0.24975652  0.42802380  1
  Ce3+  Ce33  1  -0.00496292  0.86542549  0.04395764  1
  Ce3+  Ce34  1  0.62893115  0.23710267  0.94801789  1
  Ce3+  Ce35  1  0.61644938  0.25377503  0.43346707  1
  Ce3+  Ce36  1  0.49423778  0.86176851  0.06362665  1
  Ce3+  Ce37  1  0.24300400  0.87079619  0.56022975  1
  Pr3+  Pr38  1  0.74854544  0.61993083  0.06896309  1
  Pr3+  Pr39  1  0.37731164  0.24097765  0.94046797  1
  Pr3+  Pr40  1  0.73208720  0.87409163  0.57399776  1
  Pr3+  Pr41  1  0.73887532  0.12090280  0.55663157  1
  Pr3+  Pr42  1  0.23841494  0.61176006  0.09008530  1
  Pr3+  Pr43  1  0.12169422  0.00070991  0.93228710  1
  Pr3+  Pr44  1  -0.01112215  0.37080797  0.56826517  1
  Pr3+  Pr45  1  0.74986133  0.86591957  0.06105791  1
  Pr3+  Pr46  1  -0.00530803  0.61583257  0.57231659  1
  Pr3+  Pr47  1  0.86644412  0.74566223  0.45205340  1
  Pr3+  Pr48  1  0.49656527  0.36473300  0.06300863  1
  Pr3+  Pr49  1  -0.01101715  0.86665454  0.57381904  1
  Nd3+  Nd50  1  0.37046409  0.48962044  0.94559049  1
  Nd3+  Nd51  1  0.36717914  0.73608953  0.94538761  1
  Nd3+  Nd52  1  0.74956638  0.36564161  0.06714376  1
  Nd3+  Nd53  1  0.12458478  0.49050300  0.94074523  1
  Nd3+  Nd54  1  0.73889131  0.62022678  0.56794219  1
  Nd3+  Nd55  1  0.88171153  0.73160433  0.91796938  1
  Nd3+  Nd56  1  0.11419673  0.24584453  0.44242994  1
  Nd3+  Nd57  1  0.86962075  0.23928280  0.94361448  1
  Sm3+  Sm58  1  -0.00093600  0.61845422  0.05809850  1
  Sm3+  Sm59  1  0.36165521  0.50207693  0.42575175  1
  Sm3+  Sm60  1  0.62483995  0.49324334  0.94336554  1
  Sm3+  Sm61  1  0.86969238  0.49968415  0.44500853  1
  Sm3+  Sm62  1  0.24260173  0.86322115  0.06145175  1
  Sm3+  Sm63  1  0.49252864  0.11915187  0.54537561  1
  Bi2+  Bi64  1  0.05040272  0.12150205  0.29783242  1
  Bi2+  Bi65  1  0.01487314  0.18187799  0.78285008  1
  Bi2+  Bi66  1  0.00046719  0.34776611  0.29696149  1
  Bi2+  Bi67  1  -0.05075613  0.37027400  0.80268809  1
  Bi2+  Bi68  1  0.03936779  0.59014841  0.25054972  1
  Bi2+  Bi69  1  0.00927953  0.56421937  0.79754329  1
  Bi2+  Bi70  1  -0.01199891  0.85451142  0.25156345  1
  Bi2+  Bi71  1  0.03626298  0.84694590  0.77761184  1
  Bi2+  Bi72  1  0.26138374  0.09731219  0.26893673  1
  Bi2+  Bi73  1  0.25236691  0.18648722  0.77502683  1
  Bi2+  Bi74  1  0.33697858  0.35961407  0.28990136  1
  Bi2+  Bi75  1  0.21568853  0.36436238  0.73430058  1
  Bi2+  Bi76  1  0.24769964  0.62669658  0.29492556  1
  Bi2+  Bi77  1  0.25128367  0.59838584  0.80162900  1
  Bi2+  Bi78  1  0.25046208  0.90511799  0.29342099  1
  Bi2+  Bi79  1  0.28252889  0.88694042  0.79501099  1
  Bi2+  Bi80  1  0.49048071  0.19063527  0.29122575  1
  Bi2+  Bi81  1  0.52737503  0.18060138  0.74667290  1
  Bi2+  Bi82  1  0.50610100  0.37512883  0.34652904  1
  Bi2+  Bi83  1  0.48143256  0.35260209  0.79896637  1
  Bi2+  Bi84  1  0.52684615  0.57415070  0.28661316  1
  Bi2+  Bi85  1  0.49917504  0.61594314  0.79018886  1
  Bi2+  Bi86  1  0.50122675  0.77298847  0.29820269  1
  Bi2+  Bi87  1  0.48892321  0.91322999  0.78384476  1
  Bi2+  Bi88  1  0.74421653  0.12837760  0.31876906  1
  Bi2+  Bi89  1  0.74916752  0.16228218  0.79573970  1
  Bi2+  Bi90  1  0.77121038  0.44341185  0.28160808  1
  Bi2+  Bi91  1  0.74858313  0.36166464  0.80107255  1
  Bi2+  Bi92  1  0.79186213  0.63305697  0.30651940  1
  Bi2+  Bi93  1  0.73742592  0.55549748  0.79154902  1
  Bi2+  Bi94  1  0.77092216  0.83725145  0.29464337  1
  Bi2+  Bi95  1  0.73684449  0.89007436  0.79372005  1
  Bi2+  Bi96  1  0.10935017  -0.01006787  0.21227302  1
  Bi2+  Bi97  1  0.13533031  0.05470589  0.72386384  1
  Bi2+  Bi98  1  0.16085760  0.24107466  0.21123238  1
  Bi2+  Bi99  1  0.03359286  0.32067378  0.69863580  1
  Bi2+  Bi100  1  0.14484246  0.43012641  0.23126425  1
  Bi2+  Bi101  1  0.11355565  0.59561270  0.70322691  1
  Bi2+  Bi102  1  0.14783258  0.77477135  0.18847104  1
  Bi2+  Bi103  1  0.19013052  0.86377084  0.69618304  1
  Bi2+  Bi104  1  0.40893058  0.10939542  0.19273669  1
  Bi2+  Bi105  1  0.42417279  0.01262066  0.68994591  1
  Bi2+  Bi106  1  0.34452143  0.29057117  0.17725825  1
  Bi2+  Bi107  1  0.40440717  0.31057166  0.69264225  1
  Bi2+  Bi108  1  0.40804846  0.48571623  0.21008184  1
  Bi2+  Bi109  1  0.33936363  0.50621288  0.70444969  1
  Bi2+  Bi110  1  0.40593830  0.77433841  0.20355892  1
  Bi2+  Bi111  1  0.40826738  0.75404557  0.73403153  1
  Bi2+  Bi112  1  0.61293115  -0.00973791  0.21992076  1
  Bi2+  Bi113  1  0.62915135  0.02072016  0.71322827  1
  Bi2+  Bi114  1  0.60949071  0.35100715  0.24632887  1
  Bi2+  Bi115  1  0.65546116  0.30031566  0.68557869  1
  Bi2+  Bi116  1  0.69995191  0.49820325  0.17759454  1
  Bi2+  Bi117  1  0.58571012  0.46742196  0.72706626  1
  Bi2+  Bi118  1  0.65973838  0.67765540  0.21975945  1
  Bi2+  Bi119  1  0.60182792  0.73255525  0.71627811  1
  Bi2+  Bi120  1  0.86438614  -0.00477002  0.21646917  1
  Bi2+  Bi121  1  0.89013741  -0.00126497  0.70565942  1
  Bi2+  Bi122  1  0.88140981  0.27014535  0.21450464  1
  Bi2+  Bi123  1  0.84172137  0.24099774  0.70393098  1
  Bi2+  Bi124  1  0.89264340  0.50574618  0.19122007  1
  Bi2+  Bi125  1  0.87503653  0.49204307  0.71804473  1
  Bi2+  Bi126  1  0.88522289  0.70519921  0.20451343  1
  Bi2+  Bi127  1  0.85123340  0.72971003  0.71957111  1
  S2-  S128  1  -0.08972928  0.12143624  0.15861505  1
  S2-  S129  1  0.00009366  0.10989928  0.65840128  1
  S2-  S130  1  -0.01251771  0.36357893  0.15518964  1
  S2-  S131  1  0.01721643  0.48449182  0.64450665  1
  S2-  S132  1  0.08309852  0.63261358  0.14358842  1
  S2-  S133  1  -0.01906342  0.69752759  0.66440144  1
  S2-  S134  1  0.01775525  0.87834242  0.14238541  1
  S2-  S135  1  0.02495325  0.90173999  0.67162607  1
  S2-  S136  1  0.14488169  0.10811465  0.14155389  1
  S2-  S137  1  0.27020330  0.08606435  0.67123153  1
  S2-  S138  1  0.24185016  0.46053910  0.14797060  1
  S2-  S139  1  0.25942914  0.29094997  0.63640058  1
  S2-  S140  1  0.26956175  0.66291230  0.19088175  1
  S2-  S141  1  0.25664997  0.63790611  0.65583135  1
  S2-  S142  1  0.28168617  0.87484322  0.15880387  1
  S2-  S143  1  0.34318630  0.88482608  0.63979721  1
  S2-  S144  1  0.57123190  0.10877184  0.14896718  1
  S2-  S145  1  0.47757331  0.15992762  0.64139266  1
  S2-  S146  1  0.51149912  0.36299880  0.16431504  1
  S2-  S147  1  0.47736254  0.50305801  0.64097473  1
  S2-  S148  1  0.47473173  0.62053771  0.15929681  1
  S2-  S149  1  0.48845140  0.72422254  0.64050387  1
  S2-  S150  1  0.52271942  0.86809172  0.16190760  1
  S2-  S151  1  0.60150136  0.90869680  0.64356923  1
  S2-  S152  1  0.72934570  0.10695273  0.22271842  1
  S2-  S153  1  0.76243008  0.09165613  0.65628179  1
  S2-  S154  1  0.75346570  0.28200873  0.15499927  1
  S2-  S155  1  0.79534184  0.39358928  0.65057843  1
  S2-  S156  1  0.75590681  0.74383289  0.14103800  1
  S2-  S157  1  0.72182502  0.64699507  0.66741546  1
  S2-  S158  1  0.74071969  0.95336962  0.15183843  1
  S2-  S159  1  0.81760563  0.86265048  0.66614546  1
  S2-  S160  1  0.12131041  -0.01671338  0.35409543  1
  S2-  S161  1  0.13929936  -0.06738862  0.84013713  1
  S2-  S162  1  0.12830966  0.25882416  0.34282769  1
  S2-  S163  1  0.13379874  0.15686579  0.85475267  1
  S2-  S164  1  0.09315525  0.63000905  0.34404272  1
  S2-  S165  1  0.15037927  0.47993474  0.84173363  1
  S2-  S166  1  0.22926782  0.77166090  0.34766765  1
  S2-  S167  1  0.03119472  0.72583010  0.84276145  1
  S2-  S168  1  0.39387093  -0.10768994  0.34657206  1
  S2-  S169  1  0.37144589  0.01452768  0.83792950  1
  S2-  S170  1  0.35569237  0.13701488  0.35303173  1
  S2-  S171  1  0.35037495  0.26792521  0.84140419  1
  S2-  S172  1  0.24821284  0.47970068  0.34586186  1
  S2-  S173  1  0.37607446  0.52453614  0.84720651  1
  S2-  S174  1  0.39156434  0.62693227  0.34966686  1
  S2-  S175  1  0.27432596  0.73824569  0.85946011  1
  S2-  S176  1  0.58402738  0.05795791  0.32240165  1
  S2-  S177  1  0.71335718  0.02593293  0.85373107  1
  S2-  S178  1  0.72679889  0.27573222  0.35685852  1
  S2-  S179  1  0.62308144  0.26375343  0.85046983  1
  S2-  S180  1  0.63381747  0.60799275  0.36300423  1
  S2-  S181  1  0.62518236  0.59964219  0.86455182  1
  S2-  S182  1  0.62480594  0.84494559  0.35262917  1
  S2-  S183  1  0.60697115  0.85095649  0.85468513  1
  S2-  S184  1  0.80999812  -0.02889504  0.34546159  1
  S2-  S185  1  0.91161182  -0.04624465  0.80564181  1
  S2-  S186  1  0.91206764  0.18040327  0.33519867  1
  S2-  S187  1  0.88644651  0.15650441  0.85514539  1
  S2-  S188  1  0.95318051  0.46561034  0.35991687  1
  S2-  S189  1  0.86786494  0.57611165  0.86069561  1
  S2-  S190  1  0.89097861  0.75077585  0.35224389  1
  S2-  S191  1  0.81182444  0.76199455  0.82504428  1
  S2-  S192  1  -0.00992955  0.12226917  0.45441223  1
  S2-  S193  1  -0.00437710  0.11654370  0.95904243  1
  S2-  S194  1  -0.01042722  0.36781182  0.46067940  1
  S2-  S195  1  -0.00165475  0.36456253  0.94938454  1
  S2-  S196  1  -0.00859556  0.62061807  0.46131454  1
  S2-  S197  1  0.00359266  0.61405661  0.95472609  1
  S2-  S198  1  -0.00585130  0.87034069  0.46096240  1
  S2-  S199  1  -0.00597951  0.87141421  0.93894904  1
  S2-  S200  1  0.23888184  0.12564805  0.45883883  1
  S2-  S201  1  0.25282977  0.11758993  0.95563812  1
  S2-  S202  1  0.24031229  0.36920302  0.44662662  1
  S2-  S203  1  0.24819654  0.36332342  0.95532008  1
  S2-  S204  1  0.23609828  0.62018747  0.44803585  1
  S2-  S205  1  0.24668583  0.61054596  0.96074055  1
  S2-  S206  1  0.23884915  0.87484007  0.45634784  1
  S2-  S207  1  0.24823666  0.87005422  0.95645345  1
  S2-  S208  1  0.49888589  0.12324094  0.44302624  1
  S2-  S209  1  0.50216222  0.11403303  0.94955911  1
  S2-  S210  1  0.48894209  0.37593557  0.45853157  1
  S2-  S211  1  0.50165596  0.36906590  0.95495224  1
  S2-  S212  1  0.48589027  0.61774607  0.45707997  1
  S2-  S213  1  0.49327738  0.61405843  0.95718154  1
  S2-  S214  1  0.49184018  0.87269429  0.45604864  1
  S2-  S215  1  0.49191544  0.85846205  0.95611766  1
  S2-  S216  1  0.74178897  0.12095754  0.44953000  1
  S2-  S217  1  0.74864383  0.11560071  0.95716071  1
  S2-  S218  1  0.74226050  0.38236072  0.45459705  1
  S2-  S219  1  0.74760259  0.36950317  0.95790007  1
  S2-  S220  1  0.74704573  0.61802188  0.46199384  1
  S2-  S221  1  0.75015412  0.61348321  0.96265366  1
  S2-  S222  1  0.74315321  0.86986697  0.46216638  1
  S2-  S223  1  0.75882125  0.86165106  0.95081455  1
  S2-  S224  1  0.12589963  -0.01333691  0.03959832  1
  S2-  S225  1  0.11852014  -0.00180759  0.55728779  1
  S2-  S226  1  0.12373078  0.24337572  0.04727567  1
  S2-  S227  1  0.11192740  0.24510456  0.54925078  1
  S2-  S228  1  0.11987453  0.49074758  0.04665031  1
  S2-  S229  1  0.11700907  0.49164163  0.53799612  1
  S2-  S230  1  0.12400455  0.74160983  0.03812154  1
  S2-  S231  1  0.11503134  0.74734869  0.54969161  1
  S2-  S232  1  0.37077605  -0.01204113  0.04872920  1
  S2-  S233  1  0.36634860  0.00346969  0.53801606  1
  S2-  S234  1  0.37466072  0.23764880  0.04740109  1
  S2-  S235  1  0.37136072  0.24645189  0.53475117  1
  S2-  S236  1  0.37176809  0.49125258  0.05129549  1
  S2-  S237  1  0.36204098  0.49205773  0.53607534  1
  S2-  S238  1  0.36284929  0.73634331  0.05215884  1
  S2-  S239  1  0.36154419  0.74398003  0.53677742  1
  S2-  S240  1  0.61673478  -0.01771893  0.04266437  1
  S2-  S241  1  0.61579099  0.00060622  0.53531033  1
  S2-  S242  1  0.62398650  0.24159635  0.05254281  1
  S2-  S243  1  0.61444871  0.24674774  0.54178758  1
  S2-  S244  1  0.62194220  0.49161064  0.04804308  1
  S2-  S245  1  0.61866385  0.49438511  0.54812620  1
  S2-  S246  1  0.61831531  0.73880026  0.04415270  1
  S2-  S247  1  0.61940483  0.74255545  0.54460248  1
  S2-  S248  1  0.87522706  -0.01159828  0.04820325  1
  S2-  S249  1  0.86561179  -0.00707993  0.54926536  1
  S2-  S250  1  0.87321794  0.24204524  0.04849284  1
  S2-  S251  1  0.86547942  0.24552195  0.54433798  1
  S2-  S252  1  0.87480243  0.49346812  0.05118163  1
  S2-  S253  1  0.86499731  0.49724206  0.54844862  1
  S2-  S254  1  0.87807305  0.73695693  0.03713019  1
  S2-  S255  1  0.86427693  0.74373657  0.55718425  1
