# generated using pymatgen
data_La9Ce10Pr6Nd4Sm3(BiS2)32
_symmetry_space_group_name_H-M   'P 1'
_cell_length_a   16.11628487
_cell_length_b   16.16314990
_cell_length_c   27.33410731
_cell_angle_alpha   90.06082047
_cell_angle_beta   89.75066501
_cell_angle_gamma   89.97380075
_symmetry_Int_Tables_number   1
_chemical_formula_structural   La9Ce10Pr6Nd4Sm3(BiS2)32
_chemical_formula_sum   'La18 Ce20 Pr12 Nd8 Sm6 Bi64 S128'
_cell_volume   7120.18745972
_cell_formula_units_Z   2
loop_
 _symmetry_equiv_pos_site_id
 _symmetry_equiv_pos_as_xyz
  1  'x, y, z'
loop_
 _atom_type_symbol
 _atom_type_oxidation_number
  La3+  3.0
  Ce3+  3.0
  Pr3+  3.0
  Nd3+  3.0
  Sm3+  3.0
  Bi2+  2.0
  S2-  -2.0
loop_
 _atom_site_type_symbol
 _atom_site_label
 _atom_site_symmetry_multiplicity
 _atom_site_fract_x
 _atom_site_fract_y
 _atom_site_fract_z
 _atom_site_occupancy
  La3+  La0  1  0.00080904  0.37577093  0.11707022  1
  La3+  La1  1  0.11492489  0.75757920  0.42680316  1
  La3+  La2  1  0.87719807  0.50403984  0.92895059  1
  La3+  La3  1  0.00147842  0.12575625  0.07723648  1
  La3+  La4  1  0.47672731  0.39244680  0.60049729  1
  La3+  La5  1  0.63014521  -0.00446614  0.91846778  1
  La3+  La6  1  0.72481052  0.13796281  0.57796461  1
  La3+  La7  1  0.41457462  0.74230721  0.37965383  1
  La3+  La8  1  0.47148882  0.88586445  0.57273868  1
  La3+  La9  1  0.13057968  0.01128475  0.90623921  1
  La3+  La10  1  0.10287953  0.01787452  0.42383383  1
  La3+  La11  1  -0.01836037  0.37611699  0.56435726  1
  La3+  La12  1  0.84548793  0.26301215  0.41686082  1
  La3+  La13  1  0.51279115  0.89300108  0.07791130  1
  La3+  La14  1  0.73681893  0.39026691  0.58017667  1
  La3+  La15  1  0.75026572  0.38522833  0.06719622  1
  La3+  La16  1  0.63629918  0.25721166  0.91439942  1
  La3+  La17  1  0.37436580  0.50391893  0.93679291  1
  Ce3+  Ce18  1  0.38117127  0.00118947  0.93141893  1
  Ce3+  Ce19  1  0.35413295  -0.00482657  0.43386848  1
  Ce3+  Ce20  1  -0.01630700  0.63346317  0.55335854  1
  Ce3+  Ce21  1  0.60915153  0.00572278  0.44572015  1
  Ce3+  Ce22  1  0.85681044  0.75735074  0.44783767  1
  Ce3+  Ce23  1  0.62480877  0.75527597  0.93981216  1
  Ce3+  Ce24  1  0.37785725  0.75959902  0.94579358  1
  Ce3+  Ce25  1  0.85477946  0.50522620  0.44019401  1
  Ce3+  Ce26  1  0.22454651  0.88410421  0.56243859  1
  Ce3+  Ce27  1  0.87921380  0.25368600  0.94316974  1
  Ce3+  Ce28  1  0.50450224  0.37587728  0.05815993  1
  Ce3+  Ce29  1  0.75119566  0.62774033  0.05193700  1
  Ce3+  Ce30  1  0.88012348  0.00410339  0.93102556  1
  Ce3+  Ce31  1  0.00187609  0.88271581  0.06155983  1
  Ce3+  Ce32  1  0.60772404  0.26030576  0.45427522  1
  Ce3+  Ce33  1  0.12285968  0.25062083  0.94728232  1
  Ce3+  Ce34  1  0.50513286  0.12985584  0.04604506  1
  Ce3+  Ce35  1  -0.02062580  0.13604889  0.54799596  1
  Ce3+  Ce36  1  0.24684625  0.37800603  0.06066269  1
  Ce3+  Ce37  1  0.23174983  0.38117575  0.56601267  1
  Pr3+  Pr38  1  0.73576404  0.63855521  0.57552231  1
  Pr3+  Pr39  1  0.73659178  0.88987340  0.57576908  1
  Pr3+  Pr40  1  0.37703346  0.25216471  0.93594416  1
  Pr3+  Pr41  1  0.60755155  0.51031037  0.44635126  1
  Pr3+  Pr42  1  0.47949910  0.63473176  0.56799551  1
  Pr3+  Pr43  1  0.23097605  0.63203556  0.55642497  1
  Pr3+  Pr44  1  0.25011765  0.62954955  0.05980242  1
  Pr3+  Pr45  1  0.47681951  0.13388818  0.56778085  1
  Pr3+  Pr46  1  0.11664775  0.26649560  0.42760014  1
  Pr3+  Pr47  1  0.85251581  0.00637507  0.43136053  1
  Pr3+  Pr48  1  0.50208120  0.62838871  0.05748613  1
  Pr3+  Pr49  1  0.23215304  0.13389281  0.56430637  1
  Nd3+  Nd50  1  0.25017727  0.12807434  0.05938238  1
  Nd3+  Nd51  1  0.75329492  0.13214842  0.05209653  1
  Nd3+  Nd52  1  0.25079886  0.88273170  0.05931739  1
  Nd3+  Nd53  1  0.00049330  0.62608830  0.05736082  1
  Nd3+  Nd54  1  0.36109383  0.25638460  0.44295678  1
  Nd3+  Nd55  1  0.62734871  0.50430790  0.92907555  1
  Nd3+  Nd56  1  0.75429140  0.88173980  0.05664648  1
  Nd3+  Nd57  1  0.12748923  0.75878227  0.93791185  1
  Sm3+  Sm58  1  0.35917749  0.51088157  0.44484607  1
  Sm3+  Sm59  1  0.12513433  0.50332434  0.94225539  1
  Sm3+  Sm60  1  0.87931063  0.75702430  0.94165696  1
  Sm3+  Sm61  1  0.61236031  0.75839230  0.45663176  1
  Sm3+  Sm62  1  -0.01181309  0.88752405  0.55647915  1
  Sm3+  Sm63  1  0.10600323  0.50217728  0.44206783  1
  Bi2+  Bi64  1  0.00094516  0.08618389  0.27612900  1
  Bi2+  Bi65  1  -0.02581213  0.06733023  0.75028519  1
  Bi2+  Bi66  1  0.02632934  0.30260515  0.30031867  1
  Bi2+  Bi67  1  0.02852549  0.27692302  0.78333238  1
  Bi2+  Bi68  1  0.06266379  0.64652651  0.30798455  1
  Bi2+  Bi69  1  0.05589442  0.65294829  0.79003238  1
  Bi2+  Bi70  1  0.02080973  0.84370276  0.29021662  1
  Bi2+  Bi71  1  0.02075066  0.87060506  0.78900316  1
  Bi2+  Bi72  1  0.26778328  0.13390104  0.29179930  1
  Bi2+  Bi73  1  0.17136355  0.11357371  0.76806804  1
  Bi2+  Bi74  1  0.26340822  0.40404500  0.29352237  1
  Bi2+  Bi75  1  0.17853871  0.39955283  0.79151272  1
  Bi2+  Bi76  1  0.26174389  0.62586020  0.29523526  1
  Bi2+  Bi77  1  0.33678346  0.64496818  0.80327714  1
  Bi2+  Bi78  1  0.28789123  0.88731610  0.28862021  1
  Bi2+  Bi79  1  0.27004907  0.89038537  0.78071140  1
  Bi2+  Bi80  1  0.46681492  0.12924355  0.31404602  1
  Bi2+  Bi81  1  0.42065990  0.10895340  0.79450209  1
  Bi2+  Bi82  1  0.46485602  0.32774788  0.29170968  1
  Bi2+  Bi83  1  0.47041618  0.34340703  0.79904231  1
  Bi2+  Bi84  1  0.67042392  0.64109415  0.29184098  1
  Bi2+  Bi85  1  0.58504239  0.60981416  0.81312335  1
  Bi2+  Bi86  1  0.51443198  0.95031320  0.26066539  1
  Bi2+  Bi87  1  0.51449742  0.85671692  0.78815957  1
  Bi2+  Bi88  1  0.66292059  0.12946890  0.29498040  1
  Bi2+  Bi89  1  0.79439274  0.12866563  0.77927140  1
  Bi2+  Bi90  1  0.72162483  0.38661730  0.29808726  1
  Bi2+  Bi91  1  0.76419905  0.39476339  0.79444120  1
  Bi2+  Bi92  1  0.86468567  0.61963035  0.30527022  1
  Bi2+  Bi93  1  0.78223842  0.59155729  0.81265088  1
  Bi2+  Bi94  1  0.73629010  0.87480506  0.29478401  1
  Bi2+  Bi95  1  0.77513982  0.86830173  0.78738516  1
  Bi2+  Bi96  1  0.12993246  -0.00700633  0.20540443  1
  Bi2+  Bi97  1  0.19850019  -0.01256581  0.68501501  1
  Bi2+  Bi98  1  0.22376418  0.26632441  0.21212934  1
  Bi2+  Bi99  1  0.10194265  0.32573132  0.67644387  1
  Bi2+  Bi100  1  0.11377454  0.52458891  0.21546250  1
  Bi2+  Bi101  1  0.10665285  0.51996946  0.70799793  1
  Bi2+  Bi102  1  0.12608597  0.76631703  0.20453001  1
  Bi2+  Bi103  1  0.20242988  0.72807512  0.73090401  1
  Bi2+  Bi104  1  0.39739486  0.08122007  0.20843222  1
  Bi2+  Bi105  1  0.41040958  0.00116496  0.70156593  1
  Bi2+  Bi106  1  0.41535283  0.28412884  0.17903291  1
  Bi2+  Bi107  1  0.27015002  0.24715201  0.70911814  1
  Bi2+  Bi108  1  0.40434948  0.47006626  0.22037428  1
  Bi2+  Bi109  1  0.31246244  0.49828551  0.72844732  1
  Bi2+  Bi110  1  0.36291403  0.73726911  0.17958140  1
  Bi2+  Bi111  1  0.47392481  0.69509797  0.72318361  1
  Bi2+  Bi112  1  0.66017577  0.03079977  0.19661848  1
  Bi2+  Bi113  1  0.66015226  -0.00159337  0.71546002  1
  Bi2+  Bi114  1  0.61033098  0.27372467  0.21964208  1
  Bi2+  Bi115  1  0.63485171  0.21478376  0.72722394  1
  Bi2+  Bi116  1  0.59582494  0.51788298  0.20416912  1
  Bi2+  Bi117  1  0.59693523  0.48129160  0.72237672  1
  Bi2+  Bi118  1  0.74323887  0.76308647  0.20254561  1
  Bi2+  Bi119  1  0.67038007  0.68602143  0.71894516  1
  Bi2+  Bi120  1  0.87905098  -0.06017179  0.22446276  1
  Bi2+  Bi121  1  0.93597283  -0.09172905  0.68526357  1
  Bi2+  Bi122  1  0.84982592  0.22879100  0.21356729  1
  Bi2+  Bi123  1  0.88734788  0.24487312  0.70084809  1
  Bi2+  Bi124  1  0.84910926  0.51497702  0.21068363  1
  Bi2+  Bi125  1  0.86314183  0.51397526  0.71459507  1
  Bi2+  Bi126  1  0.93554374  0.76662215  0.18210334  1
  Bi2+  Bi127  1  0.91493254  0.72444271  0.71875532  1
  S2-  S128  1  -0.01175707  0.21918492  0.16475764  1
  S2-  S129  1  0.01275768  0.17455773  0.64146811  1
  S2-  S130  1  -0.00558131  0.40770356  0.23278779  1
  S2-  S131  1  -0.11087108  0.39514208  0.64971628  1
  S2-  S132  1  -0.01139003  0.54994972  0.14651708  1
  S2-  S133  1  -0.02169672  0.61434063  0.65102812  1
  S2-  S134  1  -0.00583092  0.98231757  0.14335683  1
  S2-  S135  1  0.09459075  0.87294834  0.63620274  1
  S2-  S136  1  0.18710157  0.12038803  0.15317026  1
  S2-  S137  1  0.34935106  0.14128335  0.64296950  1
  S2-  S138  1  0.17095461  0.39573702  0.14933974  1
  S2-  S139  1  0.32091679  0.38538548  0.65127260  1
  S2-  S140  1  0.21963359  0.63061550  0.15899987  1
  S2-  S141  1  0.23859597  0.61140087  0.65759559  1
  S2-  S142  1  0.24335530  0.87634939  0.16004431  1
  S2-  S143  1  0.32941059  0.88715228  0.64425451  1
  S2-  S144  1  0.52067265  0.06176380  0.13458739  1
  S2-  S145  1  0.58110412  0.12094171  0.65323613  1
  S2-  S146  1  0.60971919  0.37996943  0.13632007  1
  S2-  S147  1  0.51958982  0.33421120  0.69554731  1
  S2-  S148  1  0.50068729  0.63124117  0.15804591  1
  S2-  S149  1  0.48320347  0.54889487  0.65690388  1
  S2-  S150  1  0.46226291  0.86026343  0.17339371  1
  S2-  S151  1  0.54481289  0.90123402  0.66791553  1
  S2-  S152  1  0.78822675  0.11952503  0.15079060  1
  S2-  S153  1  0.77437296  0.01411966  0.64732936  1
  S2-  S154  1  0.83518674  0.36977690  0.15588387  1
  S2-  S155  1  0.73305351  0.26354711  0.65312631  1
  S2-  S156  1  0.73746948  0.56420353  0.14219122  1
  S2-  S157  1  0.72422570  0.52381947  0.65401235  1
  S2-  S158  1  0.66547343  0.88391008  0.14189018  1
  S2-  S159  1  0.75289832  0.76584269  0.64979228  1
  S2-  S160  1  0.23500217  -0.00412916  0.35298235  1
  S2-  S161  1  -0.01588383  0.00733643  0.85095890  1
  S2-  S162  1  0.09625996  0.15760904  0.34775644  1
  S2-  S163  1  0.11561121  0.18250099  0.85761380  1
  S2-  S164  1  0.10551207  0.40958322  0.35752663  1
  S2-  S165  1  0.14885336  0.54341579  0.84771503  1
  S2-  S166  1  0.24096907  0.77021620  0.35394237  1
  S2-  S167  1  0.14386124  0.84943103  0.85295687  1
  S2-  S168  1  0.42541900  -0.08485967  0.34864463  1
  S2-  S169  1  0.28272265  0.01895815  0.84817240  1
  S2-  S170  1  0.27280998  0.27211626  0.35741439  1
  S2-  S171  1  0.34837910  0.25474930  0.83611753  1
  S2-  S172  1  0.38258245  0.56943343  0.35317987  1
  S2-  S173  1  0.39310177  0.48072708  0.83745850  1
  S2-  S174  1  0.39445893  0.73108875  0.27219308  1
  S2-  S175  1  0.38224826  0.79581771  0.85023644  1
  S2-  S176  1  0.71467241  0.00522929  0.36465711  1
  S2-  S177  1  0.49665429  -0.00877525  0.85085217  1
  S2-  S178  1  0.68379845  0.26049740  0.36499928  1
  S2-  S179  1  0.56193735  0.19736288  0.82516787  1
  S2-  S180  1  0.62457005  0.50015401  0.34449394  1
  S2-  S181  1  0.61815340  0.39771100  0.84910126  1
  S2-  S182  1  0.58867040  0.74006638  0.35886984  1
  S2-  S183  1  0.63647985  0.82961698  0.85058739  1
  S2-  S184  1  0.97113920  -0.01950578  0.35293954  1
  S2-  S185  1  0.76474536  0.00308989  0.84981646  1
  S2-  S186  1  0.88379191  0.19759547  0.31814118  1
  S2-  S187  1  0.79926047  0.25740547  0.85394513  1
  S2-  S188  1  0.85373033  0.41363330  0.35634426  1
  S2-  S189  1  0.90940357  0.47988222  0.82960095  1
  S2-  S190  1  0.83415296  0.77478846  0.35190938  1
  S2-  S191  1  0.88104791  0.78973009  0.84444907  1
  S2-  S192  1  -0.02833954  0.14191258  0.44597183  1
  S2-  S193  1  -0.00045596  0.12855838  0.96080527  1
  S2-  S194  1  -0.02128667  0.38123741  0.45736448  1
  S2-  S195  1  0.00503894  0.37976423  0.93915575  1
  S2-  S196  1  -0.01612490  0.62950384  0.44726794  1
  S2-  S197  1  0.00374939  0.63200411  0.94913347  1
  S2-  S198  1  -0.01634664  0.87778315  0.45401200  1
  S2-  S199  1  0.00252604  0.87824995  0.95557699  1
  S2-  S200  1  0.23677477  0.13416671  0.45708797  1
  S2-  S201  1  0.25246469  0.12851959  0.95460218  1
  S2-  S202  1  0.23819657  0.38917102  0.46049315  1
  S2-  S203  1  0.24835998  0.37867126  0.95165284  1
  S2-  S204  1  0.22709663  0.62262060  0.45130315  1
  S2-  S205  1  0.25073884  0.63219846  0.95305826  1
  S2-  S206  1  0.22102627  0.88972467  0.45899241  1
  S2-  S207  1  0.25237134  0.88226447  0.95513987  1
  S2-  S208  1  0.48277948  0.13010083  0.45722142  1
  S2-  S209  1  0.50571483  0.13163446  0.94419286  1
  S2-  S210  1  0.48123557  0.38539406  0.44496032  1
  S2-  S211  1  0.50077935  0.37850729  0.95168958  1
  S2-  S212  1  0.48340109  0.63662209  0.46126268  1
  S2-  S213  1  0.49991670  0.62954977  0.94956793  1
  S2-  S214  1  0.48685484  0.87674755  0.46152971  1
  S2-  S215  1  0.50321211  0.87777625  0.96176417  1
  S2-  S216  1  0.72886965  0.13378501  0.46533767  1
  S2-  S217  1  0.75270996  0.12972338  0.94875519  1
  S2-  S218  1  0.73053796  0.38626814  0.46644515  1
  S2-  S219  1  0.75269968  0.38335500  0.95436211  1
  S2-  S220  1  0.73358028  0.63354515  0.46291901  1
  S2-  S221  1  0.75234680  0.63337308  0.94643706  1
  S2-  S222  1  0.73274078  0.87996991  0.46675626  1
  S2-  S223  1  0.75589827  0.87463646  0.95330206  1
  S2-  S224  1  0.12836737  0.00347587  0.04479815  1
  S2-  S225  1  0.10498129  0.01567788  0.53894731  1
  S2-  S226  1  0.12343941  0.25559608  0.05153245  1
  S2-  S227  1  0.11176800  0.25768323  0.53696217  1
  S2-  S228  1  0.12548743  0.50494947  0.04423648  1
  S2-  S229  1  0.10566629  0.50468501  0.54700990  1
  S2-  S230  1  0.12512885  0.75484345  0.04569594  1
  S2-  S231  1  0.10621799  0.75372262  0.53656426  1
  S2-  S232  1  0.37541180  0.00525854  0.04400337  1
  S2-  S233  1  0.35312779  0.00958475  0.54069771  1
  S2-  S234  1  0.37517671  0.25361986  0.04349922  1
  S2-  S235  1  0.36022341  0.26584920  0.54658185  1
  S2-  S236  1  0.37529261  0.50218142  0.04771660  1
  S2-  S237  1  0.35833416  0.50714882  0.54832958  1
  S2-  S238  1  0.37762824  0.75698941  0.05174934  1
  S2-  S239  1  0.35257438  0.75415298  0.55421124  1
  S2-  S240  1  0.63356651  0.00705921  0.03190348  1
  S2-  S241  1  0.60429112  0.00651749  0.54943712  1
  S2-  S242  1  0.62772542  0.25313273  0.03603846  1
  S2-  S243  1  0.59386756  0.27060363  0.55690706  1
  S2-  S244  1  0.62326985  0.50679181  0.03424035  1
  S2-  S245  1  0.60376965  0.50838454  0.55233790  1
  S2-  S246  1  0.62739306  0.75294740  0.04557369  1
  S2-  S247  1  0.60443323  0.75983978  0.55995222  1
  S2-  S248  1  0.87484779  0.00414954  0.04048925  1
  S2-  S249  1  0.86440690  0.00644413  0.53903057  1
  S2-  S250  1  0.87909804  0.25792655  0.04733770  1
  S2-  S251  1  0.85354323  0.25703203  0.54505432  1
  S2-  S252  1  0.87751268  0.50642146  0.03760778  1
  S2-  S253  1  0.85839644  0.51405116  0.54538237  1
  S2-  S254  1  0.87640227  0.75337600  0.04609483  1
  S2-  S255  1  0.86606553  0.76298481  0.55112698  1
