# generated using pymatgen
data_La9Ce10Pr6Nd4Sm3(BiS2)32
_symmetry_space_group_name_H-M   'P 1'
_cell_length_a   16.14542670
_cell_length_b   16.19243876
_cell_length_c   27.28035810
_cell_angle_alpha   90.20870516
_cell_angle_beta   89.96019458
_cell_angle_gamma   89.97329824
_symmetry_Int_Tables_number   1
_chemical_formula_structural   La9Ce10Pr6Nd4Sm3(BiS2)32
_chemical_formula_sum   'La18 Ce20 Pr12 Nd8 Sm6 Bi64 S128'
_cell_volume   7131.95876638
_cell_formula_units_Z   2
loop_
 _symmetry_equiv_pos_site_id
 _symmetry_equiv_pos_as_xyz
  1  'x, y, z'
loop_
 _atom_type_symbol
 _atom_type_oxidation_number
  La3+  3.0
  Ce3+  3.0
  Pr3+  3.0
  Nd3+  3.0
  Sm3+  3.0
  Bi2+  2.0
  S2-  -2.0
loop_
 _atom_site_type_symbol
 _atom_site_label
 _atom_site_symmetry_multiplicity
 _atom_site_fract_x
 _atom_site_fract_y
 _atom_site_fract_z
 _atom_site_occupancy
  La3+  La0  1  0.01312783  0.87603964  0.08612221  1
  La3+  La1  1  0.11985427  0.76226997  0.39123266  1
  La3+  La2  1  0.61354676  0.26646345  0.43858369  1
  La3+  La3  1  0.49254483  0.89076607  0.56385902  1
  La3+  La4  1  0.36939982  0.01186534  0.42678503  1
  La3+  La5  1  0.38768114  0.48031876  0.90980523  1
  La3+  La6  1  0.12035163  0.01470318  0.41490427  1
  La3+  La7  1  0.86967307  0.50825817  0.42494347  1
  La3+  La8  1  0.01491049  0.61613254  0.08687962  1
  La3+  La9  1  0.85844194  0.76121213  0.40892467  1
  La3+  La10  1  0.48309447  0.13694653  0.57017997  1
  La3+  La11  1  0.12637761  0.74057108  0.93712622  1
  La3+  La12  1  0.74693515  0.64152147  0.56503135  1
  La3+  La13  1  -0.00649212  0.14418989  0.56807168  1
  La3+  La14  1  0.23800348  0.64882582  0.60353724  1
  La3+  La15  1  0.88650794  0.24103165  0.92806194  1
  La3+  La16  1  0.87783228  0.74409711  0.94769048  1
  La3+  La17  1  0.36129610  0.51677615  0.43229020  1
  Ce3+  Ce18  1  0.86745360  0.01281225  0.43688450  1
  Ce3+  Ce19  1  0.75799781  0.12015298  0.06435803  1
  Ce3+  Ce20  1  0.74195215  0.39032839  0.56293095  1
  Ce3+  Ce21  1  0.11945301  0.49325141  0.93737957  1
  Ce3+  Ce22  1  0.75463508  0.36604639  0.06208480  1
  Ce3+  Ce23  1  0.50234636  0.61727257  0.05037162  1
  Ce3+  Ce24  1  0.88319243  0.49448350  0.95939953  1
  Ce3+  Ce25  1  0.23841884  0.39190269  0.55346208  1
  Ce3+  Ce26  1  0.63182543  0.24173990  0.94680228  1
  Ce3+  Ce27  1  0.86631303  0.26320158  0.43768196  1
  Ce3+  Ce28  1  0.62591457  0.74190586  0.92843682  1
  Ce3+  Ce29  1  0.36071399  0.76246295  0.44214227  1
  Ce3+  Ce30  1  0.25999827  0.12029342  0.06431416  1
  Ce3+  Ce31  1  0.12794847  -0.00718199  0.94870669  1
  Ce3+  Ce32  1  0.50632268  0.86476672  0.05784917  1
  Ce3+  Ce33  1  0.24042754  0.88725237  0.55525539  1
  Ce3+  Ce34  1  0.25802668  0.61503583  0.05493281  1
  Ce3+  Ce35  1  0.24286394  0.13841744  0.55126333  1
  Ce3+  Ce36  1  0.48917404  0.64941171  0.56619472  1
  Ce3+  Ce37  1  0.38447231  0.24367199  0.94540540  1
  Pr3+  Pr38  1  0.61612132  0.76117487  0.43380045  1
  Pr3+  Pr39  1  0.11292988  0.26354462  0.42599954  1
  Pr3+  Pr40  1  -0.00418896  0.88543918  0.54611049  1
  Pr3+  Pr41  1  0.74581852  0.89201144  0.55589282  1
  Pr3+  Pr42  1  0.48561312  0.39712344  0.56154675  1
  Pr3+  Pr43  1  0.37430193  0.74169253  0.93061619  1
  Pr3+  Pr44  1  0.37996250  -0.00578956  0.94560019  1
  Pr3+  Pr45  1  0.73968965  0.13866951  0.55511882  1
  Pr3+  Pr46  1  0.63403653  0.49221385  0.93616744  1
  Pr3+  Pr47  1  -0.00968731  0.64304831  0.55933687  1
  Pr3+  Pr48  1  -0.01315622  0.38989003  0.56794140  1
  Pr3+  Pr49  1  0.61397405  0.01351723  0.42708491  1
  Nd3+  Nd50  1  0.74709263  0.86733315  0.07503822  1
  Nd3+  Nd51  1  0.36579182  0.26541412  0.43896096  1
  Nd3+  Nd52  1  0.00515768  0.12281261  0.07002151  1
  Nd3+  Nd53  1  0.11013145  0.51897464  0.44601563  1
  Nd3+  Nd54  1  0.87977428  -0.00877273  0.94924536  1
  Nd3+  Nd55  1  0.12990688  0.24354950  0.94474627  1
  Nd3+  Nd56  1  0.00748237  0.36713521  0.07075467  1
  Nd3+  Nd57  1  0.74359952  0.62092900  0.07435730  1
  Sm3+  Sm58  1  0.25921515  0.36896579  0.05603980  1
  Sm3+  Sm59  1  0.63082783  -0.00662956  0.94598930  1
  Sm3+  Sm60  1  0.25801307  0.86726565  0.06261458  1
  Sm3+  Sm61  1  0.51267870  0.37218461  0.06966050  1
  Sm3+  Sm62  1  0.51072280  0.11880377  0.06953751  1
  Sm3+  Sm63  1  0.61686720  0.51590316  0.44713295  1
  Bi2+  Bi64  1  -0.03754670  0.14151229  0.27701319  1
  Bi2+  Bi65  1  -0.03950308  0.09138032  0.81073426  1
  Bi2+  Bi66  1  0.04658409  0.35048775  0.30090905  1
  Bi2+  Bi67  1  -0.04232674  0.35802492  0.80062878  1
  Bi2+  Bi68  1  -0.01607353  0.60312786  0.29053188  1
  Bi2+  Bi69  1  0.00382393  0.60697041  0.80231166  1
  Bi2+  Bi70  1  -0.02173055  0.91852785  0.28181405  1
  Bi2+  Bi71  1  0.00894903  0.87330160  0.79957943  1
  Bi2+  Bi72  1  0.20479925  0.23930643  0.28994370  1
  Bi2+  Bi73  1  0.28680398  0.11074144  0.80257994  1
  Bi2+  Bi74  1  0.23908978  0.43784062  0.31444694  1
  Bi2+  Bi75  1  0.23644591  0.39286104  0.80568383  1
  Bi2+  Bi76  1  0.32163893  0.60580849  0.27189992  1
  Bi2+  Bi77  1  0.24410050  0.65455781  0.78928386  1
  Bi2+  Bi78  1  0.28177192  0.88251602  0.27924721  1
  Bi2+  Bi79  1  0.32576848  0.90079009  0.78974498  1
  Bi2+  Bi80  1  0.38390503  0.10275510  0.28526730  1
  Bi2+  Bi81  1  0.47036515  0.14887481  0.75304448  1
  Bi2+  Bi82  1  0.51932870  0.36184542  0.30757018  1
  Bi2+  Bi83  1  0.51030299  0.33310140  0.79225176  1
  Bi2+  Bi84  1  0.49549805  0.71137870  0.29396251  1
  Bi2+  Bi85  1  0.57358709  0.61115367  0.78972223  1
  Bi2+  Bi86  1  0.57438071  0.88938097  0.30522527  1
  Bi2+  Bi87  1  0.59216976  0.82428460  0.79763557  1
  Bi2+  Bi88  1  0.79041268  0.21505305  0.30933704  1
  Bi2+  Bi89  1  0.68831122  0.10407030  0.79088434  1
  Bi2+  Bi90  1  0.74989109  0.41558114  0.27836766  1
  Bi2+  Bi91  1  0.76887903  0.36934909  0.76907307  1
  Bi2+  Bi92  1  0.68155716  0.62944922  0.29923040  1
  Bi2+  Bi93  1  0.76756524  0.61093068  0.79735031  1
  Bi2+  Bi94  1  0.71524908  1.02956578  0.29639168  1
  Bi2+  Bi95  1  0.76083790  0.79052538  0.74257420  1
  Bi2+  Bi96  1  0.15425825  0.01469603  0.20585389  1
  Bi2+  Bi97  1  0.15806123  -0.01767934  0.74820675  1
  Bi2+  Bi98  1  0.05524494  0.25009716  0.19708682  1
  Bi2+  Bi99  1  0.14781446  0.23773363  0.76408168  1
  Bi2+  Bi100  1  0.16039269  0.49431988  0.21082869  1
  Bi2+  Bi101  1  0.07265540  0.40129638  0.71146718  1
  Bi2+  Bi102  1  0.12039641  0.74075677  0.21185603  1
  Bi2+  Bi103  1  0.13363369  0.79014583  0.72097209  1
  Bi2+  Bi104  1  0.37746837  -0.02429166  0.19544591  1
  Bi2+  Bi105  1  0.37871549  -0.03389084  0.68539941  1
  Bi2+  Bi106  1  0.33473211  0.34114978  0.22904793  1
  Bi2+  Bi107  1  0.32003846  0.24617944  0.70779085  1
  Bi2+  Bi108  1  0.39500923  0.58785666  0.16750912  1
  Bi2+  Bi109  1  0.36362779  0.48515790  0.70808138  1
  Bi2+  Bi110  1  0.39135377  0.77720167  0.19602348  1
  Bi2+  Bi111  1  0.39528411  0.75719489  0.70848302  1
  Bi2+  Bi112  1  0.58429061  0.00653036  0.20993511  1
  Bi2+  Bi113  1  0.56134574  -0.02455810  0.73456342  1
  Bi2+  Bi114  1  0.69316404  0.26572796  0.21129488  1
  Bi2+  Bi115  1  0.64198852  0.24509387  0.71331399  1
  Bi2+  Bi116  1  0.54077742  0.47765514  0.20327844  1
  Bi2+  Bi117  1  0.64576491  0.44082261  0.68843319  1
  Bi2+  Bi118  1  0.62566081  0.73742083  0.20522641  1
  Bi2+  Bi119  1  0.66890485  0.63419067  0.69177956  1
  Bi2+  Bi120  1  0.84404339  0.05487462  0.19714176  1
  Bi2+  Bi121  1  0.85444483  -0.01566717  0.69176380  1
  Bi2+  Bi122  1  0.87076055  0.24511310  0.15148935  1
  Bi2+  Bi123  1  0.88703530  0.22963829  0.69069134  1
  Bi2+  Bi124  1  0.91268809  0.40279343  0.21826971  1
  Bi2+  Bi125  1  0.90120095  0.49729241  0.71274636  1
  Bi2+  Bi126  1  0.85264802  0.75719347  0.21797681  1
  Bi2+  Bi127  1  0.94109031  0.73600136  0.70145713  1
  S2-  S128  1  0.01506312  0.02935858  0.15313617  1
  S2-  S129  1  -0.02582965  0.09340949  0.66745747  1
  S2-  S130  1  0.02422706  0.46954156  0.15074823  1
  S2-  S131  1  0.03263725  0.27767872  0.64185256  1
  S2-  S132  1  -0.02641033  0.65357276  0.18754789  1
  S2-  S133  1  0.07468407  0.67105401  0.65054846  1
  S2-  S134  1  -0.00693277  0.84078974  0.18727807  1
  S2-  S135  1  -0.04302052  0.88576451  0.64659101  1
  S2-  S136  1  0.24025512  0.12662660  0.16160145  1
  S2-  S137  1  0.33126465  0.12049454  0.63611947  1
  S2-  S138  1  0.22623191  0.37358682  0.15329017  1
  S2-  S139  1  0.26800981  0.37447693  0.64913020  1
  S2-  S140  1  0.17638372  0.62613246  0.14242902  1
  S2-  S141  1  0.22742713  0.56644349  0.69677065  1
  S2-  S142  1  0.17835240  0.86841774  0.14939576  1
  S2-  S143  1  0.25597623  0.81592624  0.64745126  1
  S2-  S144  1  0.46923117  0.11167667  0.16574758  1
  S2-  S145  1  0.52690383  0.01531070  0.63770741  1
  S2-  S146  1  0.46085736  0.34272197  0.16318080  1
  S2-  S147  1  0.49035867  0.38271361  0.66211923  1
  S2-  S148  1  0.57815270  0.61306230  0.13820124  1
  S2-  S149  1  0.40287306  0.61100821  0.64931447  1
  S2-  S150  1  0.59924007  0.86673740  0.14040036  1
  S2-  S151  1  0.50817687  0.77899160  0.64288300  1
  S2-  S152  1  0.67877910  0.11704866  0.15232004  1
  S2-  S153  1  0.76219247  0.12484986  0.65550850  1
  S2-  S154  1  0.66244324  0.39354232  0.14457511  1
  S2-  S155  1  0.84859442  0.38315809  0.63972900  1
  S2-  S156  1  0.76640684  0.64072782  0.17551227  1
  S2-  S157  1  0.86925930  0.62259558  0.63811231  1
  S2-  S158  1  0.79955914  0.90191368  0.17025645  1
  S2-  S159  1  0.73205040  0.88176736  0.65655951  1
  S2-  S160  1  0.11449817  -0.09204115  0.33184328  1
  S2-  S161  1  0.10089480  0.00067571  0.85155248  1
  S2-  S162  1  0.09056444  0.14713570  0.34823110  1
  S2-  S163  1  0.03159527  0.23200539  0.86227146  1
  S2-  S164  1  0.02181240  0.49564140  0.36014173  1
  S2-  S165  1  0.14965054  0.53455855  0.84204512  1
  S2-  S166  1  0.13838529  0.66185789  0.30413756  1
  S2-  S167  1  0.24358608  0.76451295  0.85907608  1
  S2-  S168  1  0.27425810  0.02852936  0.34165985  1
  S2-  S169  1  0.41126990  0.01548885  0.84748610  1
  S2-  S170  1  0.40076029  0.25270050  0.34148354  1
  S2-  S171  1  0.37436684  0.31919671  0.85654049  1
  S2-  S172  1  0.40739466  0.49541358  0.33478450  1
  S2-  S173  1  0.35147169  0.52657223  0.81222044  1
  S2-  S174  1  0.30512962  0.78108456  0.35083141  1
  S2-  S175  1  0.49125004  0.72992768  0.85340194  1
  S2-  S176  1  0.49345806  0.02967784  0.35144501  1
  S2-  S177  1  0.65072202  -0.02400265  0.84896880  1
  S2-  S178  1  0.61457579  0.24239397  0.33789247  1
  S2-  S179  1  0.59815947  0.22128360  0.85193929  1
  S2-  S180  1  0.62893206  0.48036777  0.35045794  1
  S2-  S181  1  0.54503836  0.46869492  0.85041599  1
  S2-  S182  1  0.70834912  0.77305820  0.34713273  1
  S2-  S183  1  0.76006382  0.73762551  0.86739582  1
  S2-  S184  1  0.84809301  -0.04588117  0.34527993  1
  S2-  S185  1  0.88557977  -0.04337801  0.84978579  1
  S2-  S186  1  0.84612336  0.36399786  0.35869983  1
  S2-  S187  1  0.82905788  0.17091704  0.83906145  1
  S2-  S188  1  0.83411867  0.60844518  0.34336957  1
  S2-  S189  1  0.95478275  0.49353662  0.87041537  1
  S2-  S190  1  0.96594758  0.76626873  0.32881868  1
  S2-  S191  1  0.99484906  0.73548522  0.86657358  1
  S2-  S192  1  -0.01064112  0.13788467  0.45457681  1
  S2-  S193  1  0.00577211  0.11565078  0.96415327  1
  S2-  S194  1  -0.00729359  0.38161069  0.46043460  1
  S2-  S195  1  0.00595704  0.36601158  0.96529271  1
  S2-  S196  1  -0.00699101  0.64818147  0.44866402  1
  S2-  S197  1  0.00463371  0.61712947  0.97383689  1
  S2-  S198  1  -0.00639003  0.88914927  0.44137511  1
  S2-  S199  1  0.00490415  0.87136454  0.96931406  1
  S2-  S200  1  0.24233480  0.14240840  0.44736734  1
  S2-  S201  1  0.25550958  0.12102930  0.95559319  1
  S2-  S202  1  0.23662063  0.38856990  0.44662321  1
  S2-  S203  1  0.25306806  0.36879022  0.95245757  1
  S2-  S204  1  0.23375094  0.63857866  0.43663026  1
  S2-  S205  1  0.25950165  0.60803364  0.94994122  1
  S2-  S206  1  0.23602905  0.88812786  0.45056461  1
  S2-  S207  1  0.25505854  0.87255044  0.95920686  1
  S2-  S208  1  0.48959294  0.14262152  0.45830535  1
  S2-  S209  1  0.50690615  0.11697248  0.96154509  1
  S2-  S210  1  0.48971707  0.39254937  0.45389466  1
  S2-  S211  1  0.50834998  0.36564716  0.96136961  1
  S2-  S212  1  0.49151153  0.63817648  0.45200911  1
  S2-  S213  1  0.50207982  0.61088886  0.94831343  1
  S2-  S214  1  0.49126354  0.88347456  0.45083251  1
  S2-  S215  1  0.50500517  0.87067572  0.95254829  1
  S2-  S216  1  0.73994118  0.13793157  0.44719389  1
  S2-  S217  1  0.75490461  0.11615373  0.95722646  1
  S2-  S218  1  0.73577018  0.38909435  0.45876423  1
  S2-  S219  1  0.75891993  0.36673946  0.95053931  1
  S2-  S220  1  0.73868653  0.63596118  0.45557208  1
  S2-  S221  1  0.75539109  0.61351790  0.96529648  1
  S2-  S222  1  0.73945943  0.89165443  0.44965229  1
  S2-  S223  1  0.75187909  0.87281106  0.96574873  1
  S2-  S224  1  0.13757780  -0.00256336  0.05144559  1
  S2-  S225  1  0.11788708  0.01587458  0.54721160  1
  S2-  S226  1  0.13296386  0.24431700  0.05052251  1
  S2-  S227  1  0.12213371  0.26301742  0.53503823  1
  S2-  S228  1  0.13546088  0.48812584  0.04383396  1
  S2-  S229  1  0.11621254  0.51669875  0.55241639  1
  S2-  S230  1  0.13444950  0.74707396  0.04556460  1
  S2-  S231  1  0.12151199  0.76306144  0.54525617  1
  S2-  S232  1  0.38283861  -0.00700810  0.05259346  1
  S2-  S233  1  0.36421802  0.00948817  0.53500634  1
  S2-  S234  1  0.38495940  0.24485115  0.05154050  1
  S2-  S235  1  0.36505097  0.26822646  0.54373733  1
  S2-  S236  1  0.38300522  0.48732010  0.04648483  1
  S2-  S237  1  0.35930158  0.51915644  0.54102998  1
  S2-  S238  1  0.37843580  0.74456276  0.04160485  1
  S2-  S239  1  0.36107646  0.76135029  0.54429113  1
  S2-  S240  1  0.62863243  -0.00264346  0.04885745  1
  S2-  S241  1  0.61836392  0.01480226  0.53389430  1
  S2-  S242  1  0.62872043  0.24298249  0.05130716  1
  S2-  S243  1  0.61193219  0.26499126  0.55107231  1
  S2-  S244  1  0.63038866  0.49286965  0.04069763  1
  S2-  S245  1  0.61424911  0.51865590  0.55164096  1
  S2-  S246  1  0.62777603  0.74155145  0.03802694  1
  S2-  S247  1  0.62195500  0.76563748  0.54096703  1
  S2-  S248  1  0.87930989  -0.00548996  0.05520506  1
  S2-  S249  1  0.86920535  0.01681461  0.54264013  1
  S2-  S250  1  0.88216557  0.24460299  0.03934232  1
  S2-  S251  1  0.86335037  0.26160311  0.54141547  1
  S2-  S252  1  0.87380118  0.49480433  0.06328512  1
  S2-  S253  1  0.86607015  0.51155478  0.53523761  1
  S2-  S254  1  0.87755544  0.74488466  0.06151485  1
  S2-  S255  1  0.86555734  0.76731173  0.53668893  1
