# generated using pymatgen
data_La9Ce10Pr6Nd4Sm3(BiS2)32
_symmetry_space_group_name_H-M   'P 1'
_cell_length_a   16.16603815
_cell_length_b   16.20013484
_cell_length_c   27.06654241
_cell_angle_alpha   89.81824512
_cell_angle_beta   90.01779144
_cell_angle_gamma   89.99140556
_symmetry_Int_Tables_number   1
_chemical_formula_structural   La9Ce10Pr6Nd4Sm3(BiS2)32
_chemical_formula_sum   'La18 Ce20 Pr12 Nd8 Sm6 Bi64 S128'
_cell_volume   7088.47477845
_cell_formula_units_Z   2
loop_
 _symmetry_equiv_pos_site_id
 _symmetry_equiv_pos_as_xyz
  1  'x, y, z'
loop_
 _atom_type_symbol
 _atom_type_oxidation_number
  La3+  3.0
  Ce3+  3.0
  Pr3+  3.0
  Nd3+  3.0
  Sm3+  3.0
  Bi2+  2.0
  S2-  -2.0
loop_
 _atom_site_type_symbol
 _atom_site_label
 _atom_site_symmetry_multiplicity
 _atom_site_fract_x
 _atom_site_fract_y
 _atom_site_fract_z
 _atom_site_occupancy
  La3+  La0  1  0.75395984  0.62489202  0.06369841  1
  La3+  La1  1  0.38478473  0.73771469  0.41985354  1
  La3+  La2  1  0.49334065  0.61668937  0.10664224  1
  La3+  La3  1  0.88669604  0.00406875  0.42320563  1
  La3+  La4  1  0.76350237  0.11625716  0.07595299  1
  La3+  La5  1  0.12662571  0.25408245  0.90571142  1
  La3+  La6  1  0.75465989  0.36977746  0.06226332  1
  La3+  La7  1  0.25268942  0.36382891  0.58187868  1
  La3+  La8  1  0.12498777  0.75321924  0.92365655  1
  La3+  La9  1  0.61206867  0.00595656  0.88863896  1
  La3+  La10  1  0.50824169  0.12282158  0.58612843  1
  La3+  La11  1  0.37027080  0.24077527  0.43702674  1
  La3+  La12  1  0.25225425  0.11399979  0.58132713  1
  La3+  La13  1  0.49022103  0.85908220  0.58337734  1
  La3+  La14  1  0.51109896  0.61345125  0.57173074  1
  La3+  La15  1  0.11554906  0.74172463  0.41292329  1
  La3+  La16  1  0.12943304  0.49330161  0.43674857  1
  La3+  La17  1  0.49640869  0.12433381  0.07953781  1
  Ce3+  Ce18  1  0.00796280  0.87287272  0.05907596  1
  Ce3+  Ce19  1  0.87708791  0.49344135  0.44340851  1
  Ce3+  Ce20  1  0.62489466  -0.00233227  0.44095289  1
  Ce3+  Ce21  1  0.37802326  0.50149973  0.94675518  1
  Ce3+  Ce22  1  0.75155690  0.61755217  0.55801671  1
  Ce3+  Ce23  1  0.50580342  0.36194892  0.55718525  1
  Ce3+  Ce24  1  0.75301545  0.87925911  0.05436818  1
  Ce3+  Ce25  1  0.00679057  0.62532962  0.06333070  1
  Ce3+  Ce26  1  0.87778105  0.24919881  0.93313585  1
  Ce3+  Ce27  1  0.62646291  0.74689408  0.44061279  1
  Ce3+  Ce28  1  0.74964272  0.11508123  0.55930046  1
  Ce3+  Ce29  1  -0.00008812  0.86864001  0.56036053  1
  Ce3+  Ce30  1  0.13332620  -0.00333079  0.93987001  1
  Ce3+  Ce31  1  0.87969528  0.50006210  0.93910989  1
  Ce3+  Ce32  1  0.62526471  0.74587265  0.93296609  1
  Ce3+  Ce33  1  0.37870081  -0.00639057  0.44859772  1
  Ce3+  Ce34  1  0.87838327  0.75078410  0.94119387  1
  Ce3+  Ce35  1  0.50437786  0.37553544  0.06387131  1
  Ce3+  Ce36  1  0.00357177  0.11452240  0.57145205  1
  Ce3+  Ce37  1  0.62868828  0.24205968  0.94675912  1
  Pr3+  Pr38  1  0.00033973  0.37097634  0.56308433  1
  Pr3+  Pr39  1  0.87259500  0.00113583  0.93149142  1
  Pr3+  Pr40  1  0.00952961  0.12463532  0.05220947  1
  Pr3+  Pr41  1  0.75090309  0.87095854  0.55653193  1
  Pr3+  Pr42  1  0.75044002  0.36194769  0.55436530  1
  Pr3+  Pr43  1  0.24954958  0.37418475  0.05688563  1
  Pr3+  Pr44  1  0.87593292  0.74255508  0.44242582  1
  Pr3+  Pr45  1  0.62031040  0.23600145  0.41670734  1
  Pr3+  Pr46  1  0.25199066  0.12787914  0.05860172  1
  Pr3+  Pr47  1  0.01260358  0.62636908  0.57627848  1
  Pr3+  Pr48  1  0.25332591  0.62148421  0.55878712  1
  Pr3+  Pr49  1  0.50471310  0.87187446  0.06213646  1
  Nd3+  Nd50  1  0.24593167  0.62276056  0.06755539  1
  Nd3+  Nd51  1  0.00680963  0.37271941  0.05225756  1
  Nd3+  Nd52  1  0.25332128  0.86229090  0.54901332  1
  Nd3+  Nd53  1  0.38071584  0.74803932  0.94420011  1
  Nd3+  Nd54  1  0.13131559  -0.00637081  0.44453286  1
  Nd3+  Nd55  1  0.12378879  0.50503136  0.92291210  1
  Nd3+  Nd56  1  0.38264378  0.24816899  0.94019534  1
  Nd3+  Nd57  1  0.26185840  0.87010158  0.06951224  1
  Sm3+  Sm58  1  0.62781417  0.50251874  0.93982728  1
  Sm3+  Sm59  1  0.37982699  -0.00086216  0.94257786  1
  Sm3+  Sm60  1  0.62557919  0.49087813  0.43505684  1
  Sm3+  Sm61  1  0.37830076  0.49414035  0.45585027  1
  Sm3+  Sm62  1  0.87848832  0.24230650  0.44461115  1
  Sm3+  Sm63  1  0.13109950  0.24377958  0.44799121  1
  Bi2+  Bi64  1  0.02143960  0.16843296  0.26539878  1
  Bi2+  Bi65  1  -0.01243235  0.08594321  0.78989023  1
  Bi2+  Bi66  1  0.00087889  0.36457797  0.26313277  1
  Bi2+  Bi67  1  -0.06476160  0.36319960  0.78399199  1
  Bi2+  Bi68  1  -0.02522707  0.61819131  0.28961877  1
  Bi2+  Bi69  1  -0.06805732  0.63563071  0.78949978  1
  Bi2+  Bi70  1  -0.03747966  0.89868057  0.29610606  1
  Bi2+  Bi71  1  -0.10665770  0.91693905  0.80506601  1
  Bi2+  Bi72  1  0.33323804  0.16300496  0.29351436  1
  Bi2+  Bi73  1  0.21886937  0.03718737  0.80980862  1
  Bi2+  Bi74  1  0.16831303  0.38396370  0.31781634  1
  Bi2+  Bi75  1  0.28785861  0.36628865  0.80706380  1
  Bi2+  Bi76  1  0.24814287  0.59960985  0.29153051  1
  Bi2+  Bi77  1  0.26753984  0.61147346  0.78719337  1
  Bi2+  Bi78  1  0.18898230  0.96269121  0.29976416  1
  Bi2+  Bi79  1  0.23209243  0.83024355  0.77808436  1
  Bi2+  Bi80  1  0.53157305  0.11154525  0.25603173  1
  Bi2+  Bi81  1  0.46970810  0.13510083  0.78002606  1
  Bi2+  Bi82  1  0.52942428  0.36572933  0.29909468  1
  Bi2+  Bi83  1  0.55345103  0.38866944  0.78261421  1
  Bi2+  Bi84  1  0.47842680  0.62171619  0.29755510  1
  Bi2+  Bi85  1  0.48455391  0.67967522  0.79476564  1
  Bi2+  Bi86  1  0.50445181  0.92306549  0.28777153  1
  Bi2+  Bi87  1  0.48570148  0.88783714  0.77821671  1
  Bi2+  Bi88  1  0.76010556  0.14637074  0.30237807  1
  Bi2+  Bi89  1  0.75628385  0.18047960  0.80145279  1
  Bi2+  Bi90  1  0.80686713  0.48002738  0.25782087  1
  Bi2+  Bi91  1  0.74441025  0.38295612  0.81918574  1
  Bi2+  Bi92  1  0.76959679  0.67110227  0.29034301  1
  Bi2+  Bi93  1  0.74008068  0.58327933  0.79503532  1
  Bi2+  Bi94  1  0.69398957  0.85775065  0.30630571  1
  Bi2+  Bi95  1  0.75157020  0.77816481  0.80362198  1
  Bi2+  Bi96  1  0.13611540  0.05055867  0.20533232  1
  Bi2+  Bi97  1  0.09323591  -0.02071304  0.71493790  1
  Bi2+  Bi98  1  0.12206401  0.22649832  0.15863159  1
  Bi2+  Bi99  1  0.14565744  0.25948554  0.71150603  1
  Bi2+  Bi100  1  0.13807775  0.49721451  0.21752966  1
  Bi2+  Bi101  1  0.07369239  0.50041158  0.70028003  1
  Bi2+  Bi102  1  0.09158874  0.75170317  0.21424578  1
  Bi2+  Bi103  1  0.07114025  0.74632338  0.73710079  1
  Bi2+  Bi104  1  0.37085620  0.00330858  0.21924694  1
  Bi2+  Bi105  1  0.29578822  0.00567343  0.70870403  1
  Bi2+  Bi106  1  0.29862877  0.27016244  0.19820470  1
  Bi2+  Bi107  1  0.38739197  0.34105641  0.70785033  1
  Bi2+  Bi108  1  0.34426381  0.42249951  0.26951606  1
  Bi2+  Bi109  1  0.42926369  0.53313560  0.72356514  1
  Bi2+  Bi110  1  0.33353886  0.76401933  0.20757979  1
  Bi2+  Bi111  1  0.29874532  0.71210673  0.68921068  1
  Bi2+  Bi112  1  0.63773469  -0.02991051  0.20745530  1
  Bi2+  Bi113  1  0.70048466  -0.02492145  0.70137394  1
  Bi2+  Bi114  1  0.63771418  0.30099111  0.20835514  1
  Bi2+  Bi115  1  0.64207042  0.25339175  0.71153445  1
  Bi2+  Bi116  1  0.61802450  0.50915227  0.21821946  1
  Bi2+  Bi117  1  0.59536597  0.46551752  0.68055869  1
  Bi2+  Bi118  1  0.65199330  0.77265799  0.20027508  1
  Bi2+  Bi119  1  0.60453537  0.73968177  0.70647452  1
  Bi2+  Bi120  1  0.91074521  0.00656541  0.20780376  1
  Bi2+  Bi121  1  0.90486050  0.00113881  0.67378709  1
  Bi2+  Bi122  1  0.87444778  0.26241436  0.19394938  1
  Bi2+  Bi123  1  0.87945972  0.18137707  0.71311834  1
  Bi2+  Bi124  1  0.88680089  0.60812970  0.18265815  1
  Bi2+  Bi125  1  0.81146063  0.45890933  0.71288444  1
  Bi2+  Bi126  1  0.84951740  0.79034898  0.20863329  1
  Bi2+  Bi127  1  0.88165592  0.79487741  0.71111888  1
  S2-  S128  1  -0.08217126  0.12447135  0.13886870  1
  S2-  S129  1  0.10880776  0.12149523  0.65123258  1
  S2-  S130  1  0.00198322  0.36543319  0.15294921  1
  S2-  S131  1  0.02190007  0.34590310  0.66328840  1
  S2-  S132  1  0.11100781  0.62663212  0.14306130  1
  S2-  S133  1  -0.06175872  0.55533220  0.65996322  1
  S2-  S134  1  -0.01057166  0.86462489  0.15890047  1
  S2-  S135  1  0.02085812  0.77443747  0.64215196  1
  S2-  S136  1  0.34390101  0.11434102  0.14481589  1
  S2-  S137  1  0.27770082  0.23396730  0.65485450  1
  S2-  S138  1  0.24113156  0.42128631  0.15482301  1
  S2-  S139  1  0.22158844  0.41385823  0.68267371  1
  S2-  S140  1  0.33495503  0.63031955  0.15477424  1
  S2-  S141  1  0.16025239  0.61551238  0.64508121  1
  S2-  S142  1  0.19636574  0.83632602  0.16298340  1
  S2-  S143  1  0.31287501  0.86337242  0.64343409  1
  S2-  S144  1  0.51690007  0.21663042  0.17031304  1
  S2-  S145  1  0.42630337  0.08754726  0.67897370  1
  S2-  S146  1  0.50722113  0.45193839  0.15367394  1
  S2-  S147  1  0.51140525  0.28027924  0.64390983  1
  S2-  S148  1  0.49768920  0.70346178  0.20627284  1
  S2-  S149  1  0.46325970  0.71442266  0.64860971  1
  S2-  S150  1  0.39723035  0.87947467  0.14408384  1
  S2-  S151  1  0.54704125  0.89793669  0.67839552  1
  S2-  S152  1  0.73119954  0.18134260  0.17220374  1
  S2-  S153  1  0.66071627  0.11396722  0.64539946  1
  S2-  S154  1  0.76393240  0.40207040  0.16180435  1
  S2-  S155  1  0.76626848  0.32770176  0.65413849  1
  S2-  S156  1  0.65760408  0.61908615  0.14786383  1
  S2-  S157  1  0.66032417  0.60979399  0.64211381  1
  S2-  S158  1  0.77592086  0.96208916  0.14262773  1
  S2-  S159  1  0.73869958  0.81954608  0.65380094  1
  S2-  S160  1  0.03606934  0.00380691  0.36077846  1
  S2-  S161  1  0.14443976  -0.10298438  0.85906635  1
  S2-  S162  1  0.22909215  0.23794565  0.36623532  1
  S2-  S163  1  0.18916845  0.20109552  0.80978995  1
  S2-  S164  1  0.11270422  0.59488230  0.35415654  1
  S2-  S165  1  0.14378943  0.39675401  0.84387301  1
  S2-  S166  1  0.14033711  0.81297656  0.31359614  1
  S2-  S167  1  0.14983380  0.62986838  0.85120183  1
  S2-  S168  1  0.33201341  0.02320034  0.35495738  1
  S2-  S169  1  0.44100938  0.00856406  0.84911718  1
  S2-  S170  1  0.47031019  0.24320284  0.35260597  1
  S2-  S171  1  0.39981295  0.24109043  0.83914270  1
  S2-  S172  1  0.37174729  0.51624725  0.35763657  1
  S2-  S173  1  0.36693917  0.50224741  0.84818559  1
  S2-  S174  1  0.34067206  0.73270260  0.31745625  1
  S2-  S175  1  0.37227122  0.78391876  0.84339152  1
  S2-  S176  1  0.62409381  0.08837491  0.35558710  1
  S2-  S177  1  0.59933727  0.01188040  0.77471215  1
  S2-  S178  1  0.69349993  0.28869482  0.32400475  1
  S2-  S179  1  0.60794387  0.17729519  0.85593039  1
  S2-  S180  1  0.60494395  0.51331837  0.33688733  1
  S2-  S181  1  0.60677746  0.60955159  0.86007767  1
  S2-  S182  1  0.53557602  0.72964078  0.35857213  1
  S2-  S183  1  0.60953632  0.84077496  0.84677467  1
  S2-  S184  1  0.81217405  -0.02119552  0.32950292  1
  S2-  S185  1  0.77400464  0.02200627  0.84737334  1
  S2-  S186  1  0.89750929  0.18457787  0.35288463  1
  S2-  S187  1  0.97121993  0.24000659  0.84750069  1
  S2-  S188  1  0.89401689  0.48897234  0.34605566  1
  S2-  S189  1  0.95776475  0.50159156  0.85053957  1
  S2-  S190  1  0.95510691  0.75401822  0.35338644  1
  S2-  S191  1  0.96917330  0.75807208  0.85755077  1
  S2-  S192  1  0.00855446  0.12532989  0.46347954  1
  S2-  S193  1  0.00744974  0.12003587  0.94588790  1
  S2-  S194  1  0.00316365  0.36491881  0.45300071  1
  S2-  S195  1  0.00201138  0.37321545  0.94771855  1
  S2-  S196  1  -0.00187709  0.61612075  0.46178409  1
  S2-  S197  1  0.00047458  0.62531989  0.95761672  1
  S2-  S198  1  0.00249427  0.86847938  0.45581079  1
  S2-  S199  1  0.00152351  0.88109233  0.95475261  1
  S2-  S200  1  0.24855866  0.11514400  0.46905695  1
  S2-  S201  1  0.25613367  0.12553099  0.94830187  1
  S2-  S202  1  0.25436321  0.37235824  0.46648564  1
  S2-  S203  1  0.25587338  0.37250275  0.94947515  1
  S2-  S204  1  0.25481921  0.61920080  0.45156625  1
  S2-  S205  1  0.25515591  0.62549391  0.95764528  1
  S2-  S206  1  0.25173369  0.86408113  0.44195089  1
  S2-  S207  1  0.26043963  0.87449254  0.96028079  1
  S2-  S208  1  0.49957519  0.11643287  0.45956873  1
  S2-  S209  1  0.50128062  0.12097633  0.96239722  1
  S2-  S210  1  0.50182170  0.37159406  0.45151557  1
  S2-  S211  1  0.50728447  0.37514117  0.95244730  1
  S2-  S212  1  0.50633452  0.61099945  0.46050484  1
  S2-  S213  1  0.50115996  0.62243754  0.95952122  1
  S2-  S214  1  0.50235041  0.87143409  0.45186292  1
  S2-  S215  1  0.50227752  0.87745058  0.95561199  1
  S2-  S216  1  0.75559111  0.12001868  0.45372999  1
  S2-  S217  1  0.75658470  0.12790864  0.96130169  1
  S2-  S218  1  0.75264040  0.36566209  0.44601000  1
  S2-  S219  1  0.75129539  0.37552608  0.95304625  1
  S2-  S220  1  0.74862197  0.61660820  0.44890679  1
  S2-  S221  1  0.75567222  0.62299543  0.95445157  1
  S2-  S222  1  0.75466669  0.87230284  0.44870968  1
  S2-  S223  1  0.75134469  0.87287032  0.94951433  1
  S2-  S224  1  0.13410562  -0.00285546  0.04927268  1
  S2-  S225  1  0.12819986  -0.01357235  0.55126501  1
  S2-  S226  1  0.12945861  0.25008416  0.03078345  1
  S2-  S227  1  0.12596754  0.24601880  0.55077371  1
  S2-  S228  1  0.12586496  0.49818791  0.03690827  1
  S2-  S229  1  0.12795352  0.49066334  0.54680522  1
  S2-  S230  1  0.12900737  0.75232453  0.03905929  1
  S2-  S231  1  0.12999076  0.74484405  0.53366269  1
  S2-  S232  1  0.37756354  -0.00002404  0.04458806  1
  S2-  S233  1  0.37995014  -0.00663100  0.55326769  1
  S2-  S234  1  0.37881714  0.25372417  0.04720463  1
  S2-  S235  1  0.37899778  0.24087678  0.54644297  1
  S2-  S236  1  0.37720834  0.49827521  0.05155220  1
  S2-  S237  1  0.37836880  0.49183146  0.56197178  1
  S2-  S238  1  0.38232800  0.74136252  0.04993352  1
  S2-  S239  1  0.37887926  0.74041593  0.53428235  1
  S2-  S240  1  0.62298637  0.00237825  0.05989773  1
  S2-  S241  1  0.61983331  -0.01283478  0.54808014  1
  S2-  S242  1  0.62761528  0.24666979  0.05326803  1
  S2-  S243  1  0.62863508  0.23934376  0.53608573  1
  S2-  S244  1  0.62961800  0.49667565  0.04417242  1
  S2-  S245  1  0.63049878  0.48699244  0.53992571  1
  S2-  S246  1  0.63036369  0.75251055  0.04483302  1
  S2-  S247  1  0.62547098  0.74715805  0.54490971  1
  S2-  S248  1  0.88572270  -0.00458052  0.03809548  1
  S2-  S249  1  0.87821693  -0.00552289  0.53924801  1
  S2-  S250  1  0.88202795  0.25016776  0.04071949  1
  S2-  S251  1  0.87940716  0.23860773  0.55076184  1
  S2-  S252  1  0.88105057  0.49783311  0.04752571  1
  S2-  S253  1  0.87227809  0.49119095  0.54836714  1
  S2-  S254  1  0.87932167  0.75203228  0.04911614  1
  S2-  S255  1  0.87417391  0.74120133  0.54917060  1
