# generated using pymatgen
data_La9Ce10Pr6Nd4Sm3(BiS2)32
_symmetry_space_group_name_H-M   'P 1'
_cell_length_a   16.15884369
_cell_length_b   16.15735157
_cell_length_c   27.15933538
_cell_angle_alpha   90.07624566
_cell_angle_beta   89.81616566
_cell_angle_gamma   89.97759582
_symmetry_Int_Tables_number   1
_chemical_formula_structural   La9Ce10Pr6Nd4Sm3(BiS2)32
_chemical_formula_sum   'La18 Ce20 Pr12 Nd8 Sm6 Bi64 S128'
_cell_volume   7090.82780237
_cell_formula_units_Z   2
loop_
 _symmetry_equiv_pos_site_id
 _symmetry_equiv_pos_as_xyz
  1  'x, y, z'
loop_
 _atom_type_symbol
 _atom_type_oxidation_number
  La3+  3.0
  Ce3+  3.0
  Pr3+  3.0
  Nd3+  3.0
  Sm3+  3.0
  Bi2+  2.0
  S2-  -2.0
loop_
 _atom_site_type_symbol
 _atom_site_label
 _atom_site_symmetry_multiplicity
 _atom_site_fract_x
 _atom_site_fract_y
 _atom_site_fract_z
 _atom_site_occupancy
  La3+  La0  1  0.24020216  0.11631992  0.06778997  1
  La3+  La1  1  0.24871540  0.36833464  0.06232543  1
  La3+  La2  1  0.49881789  0.87340011  0.56944977  1
  La3+  La3  1  0.87988500  0.75217908  0.43687297  1
  La3+  La4  1  0.48022477  0.60216690  0.08971875  1
  La3+  La5  1  0.87438336  0.00033768  0.90634515  1
  La3+  La6  1  0.48994612  0.12292556  0.06005839  1
  La3+  La7  1  0.62217924  0.25301458  0.43285165  1
  La3+  La8  1  0.74268403  0.11975598  0.06509712  1
  La3+  La9  1  0.37658060  0.74229200  0.43115067  1
  La3+  La10  1  0.50074029  0.37969750  0.57936468  1
  La3+  La11  1  0.12253822  0.24515070  0.93341205  1
  La3+  La12  1  -0.00787374  0.11555569  0.06601562  1
  La3+  La13  1  0.63252339  0.75928517  0.39001712  1
  La3+  La14  1  0.24515663  0.36665841  0.60336313  1
  La3+  La15  1  0.11714388  0.73969962  0.92299015  1
  La3+  La16  1  0.35616291  0.49993818  0.89544573  1
  La3+  La17  1  0.49299509  0.86558121  0.06533847  1
  Ce3+  Ce18  1  0.24819885  0.13038879  0.55454408  1
  Ce3+  Ce19  1  0.24058764  0.61759421  0.05448586  1
  Ce3+  Ce20  1  0.37663250  0.25231192  0.43764848  1
  Ce3+  Ce21  1  0.24243236  0.86858261  0.05756047  1
  Ce3+  Ce22  1  0.86947502  0.24905558  0.43423678  1
  Ce3+  Ce23  1  0.37458952  -0.00443638  0.93080353  1
  Ce3+  Ce24  1  0.86792174  0.24133654  0.94077078  1
  Ce3+  Ce25  1  0.49099958  0.62347519  0.57128010  1
  Ce3+  Ce26  1  -0.00239037  0.37130579  0.06025130  1
  Ce3+  Ce27  1  0.37037722  0.49964244  0.45136271  1
  Ce3+  Ce28  1  0.00237161  0.13031837  0.56195731  1
  Ce3+  Ce29  1  0.24602960  0.87419509  0.55743007  1
  Ce3+  Ce30  1  0.24904535  0.62479707  0.57282240  1
  Ce3+  Ce31  1  0.62368115  0.74004455  0.94292981  1
  Ce3+  Ce32  1  -0.00754535  0.86864575  0.04885143  1
  Ce3+  Ce33  1  0.37178610  0.74199879  0.94057271  1
  Ce3+  Ce34  1  0.87312440  0.50102136  0.44157679  1
  Ce3+  Ce35  1  -0.00056068  0.62422596  0.56534315  1
  Ce3+  Ce36  1  0.12668707  0.49513295  0.44906178  1
  Ce3+  Ce37  1  0.62071829  0.50928022  0.44104926  1
  Pr3+  Pr38  1  0.74873605  0.37737558  0.56630891  1
  Pr3+  Pr39  1  -0.00513181  0.87707436  0.58146851  1
  Pr3+  Pr40  1  0.74734001  0.86677809  0.05926758  1
  Pr3+  Pr41  1  0.74540004  0.87381376  0.56988169  1
  Pr3+  Pr42  1  0.74347736  0.37274693  0.06617076  1
  Pr3+  Pr43  1  0.12297655  -0.00890478  0.92942963  1
  Pr3+  Pr44  1  -0.00362502  0.62265626  0.05820615  1
  Pr3+  Pr45  1  0.11756250  0.24345988  0.42440942  1
  Pr3+  Pr46  1  0.10768710  0.49254305  0.92804447  1
  Pr3+  Pr47  1  0.62005018  0.24721019  0.93626469  1
  Pr3+  Pr48  1  0.86063656  0.49277353  0.92878832  1
  Pr3+  Pr49  1  0.87275806  -0.00301430  0.44405884  1
  Nd3+  Nd50  1  -0.00138685  0.37454325  0.55937687  1
  Nd3+  Nd51  1  0.61766146  0.49776643  0.94290566  1
  Nd3+  Nd52  1  0.49611862  0.12950840  0.55929810  1
  Nd3+  Nd53  1  0.74808009  0.12627992  0.55983928  1
  Nd3+  Nd54  1  0.37601215  0.24481827  0.92017785  1
  Nd3+  Nd55  1  0.62418345  -0.00638217  0.93862866  1
  Nd3+  Nd56  1  0.12264996  0.74777819  0.44377253  1
  Nd3+  Nd57  1  0.75346197  0.62178948  0.07006407  1
  Sm3+  Sm58  1  0.49040949  0.37156117  0.04718027  1
  Sm3+  Sm59  1  0.74720634  0.62841320  0.55580749  1
  Sm3+  Sm60  1  0.62305274  -0.00601706  0.44340225  1
  Sm3+  Sm61  1  0.12460850  -0.00058037  0.44720039  1
  Sm3+  Sm62  1  0.37611427  -0.00329611  0.44722329  1
  Sm3+  Sm63  1  0.86731694  0.74828002  0.91994752  1
  Bi2+  Bi64  1  0.01580163  0.08730809  0.29276377  1
  Bi2+  Bi65  1  -0.04942267  0.09645052  0.76827855  1
  Bi2+  Bi66  1  0.05084117  0.42265893  0.27930545  1
  Bi2+  Bi67  1  -0.02565727  0.36338153  0.78488020  1
  Bi2+  Bi68  1  -0.01007088  0.63300046  0.29746515  1
  Bi2+  Bi69  1  -0.04337869  0.61064894  0.77240350  1
  Bi2+  Bi70  1  0.02696808  0.81677273  0.26380592  1
  Bi2+  Bi71  1  0.00905977  0.85910572  0.79024428  1
  Bi2+  Bi72  1  0.23317864  0.16526496  0.30002460  1
  Bi2+  Bi73  1  0.24123123  0.11900613  0.77724120  1
  Bi2+  Bi74  1  0.31552455  0.34776795  0.28956817  1
  Bi2+  Bi75  1  0.22321901  0.38252929  0.78004783  1
  Bi2+  Bi76  1  0.23127358  0.61908128  0.29280304  1
  Bi2+  Bi77  1  0.22107723  0.66180643  0.78779512  1
  Bi2+  Bi78  1  0.21820937  0.80853372  0.30819550  1
  Bi2+  Bi79  1  0.27346267  0.92431113  0.79022527  1
  Bi2+  Bi80  1  0.44213860  0.11936458  0.30383006  1
  Bi2+  Bi81  1  0.50527241  0.04072381  0.80632040  1
  Bi2+  Bi82  1  0.51049121  0.38093942  0.28705993  1
  Bi2+  Bi83  1  0.57369027  0.38871463  0.79679947  1
  Bi2+  Bi84  1  0.47306051  0.62288877  0.29420012  1
  Bi2+  Bi85  1  0.57139497  0.69297246  0.81103503  1
  Bi2+  Bi86  1  0.41627401  0.87314228  0.26507657  1
  Bi2+  Bi87  1  0.45220252  0.85518565  0.83245794  1
  Bi2+  Bi88  1  0.81047518  0.12404416  0.30475973  1
  Bi2+  Bi89  1  0.69227826  0.15445070  0.82038304  1
  Bi2+  Bi90  1  0.70782393  0.36653546  0.28094104  1
  Bi2+  Bi91  1  0.78921630  0.32734306  0.81896037  1
  Bi2+  Bi92  1  0.74490750  0.63045762  0.28272840  1
  Bi2+  Bi93  1  0.75216859  0.59687023  0.78534561  1
  Bi2+  Bi94  1  0.76792267  0.88839072  0.28497670  1
  Bi2+  Bi95  1  0.64707559  0.87753518  0.78509292  1
  Bi2+  Bi96  1  0.16095900  -0.07983823  0.20942457  1
  Bi2+  Bi97  1  0.15867332  -0.00451298  0.69833792  1
  Bi2+  Bi98  1  0.12331205  0.26842387  0.18679343  1
  Bi2+  Bi99  1  0.11016678  0.21187217  0.70857097  1
  Bi2+  Bi100  1  0.03180997  0.56880760  0.18985866  1
  Bi2+  Bi101  1  0.05822375  0.49191079  0.70107548  1
  Bi2+  Bi102  1  0.12316815  0.72972169  0.15310808  1
  Bi2+  Bi103  1  0.16553241  0.74073789  0.69426964  1
  Bi2+  Bi104  1  0.31747030  0.03690996  0.23000482  1
  Bi2+  Bi105  1  0.41940284  -0.04595531  0.71079099  1
  Bi2+  Bi106  1  0.41457822  0.27626935  0.19464012  1
  Bi2+  Bi107  1  0.37911867  0.21720015  0.71917106  1
  Bi2+  Bi108  1  0.28481077  0.48985827  0.21543342  1
  Bi2+  Bi109  1  0.39793235  0.51464024  0.71213980  1
  Bi2+  Bi110  1  0.29737502  0.75609820  0.20346046  1
  Bi2+  Bi111  1  0.40015836  0.75800449  0.72991341  1
  Bi2+  Bi112  1  0.62796404  0.06523542  0.28681575  1
  Bi2+  Bi113  1  0.60302930  0.03613514  0.70295563  1
  Bi2+  Bi114  1  0.64473854  0.21215246  0.21038020  1
  Bi2+  Bi115  1  0.66377460  0.25937552  0.72829045  1
  Bi2+  Bi116  1  0.59732774  0.48137203  0.20114352  1
  Bi2+  Bi117  1  0.69041020  0.49775316  0.69233018  1
  Bi2+  Bi118  1  0.61926143  0.75846541  0.17920601  1
  Bi2+  Bi119  1  0.59131799  0.74654281  0.70111396  1
  Bi2+  Bi120  1  0.92089369  0.05825785  0.19977888  1
  Bi2+  Bi121  1  0.81564752  -0.02477617  0.72579761  1
  Bi2+  Bi122  1  0.92035067  0.28022515  0.25470202  1
  Bi2+  Bi123  1  0.86301394  0.24564561  0.71006005  1
  Bi2+  Bi124  1  0.86717333  0.47092427  0.24150817  1
  Bi2+  Bi125  1  0.87199073  0.42961237  0.67612709  1
  Bi2+  Bi126  1  0.87795527  0.79521532  0.18962495  1
  Bi2+  Bi127  1  0.80339158  0.75796833  0.72633814  1
  S2-  S128  1  0.08431470  0.12254637  0.15236848  1
  S2-  S129  1  0.01892010  0.08500972  0.65679422  1
  S2-  S130  1  -0.03086286  0.32154550  0.15353645  1
  S2-  S131  1  0.08022817  0.33216128  0.64538459  1
  S2-  S132  1  -0.10848323  0.64742956  0.13975540  1
  S2-  S133  1  0.02585364  0.65309341  0.66194204  1
  S2-  S134  1  -0.02891796  0.92293020  0.14208898  1
  S2-  S135  1  0.05256157  0.86602292  0.68186047  1
  S2-  S136  1  0.27713634  0.23792963  0.14046049  1
  S2-  S137  1  0.25342390  0.19760272  0.64528443  1
  S2-  S138  1  0.17283490  0.42511499  0.15097354  1
  S2-  S139  1  0.22984863  0.48313511  0.68296806  1
  S2-  S140  1  0.31996800  0.60853197  0.14287047  1
  S2-  S141  1  0.36215824  0.64757439  0.64746818  1
  S2-  S142  1  0.26444737  0.97969332  0.13443166  1
  S2-  S143  1  0.26463435  0.87306905  0.65434275  1
  S2-  S144  1  0.50345624  0.14155760  0.16019707  1
  S2-  S145  1  0.49146196  0.15700218  0.65875993  1
  S2-  S146  1  0.46653158  0.42396546  0.14111773  1
  S2-  S147  1  0.39541582  0.35961551  0.66344892  1
  S2-  S148  1  0.50604923  0.63295013  0.19165399  1
  S2-  S149  1  0.52772213  0.52689461  0.65281831  1
  S2-  S150  1  0.49408274  0.87189995  0.16678735  1
  S2-  S151  1  0.61818625  0.88770147  0.64532755  1
  S2-  S152  1  0.78118257  0.12297920  0.16355556  1
  S2-  S153  1  0.75329528  0.08750111  0.65760476  1
  S2-  S154  1  0.70422472  0.35010058  0.16411509  1
  S2-  S155  1  0.63827857  0.34848696  0.64413146  1
  S2-  S156  1  0.70065390  0.59948451  0.16653368  1
  S2-  S157  1  0.77036419  0.64479416  0.65453709  1
  S2-  S158  1  0.74073615  0.88373004  0.16113209  1
  S2-  S159  1  0.85522242  0.87350928  0.64979786  1
  S2-  S160  1  0.13760635  0.03668685  0.35076949  1
  S2-  S161  1  0.03248071  0.00811515  0.84176718  1
  S2-  S162  1  0.15711553  0.31526132  0.33311511  1
  S2-  S163  1  0.10991355  0.28482525  0.83434949  1
  S2-  S164  1  0.11227660  0.53466662  0.35249365  1
  S2-  S165  1  0.19772534  0.51236961  0.83877030  1
  S2-  S166  1  0.01349685  0.76282947  0.36617046  1
  S2-  S167  1  0.16298277  0.82716593  0.83660321  1
  S2-  S168  1  0.38411334  -0.02286598  0.34915558  1
  S2-  S169  1  0.36128320  0.10780214  0.85440326  1
  S2-  S170  1  0.49337442  0.25738275  0.36149544  1
  S2-  S171  1  0.33772753  0.34601491  0.83985374  1
  S2-  S172  1  0.36464067  0.58542267  0.36383657  1
  S2-  S173  1  0.46795491  0.50733284  0.80977473  1
  S2-  S174  1  0.47145639  0.76637387  0.34543684  1
  S2-  S175  1  0.34090745  0.67075664  0.85236899  1
  S2-  S176  1  0.64046747  -0.07328645  0.35301457  1
  S2-  S177  1  0.71536912  -0.00361344  0.85252303  1
  S2-  S178  1  0.74701919  0.26134334  0.35897891  1
  S2-  S179  1  0.53228001  0.25045086  0.84812156  1
  S2-  S180  1  0.61745032  0.58916018  0.35062077  1
  S2-  S181  1  0.71414175  0.47616112  0.85893874  1
  S2-  S182  1  0.64750684  0.76350470  0.27485844  1
  S2-  S183  1  0.72461166  0.71859029  0.86180120  1
  S2-  S184  1  0.88475224  -0.02448181  0.34283457  1
  S2-  S185  1  0.87529623  -0.13442669  0.84052582  1
  S2-  S186  1  0.97357369  0.22695139  0.35574829  1
  S2-  S187  1  0.87766315  0.15868802  0.85348443  1
  S2-  S188  1  0.85926932  0.53150410  0.34459791  1
  S2-  S189  1  0.97862625  0.49419331  0.85144160  1
  S2-  S190  1  0.79481556  0.75533381  0.34671681  1
  S2-  S191  1  0.99254563  0.71130084  0.84602511  1
  S2-  S192  1  -0.00165466  0.11943391  0.45705707  1
  S2-  S193  1  -0.00263366  0.11866864  0.95519290  1
  S2-  S194  1  -0.00366605  0.37534038  0.45209698  1
  S2-  S195  1  -0.01224246  0.36533385  0.95221623  1
  S2-  S196  1  0.00083585  0.61984894  0.46016162  1
  S2-  S197  1  -0.01470681  0.61886153  0.95301479  1
  S2-  S198  1  0.00326458  0.88019478  0.46780114  1
  S2-  S199  1  -0.00535548  0.87036748  0.94535193  1
  S2-  S200  1  0.25286673  0.12288437  0.44963985  1
  S2-  S201  1  0.24341649  0.11793458  0.95356353  1
  S2-  S202  1  0.25024806  0.37241210  0.44495531  1
  S2-  S203  1  0.24199967  0.37295935  0.94920594  1
  S2-  S204  1  0.24399480  0.62526317  0.46444765  1
  S2-  S205  1  0.23883133  0.61678667  0.95072752  1
  S2-  S206  1  0.24835931  0.87454338  0.45079274  1
  S2-  S207  1  0.24979903  0.86960029  0.95024492  1
  S2-  S208  1  0.49903810  0.11796135  0.45415512  1
  S2-  S209  1  0.50058442  0.11712652  0.95263855  1
  S2-  S210  1  0.49926397  0.38242649  0.46170535  1
  S2-  S211  1  0.49187089  0.37797832  0.94462823  1
  S2-  S212  1  0.49569258  0.62314431  0.46346152  1
  S2-  S213  1  0.49548324  0.61947244  0.94542181  1
  S2-  S214  1  0.49885849  0.87499141  0.45958649  1
  S2-  S215  1  0.50050852  0.86841361  0.95595341  1
  S2-  S216  1  0.74520860  0.11912111  0.45331473  1
  S2-  S217  1  0.74228308  0.12102005  0.95755506  1
  S2-  S218  1  0.74720610  0.38242932  0.45825072  1
  S2-  S219  1  0.74368393  0.36760746  0.96031144  1
  S2-  S220  1  0.74881241  0.62857769  0.45267797  1
  S2-  S221  1  0.74573562  0.61559374  0.96271689  1
  S2-  S222  1  0.74672729  0.87261658  0.46068132  1
  S2-  S223  1  0.74545891  0.86869754  0.95325192  1
  S2-  S224  1  0.11823455  -0.00934451  0.03775737  1
  S2-  S225  1  0.12467968  0.00168284  0.55187793  1
  S2-  S226  1  0.11774496  0.24518895  0.04207189  1
  S2-  S227  1  0.12479877  0.25053953  0.53539095  1
  S2-  S228  1  0.11613788  0.49588781  0.03739848  1
  S2-  S229  1  0.12581966  0.49641336  0.55536517  1
  S2-  S230  1  0.11941954  0.74680469  0.03352207  1
  S2-  S231  1  0.12211255  0.75090914  0.55095381  1
  S2-  S232  1  0.37409143  -0.00676457  0.03781359  1
  S2-  S233  1  0.37270129  0.00195340  0.55318261  1
  S2-  S234  1  0.37277426  0.24592199  0.03144656  1
  S2-  S235  1  0.37338207  0.25411396  0.54388750  1
  S2-  S236  1  0.36723587  0.49470398  0.03900109  1
  S2-  S237  1  0.36294492  0.49358414  0.55515098  1
  S2-  S238  1  0.36931233  0.74114692  0.04735261  1
  S2-  S239  1  0.37091638  0.75354428  0.54338369  1
  S2-  S240  1  0.61845694  -0.00654659  0.04980680  1
  S2-  S241  1  0.62129336  0.00527097  0.54686823  1
  S2-  S242  1  0.61700528  0.24947898  0.04615018  1
  S2-  S243  1  0.62353209  0.24720554  0.54172822  1
  S2-  S244  1  0.61653426  0.49661232  0.04888490  1
  S2-  S245  1  0.62737656  0.50413987  0.54547410  1
  S2-  S246  1  0.61660113  0.73557387  0.05274262  1
  S2-  S247  1  0.62080035  0.74317647  0.55576372  1
  S2-  S248  1  0.86581522  -0.00475340  0.04191890  1
  S2-  S249  1  0.87525652  0.00424939  0.55071686  1
  S2-  S250  1  0.86755952  0.24559330  0.04827027  1
  S2-  S251  1  0.87279081  0.25042012  0.54675726  1
  S2-  S252  1  0.87010419  0.49235365  0.04570233  1
  S2-  S253  1  0.87406497  0.50289370  0.54803538  1
  S2-  S254  1  0.86995330  0.74723085  0.03336122  1
  S2-  S255  1  0.87623696  0.74850287  0.54738847  1
