# generated using pymatgen
data_La9Ce10Pr6Nd4Sm3(BiS2)32
_symmetry_space_group_name_H-M   'P 1'
_cell_length_a   16.12453508
_cell_length_b   16.14247695
_cell_length_c   27.34872939
_cell_angle_alpha   90.09197895
_cell_angle_beta   90.06592184
_cell_angle_gamma   90.10309084
_symmetry_Int_Tables_number   1
_chemical_formula_structural   La9Ce10Pr6Nd4Sm3(BiS2)32
_chemical_formula_sum   'La18 Ce20 Pr12 Nd8 Sm6 Bi64 S128'
_cell_volume   7118.57358890
_cell_formula_units_Z   2
loop_
 _symmetry_equiv_pos_site_id
 _symmetry_equiv_pos_as_xyz
  1  'x, y, z'
loop_
 _atom_type_symbol
 _atom_type_oxidation_number
  La3+  3.0
  Ce3+  3.0
  Pr3+  3.0
  Nd3+  3.0
  Sm3+  3.0
  Bi2+  2.0
  S2-  -2.0
loop_
 _atom_site_type_symbol
 _atom_site_label
 _atom_site_symmetry_multiplicity
 _atom_site_fract_x
 _atom_site_fract_y
 _atom_site_fract_z
 _atom_site_occupancy
  La3+  La0  1  0.62198577  -0.00289165  0.42424821  1
  La3+  La1  1  0.87608282  0.25623737  0.43071176  1
  La3+  La2  1  0.35987373  0.01258500  0.92713252  1
  La3+  La3  1  0.12638388  0.75489256  0.93997051  1
  La3+  La4  1  0.62501730  0.74830461  0.42963197  1
  La3+  La5  1  0.12541336  -0.00849024  0.43257627  1
  La3+  La6  1  0.25096936  0.38095736  0.08662522  1
  La3+  La7  1  0.49704529  0.88419382  0.06273905  1
  La3+  La8  1  0.75440188  0.88013895  0.57423139  1
  La3+  La9  1  0.60889442  0.00692366  0.90254766  1
  La3+  La10  1  0.37806574  0.50245787  0.42770726  1
  La3+  La11  1  0.74888461  0.37426240  0.56442972  1
  La3+  La12  1  0.62373324  0.75016890  0.92095673  1
  La3+  La13  1  0.35590384  0.50816380  0.92946995  1
  La3+  La14  1  0.38510435  0.24653037  0.42025968  1
  La3+  La15  1  -0.00126514  0.37105229  0.57886073  1
  La3+  La16  1  0.87944179  0.75861812  0.92549800  1
  La3+  La17  1  -0.00674725  0.62741793  0.07837830  1
  Ce3+  Ce18  1  -0.01440765  0.37991986  0.07625417  1
  Ce3+  Ce19  1  0.61360762  0.25594602  0.93297327  1
  Ce3+  Ce20  1  0.12920564  0.49997163  0.43131188  1
  Ce3+  Ce21  1  0.74254092  0.12619356  0.04452084  1
  Ce3+  Ce22  1  0.36296919  0.26362585  0.93206352  1
  Ce3+  Ce23  1  0.12180599  0.74786469  0.44263607  1
  Ce3+  Ce24  1  0.62683279  0.50515155  0.42917400  1
  Ce3+  Ce25  1  0.24754996  0.62070279  0.55846504  1
  Ce3+  Ce26  1  0.37915941  -0.00265141  0.43688613  1
  Ce3+  Ce27  1  0.61552272  0.50961574  0.94315040  1
  Ce3+  Ce28  1  0.74664420  0.37685898  0.05703807  1
  Ce3+  Ce29  1  0.00303298  0.12879130  0.55588445  1
  Ce3+  Ce30  1  0.50501165  0.87467365  0.56146257  1
  Ce3+  Ce31  1  0.11597925  0.26011034  0.95511338  1
  Ce3+  Ce32  1  0.50046804  0.63026950  0.06249696  1
  Ce3+  Ce33  1  -0.00437893  0.62207452  0.57853657  1
  Ce3+  Ce34  1  0.87647541  0.74827400  0.44768179  1
  Ce3+  Ce35  1  0.24324969  0.13075172  0.05868657  1
  Ce3+  Ce36  1  0.36613542  0.75966089  0.94802508  1
  Ce3+  Ce37  1  0.62310062  0.25020246  0.44143164  1
  Pr3+  Pr38  1  0.25219917  0.37273224  0.55206756  1
  Pr3+  Pr39  1  0.50292135  0.61986234  0.56801619  1
  Pr3+  Pr40  1  0.86988553  0.50704604  0.94061876  1
  Pr3+  Pr41  1  0.49521312  0.13022108  0.05473073  1
  Pr3+  Pr42  1  0.74154726  0.88237943  0.05636020  1
  Pr3+  Pr43  1  0.74774171  0.62563132  0.56893163  1
  Pr3+  Pr44  1  0.00365810  0.87126167  0.57331015  1
  Pr3+  Pr45  1  0.12263208  0.25370214  0.42769342  1
  Pr3+  Pr46  1  0.24694302  0.88091896  0.07555271  1
  Pr3+  Pr47  1  0.25202712  0.12449860  0.54817806  1
  Pr3+  Pr48  1  0.74163821  0.63303474  0.06359572  1
  Pr3+  Pr49  1  0.37829398  0.75057733  0.44272482  1
  Nd3+  Nd50  1  -0.00903540  0.12499010  0.05964124  1
  Nd3+  Nd51  1  0.87084379  0.25948453  0.93640173  1
  Nd3+  Nd52  1  0.25489635  0.62792137  0.07674746  1
  Nd3+  Nd53  1  0.87682699  -0.00308279  0.44018665  1
  Nd3+  Nd54  1  0.86244514  0.00536371  0.92375331  1
  Nd3+  Nd55  1  0.11856251  0.00497937  0.94263875  1
  Nd3+  Nd56  1  0.25360030  0.87442388  0.56598094  1
  Nd3+  Nd57  1  0.50123600  0.12168845  0.56497900  1
  Sm3+  Sm58  1  0.49895835  0.37368546  0.55451087  1
  Sm3+  Sm59  1  0.11765889  0.50487449  0.95495165  1
  Sm3+  Sm60  1  0.74980065  0.12431127  0.54598383  1
  Sm3+  Sm61  1  -0.01123218  0.87223904  0.06480263  1
  Sm3+  Sm62  1  0.87895512  0.50286371  0.44482160  1
  Sm3+  Sm63  1  0.49000992  0.37851447  0.05596726  1
  Bi2+  Bi64  1  -0.04507635  0.06547488  0.28680405  1
  Bi2+  Bi65  1  0.03756131  0.06371080  0.80683803  1
  Bi2+  Bi66  1  -0.00452206  0.31942045  0.28572945  1
  Bi2+  Bi67  1  -0.00587809  0.36629656  0.81822840  1
  Bi2+  Bi68  1  0.06536591  0.69173498  0.31252549  1
  Bi2+  Bi69  1  0.00970742  0.62334368  0.77986530  1
  Bi2+  Bi70  1  0.04510774  0.84431756  0.23945595  1
  Bi2+  Bi71  1  0.06061983  0.86072673  0.78900755  1
  Bi2+  Bi72  1  0.23539389  0.09699341  0.29293786  1
  Bi2+  Bi73  1  0.19161041  0.13044804  0.74597040  1
  Bi2+  Bi74  1  0.21715095  0.38926906  0.29150399  1
  Bi2+  Bi75  1  0.26822570  0.29775604  0.80105994  1
  Bi2+  Bi76  1  0.26992531  0.66004523  0.28859861  1
  Bi2+  Bi77  1  0.27414080  0.62425604  0.80093107  1
  Bi2+  Bi78  1  0.29120635  0.84386282  0.32990919  1
  Bi2+  Bi79  1  0.30879665  0.89088858  0.80285273  1
  Bi2+  Bi80  1  0.42427819  0.14678530  0.29982996  1
  Bi2+  Bi81  1  0.47233908  0.16906546  0.77551141  1
  Bi2+  Bi82  1  0.53596610  0.39755137  0.26521472  1
  Bi2+  Bi83  1  0.57204930  0.33535217  0.80068804  1
  Bi2+  Bi84  1  0.54422559  0.61942651  0.28973260  1
  Bi2+  Bi85  1  0.46199266  0.54087288  0.80327265  1
  Bi2+  Bi86  1  0.51468848  0.86840614  0.29577338  1
  Bi2+  Bi87  1  0.52210182  0.91405260  0.76121584  1
  Bi2+  Bi88  1  0.69106344  0.11428578  0.27565441  1
  Bi2+  Bi89  1  0.74448637  0.12440753  0.74974652  1
  Bi2+  Bi90  1  0.72899613  0.38879859  0.29299600  1
  Bi2+  Bi91  1  0.76038940  0.39795679  0.79570088  1
  Bi2+  Bi92  1  0.80842799  0.60535229  0.29638867  1
  Bi2+  Bi93  1  0.73284539  0.59977844  0.78798621  1
  Bi2+  Bi94  1  0.77314154  0.86310197  0.27949021  1
  Bi2+  Bi95  1  0.76515846  0.87566958  0.79505506  1
  Bi2+  Bi96  1  0.14312174  0.00066237  0.20510751  1
  Bi2+  Bi97  1  0.09768854  -0.02425758  0.69781008  1
  Bi2+  Bi98  1  0.07793038  0.19857689  0.21215692  1
  Bi2+  Bi99  1  0.10953780  0.30459648  0.70518946  1
  Bi2+  Bi100  1  0.11715816  0.58545139  0.22294903  1
  Bi2+  Bi101  1  0.14553425  0.46712354  0.76979019  1
  Bi2+  Bi102  1  0.19823279  0.75648370  0.18621059  1
  Bi2+  Bi103  1  0.15618893  0.72211480  0.72480517  1
  Bi2+  Bi104  1  0.33708418  -0.04763235  0.23997534  1
  Bi2+  Bi105  1  0.35857166  0.02648639  0.68493837  1
  Bi2+  Bi106  1  0.34321582  0.23503389  0.20036347  1
  Bi2+  Bi107  1  0.40372417  0.32024429  0.71274888  1
  Bi2+  Bi108  1  0.37755961  0.50472908  0.20956539  1
  Bi2+  Bi109  1  0.34158730  0.50305795  0.69914637  1
  Bi2+  Bi110  1  0.39447458  0.76263813  0.21131749  1
  Bi2+  Bi111  1  0.43393087  0.72479076  0.76122802  1
  Bi2+  Bi112  1  0.59267845  0.01554779  0.19827816  1
  Bi2+  Bi113  1  0.62573153  0.00829386  0.68321962  1
  Bi2+  Bi114  1  0.59618764  0.24147878  0.20394733  1
  Bi2+  Bi115  1  0.69276923  0.30246031  0.70343660  1
  Bi2+  Bi116  1  0.66172471  0.51583922  0.21094118  1
  Bi2+  Bi117  1  0.61093014  0.49393151  0.71906957  1
  Bi2+  Bi118  1  0.64630396  0.76304998  0.21360311  1
  Bi2+  Bi119  1  0.61701593  0.72313611  0.72300722  1
  Bi2+  Bi120  1  0.82993931  0.01428109  0.20468571  1
  Bi2+  Bi121  1  0.90758149  0.02072543  0.71999270  1
  Bi2+  Bi122  1  0.78830089  0.25399914  0.21714451  1
  Bi2+  Bi123  1  0.94764213  0.21192359  0.74236876  1
  Bi2+  Bi124  1  0.87766897  0.49074723  0.20874494  1
  Bi2+  Bi125  1  0.90385768  0.49204950  0.70774769  1
  Bi2+  Bi126  1  0.86874843  0.75970221  0.20350824  1
  Bi2+  Bi127  1  0.91210939  0.75723332  0.71007962  1
  S2-  S128  1  -0.04053750  0.12960259  0.15813815  1
  S2-  S129  1  0.00560549  0.22377293  0.63771390  1
  S2-  S130  1  0.01422473  0.48994419  0.15411189  1
  S2-  S131  1  0.03095954  0.49922644  0.64761502  1
  S2-  S132  1  -0.14948771  0.62193836  0.14521822  1
  S2-  S133  1  0.04083550  0.74602108  0.64886134  1
  S2-  S134  1  0.01625528  0.76349183  0.14619055  1
  S2-  S135  1  -0.11454810  0.89374126  0.64884426  1
  S2-  S136  1  0.25586597  0.10570268  0.15412991  1
  S2-  S137  1  0.26102831  0.14001051  0.64824509  1
  S2-  S138  1  0.20368276  0.31411065  0.18333810  1
  S2-  S139  1  0.24862079  0.37867659  0.65302203  1
  S2-  S140  1  0.23766422  0.51801916  0.15757229  1
  S2-  S141  1  0.26308664  0.63717920  0.65600573  1
  S2-  S142  1  0.38168631  0.89330007  0.14375186  1
  S2-  S143  1  0.24907344  0.90255144  0.66443525  1
  S2-  S144  1  0.47896064  0.13626127  0.15612671  1
  S2-  S145  1  0.49910626  0.13580058  0.66527915  1
  S2-  S146  1  0.40898785  0.37259540  0.14438233  1
  S2-  S147  1  0.48838493  0.42608546  0.64811997  1
  S2-  S148  1  0.40600650  0.62592864  0.14557472  1
  S2-  S149  1  0.62250359  0.61680350  0.64257129  1
  S2-  S150  1  0.62111168  0.88198754  0.13800949  1
  S2-  S151  1  0.47213481  0.90212868  0.65623997  1
  S2-  S152  1  0.71679571  0.08949281  0.13725776  1
  S2-  S153  1  0.75069166  0.10258532  0.64285939  1
  S2-  S154  1  0.84027384  0.36027266  0.14140024  1
  S2-  S155  1  0.83770711  0.36633873  0.65075676  1
  S2-  S156  1  0.62083136  0.64428065  0.14067142  1
  S2-  S157  1  0.85520824  0.62659896  0.65142500  1
  S2-  S158  1  0.85936820  0.89702306  0.13452427  1
  S2-  S159  1  0.68445810  0.84653826  0.66723341  1
  S2-  S160  1  0.09035316  0.05078023  0.34029747  1
  S2-  S161  1  0.21890562  -0.01359064  0.85921329  1
  S2-  S162  1  0.14115366  0.24584878  0.32696780  1
  S2-  S163  1  0.11460799  0.26911971  0.85774956  1
  S2-  S164  1  0.07333433  0.43341941  0.34560064  1
  S2-  S165  1  0.19705488  0.51692878  0.86745500  1
  S2-  S166  1  0.12466231  0.84628119  0.36221371  1
  S2-  S167  1  0.02691943  0.73172219  0.85705821  1
  S2-  S168  1  0.48005178  0.00876007  0.35631056  1
  S2-  S169  1  0.45202839  -0.01841760  0.84197947  1
  S2-  S170  1  0.34562641  0.30749206  0.32501869  1
  S2-  S171  1  0.35585683  0.16666076  0.84981654  1
  S2-  S172  1  0.25864016  0.51625956  0.35253777  1
  S2-  S173  1  0.37085737  0.38503141  0.85653655  1
  S2-  S174  1  0.47834639  0.73609215  0.35815954  1
  S2-  S175  1  0.26567632  0.76506265  0.86709615  1
  S2-  S176  1  0.65437879  -0.12884275  0.35528214  1
  S2-  S177  1  0.75224690  0.02548625  0.83862383  1
  S2-  S178  1  0.53937959  0.23089140  0.35843438  1
  S2-  S179  1  0.59673299  0.17225617  0.84623903  1
  S2-  S180  1  0.50215123  0.49529663  0.35399310  1
  S2-  S181  1  0.60290318  0.59553823  0.85798486  1
  S2-  S182  1  0.67131172  0.62614857  0.35694636  1
  S2-  S183  1  0.61195661  0.85792535  0.84062771  1
  S2-  S184  1  0.88528870  -0.05081552  0.34481912  1
  S2-  S185  1  0.89791065  -0.10859283  0.84917933  1
  S2-  S186  1  0.89529249  0.21446791  0.33386035  1
  S2-  S187  1  0.85281588  0.26329388  0.83729381  1
  S2-  S188  1  0.85626785  0.46459101  0.34835994  1
  S2-  S189  1  0.91020449  0.51856216  0.84260208  1
  S2-  S190  1  0.90470754  0.70953210  0.35290516  1
  S2-  S191  1  0.76939498  0.72627964  0.84784210  1
  S2-  S192  1  0.00015073  0.12570888  0.44972153  1
  S2-  S193  1  -0.00861070  0.12958407  0.95158634  1
  S2-  S194  1  -0.00102984  0.37599300  0.45744513  1
  S2-  S195  1  -0.00790109  0.38281642  0.96409881  1
  S2-  S196  1  0.00215512  0.62153805  0.45964919  1
  S2-  S197  1  -0.00321586  0.62607541  0.96352219  1
  S2-  S198  1  -0.00194604  0.87331180  0.46343933  1
  S2-  S199  1  -0.00042175  0.88296809  0.95972957  1
  S2-  S200  1  0.25263949  0.12487619  0.44140900  1
  S2-  S201  1  0.23684173  0.13670689  0.95582788  1
  S2-  S202  1  0.25442977  0.36928340  0.44654000  1
  S2-  S203  1  0.23961454  0.38053239  0.96797466  1
  S2-  S204  1  0.25070433  0.63032464  0.45347350  1
  S2-  S205  1  0.24326022  0.62966964  0.96942443  1
  S2-  S206  1  0.25514096  0.87440200  0.46081872  1
  S2-  S207  1  0.24373305  0.88532122  0.96909938  1
  S2-  S208  1  0.50198279  0.12274811  0.46045567  1
  S2-  S209  1  0.48945753  0.13585463  0.94976405  1
  S2-  S210  1  0.50188294  0.37452391  0.45300961  1
  S2-  S211  1  0.49456769  0.38449310  0.95296525  1
  S2-  S212  1  0.50216102  0.62339342  0.46218857  1
  S2-  S213  1  0.48538179  0.63008306  0.95608581  1
  S2-  S214  1  0.50086272  0.87611698  0.45760674  1
  S2-  S215  1  0.48995522  0.87987186  0.95162075  1
  S2-  S216  1  0.74970184  0.12372845  0.44094982  1
  S2-  S217  1  0.74377612  0.13768217  0.94227069  1
  S2-  S218  1  0.74797345  0.37700804  0.45321530  1
  S2-  S219  1  0.74195677  0.38119351  0.94905696  1
  S2-  S220  1  0.75557419  0.62293785  0.46266621  1
  S2-  S221  1  0.74582373  0.62678295  0.95669482  1
  S2-  S222  1  0.75470725  0.87523300  0.46136821  1
  S2-  S223  1  0.74230116  0.88317268  0.94821131  1
  S2-  S224  1  0.11497972  0.00074117  0.05183174  1
  S2-  S225  1  0.12621813  -0.00167588  0.54520443  1
  S2-  S226  1  0.11396273  0.25460302  0.06048710  1
  S2-  S227  1  0.12824007  0.24926694  0.53582474  1
  S2-  S228  1  0.12228361  0.50241983  0.05516893  1
  S2-  S229  1  0.12851207  0.49684190  0.53980495  1
  S2-  S230  1  0.12536194  0.75429035  0.04889076  1
  S2-  S231  1  0.13173871  0.75006400  0.54597924  1
  S2-  S232  1  0.36689560  0.00961157  0.04086664  1
  S2-  S233  1  0.37686965  -0.00106637  0.54441031  1
  S2-  S234  1  0.36804277  0.25417210  0.04233501  1
  S2-  S235  1  0.38048266  0.24877428  0.54197825  1
  S2-  S236  1  0.37334698  0.50353476  0.04205016  1
  S2-  S237  1  0.37714112  0.49889232  0.54068021  1
  S2-  S238  1  0.37058298  0.75519147  0.05007501  1
  S2-  S239  1  0.37746546  0.74768344  0.55219723  1
  S2-  S240  1  0.61753300  0.00804744  0.03021670  1
  S2-  S241  1  0.62654279  0.00096226  0.54084609  1
  S2-  S242  1  0.61830178  0.25752524  0.04278919  1
  S2-  S243  1  0.62371581  0.24833290  0.54909700  1
  S2-  S244  1  0.61884374  0.49640363  0.04855307  1
  S2-  S245  1  0.62390744  0.49473711  0.54145245  1
  S2-  S246  1  0.61865419  0.75562527  0.03307321  1
  S2-  S247  1  0.62573793  0.75194847  0.54464293  1
  S2-  S248  1  0.86992071  0.00660829  0.03210481  1
  S2-  S249  1  0.87806824  0.00700457  0.54499043  1
  S2-  S250  1  0.86921515  0.24938205  0.04156788  1
  S2-  S251  1  0.87136175  0.24697777  0.53861138  1
  S2-  S252  1  0.86646482  0.50225850  0.04541020  1
  S2-  S253  1  0.87488413  0.49689974  0.54695229  1
  S2-  S254  1  0.86771971  0.75462641  0.03807984  1
  S2-  S255  1  0.87569166  0.75033948  0.55084269  1
