# generated using pymatgen
data_La9Ce10Pr6Nd4Sm3(BiS2)32
_symmetry_space_group_name_H-M   'P 1'
_cell_length_a   16.16581172
_cell_length_b   16.20638720
_cell_length_c   27.24318036
_cell_angle_alpha   89.86641670
_cell_angle_beta   89.98558294
_cell_angle_gamma   90.09428153
_symmetry_Int_Tables_number   1
_chemical_formula_structural   La9Ce10Pr6Nd4Sm3(BiS2)32
_chemical_formula_sum   'La18 Ce20 Pr12 Nd8 Sm6 Bi64 S128'
_cell_volume   7137.39529482
_cell_formula_units_Z   2
loop_
 _symmetry_equiv_pos_site_id
 _symmetry_equiv_pos_as_xyz
  1  'x, y, z'
loop_
 _atom_type_symbol
 _atom_type_oxidation_number
  La3+  3.0
  Ce3+  3.0
  Pr3+  3.0
  Nd3+  3.0
  Sm3+  3.0
  Bi2+  2.0
  S2-  -2.0
loop_
 _atom_site_type_symbol
 _atom_site_label
 _atom_site_symmetry_multiplicity
 _atom_site_fract_x
 _atom_site_fract_y
 _atom_site_fract_z
 _atom_site_occupancy
  La3+  La0  1  0.11355299  0.75476178  0.43000920  1
  La3+  La1  1  0.39392955  0.50087985  0.92250788  1
  La3+  La2  1  0.51278337  0.63468033  0.08664900  1
  La3+  La3  1  0.37474557  0.23681350  0.88553394  1
  La3+  La4  1  0.50334686  0.87187848  0.56385942  1
  La3+  La5  1  0.14003579  0.00848243  0.93227953  1
  La3+  La6  1  0.23874588  0.39045453  0.59222643  1
  La3+  La7  1  0.60839979  0.25074380  0.42536927  1
  La3+  La8  1  0.25638290  0.13236011  0.06405166  1
  La3+  La9  1  0.50826831  0.37856405  0.06446748  1
  La3+  La10  1  0.11699777  0.49942276  0.42305096  1
  La3+  La11  1  0.02179512  0.38298646  0.09237581  1
  La3+  La12  1  0.38435863  0.49526322  0.42639373  1
  La3+  La13  1  0.76380469  0.12132766  0.07959048  1
  La3+  La14  1  0.62109358  0.75348074  0.42666803  1
  La3+  La15  1  0.35722309  0.75396946  0.38837887  1
  La3+  La16  1  0.49073468  0.11681969  0.57874384  1
  La3+  La17  1  0.37923560  0.00454484  0.42449149  1
  Ce3+  Ce18  1  0.25171721  0.62284710  0.54525948  1
  Ce3+  Ce19  1  0.49788051  0.62450270  0.55107721  1
  Ce3+  Ce20  1  0.00049432  0.37580910  0.55476724  1
  Ce3+  Ce21  1  0.75973292  0.87927467  0.06686372  1
  Ce3+  Ce22  1  0.62750173  0.49970364  0.44173674  1
  Ce3+  Ce23  1  0.62114132  0.00159365  0.44355044  1
  Ce3+  Ce24  1  0.00217395  0.87618538  0.55651439  1
  Ce3+  Ce25  1  0.87283363  0.49900501  0.43704404  1
  Ce3+  Ce26  1  0.25450890  0.87824820  0.06807707  1
  Ce3+  Ce27  1  0.37232847  0.25525850  0.46106409  1
  Ce3+  Ce28  1  0.75013972  0.37120742  0.55057296  1
  Ce3+  Ce29  1  0.88003294  0.25710926  0.94474691  1
  Ce3+  Ce30  1  0.01568223  0.87640111  0.06054984  1
  Ce3+  Ce31  1  0.86998413  0.75641404  0.43352895  1
  Ce3+  Ce32  1  0.87032903  0.00828078  0.44183049  1
  Ce3+  Ce33  1  0.01357374  0.62986838  0.06960199  1
  Ce3+  Ce34  1  0.63286245  0.75317324  0.95027704  1
  Ce3+  Ce35  1  0.24430119  0.12441523  0.56546310  1
  Ce3+  Ce36  1  0.25018388  0.87490247  0.55264955  1
  Ce3+  Ce37  1  0.88079390  0.00636751  0.94258566  1
  Pr3+  Pr38  1  0.00043026  0.62616753  0.56081622  1
  Pr3+  Pr39  1  0.00311093  0.12716296  0.56950439  1
  Pr3+  Pr40  1  0.50645668  0.13016137  0.05603965  1
  Pr3+  Pr41  1  0.13223476  0.25991685  0.93378834  1
  Pr3+  Pr42  1  0.88646117  0.75204969  0.94367839  1
  Pr3+  Pr43  1  0.64042837  0.00504992  0.93995620  1
  Pr3+  Pr44  1  0.50673724  0.38044965  0.57594967  1
  Pr3+  Pr45  1  0.88303916  0.24536478  0.40380890  1
  Pr3+  Pr46  1  0.26236668  0.62662955  0.06205109  1
  Pr3+  Pr47  1  0.01154169  0.13079321  0.06096671  1
  Pr3+  Pr48  1  0.75925673  0.37637873  0.06764109  1
  Pr3+  Pr49  1  0.75993186  0.62931475  0.07111221  1
  Nd3+  Nd50  1  0.12584564  0.25237351  0.43790538  1
  Nd3+  Nd51  1  0.63469696  0.50477004  0.94333143  1
  Nd3+  Nd52  1  0.75086310  0.62689334  0.55236197  1
  Nd3+  Nd53  1  0.13697459  0.75320982  0.93965315  1
  Nd3+  Nd54  1  0.75253101  0.87666278  0.56440259  1
  Nd3+  Nd55  1  0.12377306  0.00578217  0.43807580  1
  Nd3+  Nd56  1  0.63456735  0.25319024  0.93636589  1
  Nd3+  Nd57  1  0.74822417  0.12972565  0.55521980  1
  Sm3+  Sm58  1  0.38623451  0.75465429  0.94690715  1
  Sm3+  Sm59  1  0.39353547  -0.00628913  0.93573717  1
  Sm3+  Sm60  1  0.49882538  0.88522453  0.07250091  1
  Sm3+  Sm61  1  0.13440867  0.50544434  0.94038717  1
  Sm3+  Sm62  1  0.88657607  0.50525071  0.95437215  1
  Sm3+  Sm63  1  0.26034089  0.38248651  0.05099554  1
  Bi2+  Bi64  1  0.03347511  0.10703233  0.29502345  1
  Bi2+  Bi65  1  -0.02615095  0.09343116  0.80260610  1
  Bi2+  Bi66  1  0.00925619  0.38889146  0.28725578  1
  Bi2+  Bi67  1  -0.00329715  0.28976526  0.81456285  1
  Bi2+  Bi68  1  0.00658835  0.64244285  0.27616548  1
  Bi2+  Bi69  1  0.01004928  0.62371115  0.82144284  1
  Bi2+  Bi70  1  -0.06987830  0.83909773  0.27279556  1
  Bi2+  Bi71  1  -0.05030215  0.88693391  0.77822663  1
  Bi2+  Bi72  1  0.28416342  0.09392616  0.30577208  1
  Bi2+  Bi73  1  0.24357303  0.09584950  0.77734041  1
  Bi2+  Bi74  1  0.26986114  0.27969187  0.27073750  1
  Bi2+  Bi75  1  0.22219065  0.38314984  0.78658591  1
  Bi2+  Bi76  1  0.21076367  0.58684629  0.29312698  1
  Bi2+  Bi77  1  0.30231288  0.62081379  0.80234880  1
  Bi2+  Bi78  1  0.19933629  0.88442798  0.28204458  1
  Bi2+  Bi79  1  0.25354580  0.84129831  0.79551010  1
  Bi2+  Bi80  1  0.49541439  0.14100432  0.29825879  1
  Bi2+  Bi81  1  0.50955783  0.10509200  0.79462685  1
  Bi2+  Bi82  1  0.50608540  0.35512939  0.29594138  1
  Bi2+  Bi83  1  0.51889007  0.39367038  0.78821242  1
  Bi2+  Bi84  1  0.47946534  0.60215262  0.28698092  1
  Bi2+  Bi85  1  0.49312345  0.64053899  0.79007398  1
  Bi2+  Bi86  1  0.56201757  0.88393614  0.28627388  1
  Bi2+  Bi87  1  0.51249626  0.84241919  0.79666528  1
  Bi2+  Bi88  1  0.75859868  0.04147101  0.28773116  1
  Bi2+  Bi89  1  0.77496832  0.11887761  0.79616884  1
  Bi2+  Bi90  1  0.78348334  0.47960479  0.31438750  1
  Bi2+  Bi91  1  0.73810567  0.37748940  0.79781208  1
  Bi2+  Bi92  1  0.73271116  0.66904150  0.31223305  1
  Bi2+  Bi93  1  0.75216969  0.66989473  0.79191177  1
  Bi2+  Bi94  1  0.74744466  0.86192635  0.33547457  1
  Bi2+  Bi95  1  0.76834287  0.87749686  0.73409282  1
  Bi2+  Bi96  1  0.12557334  0.01455717  0.21394976  1
  Bi2+  Bi97  1  0.07432582  -0.04580100  0.69647165  1
  Bi2+  Bi98  1  0.11019925  0.25422738  0.20982651  1
  Bi2+  Bi99  1  0.07098422  0.23527930  0.71326101  1
  Bi2+  Bi100  1  0.17786503  0.52039690  0.19177820  1
  Bi2+  Bi101  1  0.11101742  0.51893318  0.70434566  1
  Bi2+  Bi102  1  0.03426849  0.75858401  0.18430777  1
  Bi2+  Bi103  1  0.17011429  0.70597514  0.73340816  1
  Bi2+  Bi104  1  0.39276872  -0.02555330  0.23748072  1
  Bi2+  Bi105  1  0.34262574  -0.02763104  0.70877073  1
  Bi2+  Bi106  1  0.34322318  0.15356266  0.19651600  1
  Bi2+  Bi107  1  0.40473072  0.25789653  0.68810638  1
  Bi2+  Bi108  1  0.35835565  0.44322340  0.21320740  1
  Bi2+  Bi109  1  0.38283985  0.54127512  0.70533217  1
  Bi2+  Bi110  1  0.36756888  0.74860365  0.19015902  1
  Bi2+  Bi111  1  0.37013848  0.75720097  0.71589729  1
  Bi2+  Bi112  1  0.61525870  0.02418648  0.21091922  1
  Bi2+  Bi113  1  0.62418247  -0.00280666  0.69894836  1
  Bi2+  Bi114  1  0.62042221  0.29272996  0.21358835  1
  Bi2+  Bi115  1  0.67970797  0.25220532  0.71347171  1
  Bi2+  Bi116  1  0.65121689  0.51517147  0.23078711  1
  Bi2+  Bi117  1  0.71430906  0.51383066  0.71949524  1
  Bi2+  Bi118  1  0.65795828  0.76192270  0.21634634  1
  Bi2+  Bi119  1  0.62726850  0.69946890  0.70255285  1
  Bi2+  Bi120  1  0.90583430  -0.00003982  0.21348186  1
  Bi2+  Bi121  1  0.89493435  0.03682296  0.69853751  1
  Bi2+  Bi122  1  0.85919621  0.21998082  0.22452777  1
  Bi2+  Bi123  1  0.87999712  0.27242301  0.71574725  1
  Bi2+  Bi124  1  0.84974012  0.57906790  0.22137759  1
  Bi2+  Bi125  1  0.91337988  0.45192727  0.76153110  1
  Bi2+  Bi126  1  0.83946714  0.75944496  0.17201738  1
  Bi2+  Bi127  1  0.89316203  0.72289986  0.71253687  1
  S2-  S128  1  -0.09335095  0.12568389  0.14475183  1
  S2-  S129  1  0.12443874  0.13177055  0.64340011  1
  S2-  S130  1  -0.04653466  0.33397067  0.18415871  1
  S2-  S131  1  0.07658626  0.38160826  0.64315577  1
  S2-  S132  1  0.02511836  0.53295821  0.14992360  1
  S2-  S133  1  -0.00762563  0.60005675  0.66128838  1
  S2-  S134  1  0.12298789  0.88884870  0.13893634  1
  S2-  S135  1  -0.02338615  0.83364987  0.64925010  1
  S2-  S136  1  0.13014168  0.13530705  0.13858905  1
  S2-  S137  1  0.34296918  0.10907953  0.64584211  1
  S2-  S138  1  0.18648946  0.36900772  0.14131359  1
  S2-  S139  1  0.26796765  0.34624819  0.69208692  1
  S2-  S140  1  0.22247827  0.68363036  0.15530906  1
  S2-  S141  1  0.24511879  0.55382770  0.63653578  1
  S2-  S142  1  0.36046561  0.90790430  0.14476379  1
  S2-  S143  1  0.21687291  0.89923499  0.64920576  1
  S2-  S144  1  0.49898638  0.11895297  0.15758205  1
  S2-  S145  1  0.55820893  0.16948657  0.66997323  1
  S2-  S146  1  0.48059154  0.36990975  0.16567041  1
  S2-  S147  1  0.49076258  0.40448462  0.67953317  1
  S2-  S148  1  0.41929779  0.58726509  0.17068250  1
  S2-  S149  1  0.51127589  0.60865117  0.64855427  1
  S2-  S150  1  0.52393996  0.78364502  0.15287772  1
  S2-  S151  1  0.48392320  0.96590148  0.64838190  1
  S2-  S152  1  0.71631208  0.18918669  0.17009969  1
  S2-  S153  1  0.75257666  0.08715218  0.65266255  1
  S2-  S154  1  0.72175587  0.39945974  0.16569234  1
  S2-  S155  1  0.70995075  0.38272257  0.64505487  1
  S2-  S156  1  0.65135626  0.61370584  0.15143634  1
  S2-  S157  1  0.76954616  0.63755712  0.65069882  1
  S2-  S158  1  0.73694395  0.96883255  0.14851190  1
  S2-  S159  1  0.65514564  0.85243850  0.64575886  1
  S2-  S160  1  0.08955010  -0.04036523  0.34396405  1
  S2-  S161  1  0.13018139  0.01910056  0.83161036  1
  S2-  S162  1  0.03922317  0.24938306  0.35021340  1
  S2-  S163  1  0.20535872  0.24654266  0.84203622  1
  S2-  S164  1  0.14811635  0.43437988  0.32772473  1
  S2-  S165  1  0.12859813  0.50277136  0.84080009  1
  S2-  S166  1  0.19160273  0.74337065  0.34018694  1
  S2-  S167  1  0.11931163  0.76307510  0.84070788  1
  S2-  S168  1  0.34410050  -0.09148362  0.33996350  1
  S2-  S169  1  0.36203622  0.06846895  0.84939896  1
  S2-  S170  1  0.43948283  0.26364756  0.37148691  1
  S2-  S171  1  0.37516552  0.21170349  0.77719497  1
  S2-  S172  1  0.34961241  0.50566846  0.32553323  1
  S2-  S173  1  0.36975165  0.39889204  0.83936352  1
  S2-  S174  1  0.35272249  0.70084772  0.28406991  1
  S2-  S175  1  0.38838290  0.85155064  0.86465809  1
  S2-  S176  1  0.53090923  0.02285600  0.36073513  1
  S2-  S177  1  0.55625230  -0.01617971  0.85051505  1
  S2-  S178  1  0.63483802  0.24935170  0.32266560  1
  S2-  S179  1  0.54525241  0.25117934  0.84692759  1
  S2-  S180  1  0.54519672  0.48728420  0.35752739  1
  S2-  S181  1  0.54399965  0.50950873  0.85580455  1
  S2-  S182  1  0.51786924  0.74247080  0.34289592  1
  S2-  S183  1  0.63367659  0.75112083  0.85154179  1
  S2-  S184  1  0.88024691  0.08956192  0.35432839  1
  S2-  S185  1  0.77506879  0.00523174  0.86476519  1
  S2-  S186  1  0.84628549  0.31796565  0.31300428  1
  S2-  S187  1  0.76989216  0.24779431  0.86751749  1
  S2-  S188  1  0.96828464  0.51029612  0.35456167  1
  S2-  S189  1  0.89195542  0.52615646  0.85589434  1
  S2-  S190  1  0.97687099  0.74502378  0.35698497  1
  S2-  S191  1  0.88788537  0.75041632  0.84317524  1
  S2-  S192  1  -0.00160607  0.12978317  0.46082423  1
  S2-  S193  1  0.00752158  0.13209262  0.95075840  1
  S2-  S194  1  -0.00849570  0.36900225  0.45061614  1
  S2-  S195  1  0.00805946  0.38496353  0.95143670  1
  S2-  S196  1  -0.00583682  0.62570652  0.45557150  1
  S2-  S197  1  0.01225279  0.62801608  0.96058514  1
  S2-  S198  1  -0.00723279  0.88487478  0.45240385  1
  S2-  S199  1  0.01169102  0.88008023  0.94940653  1
  S2-  S200  1  0.24922830  0.12857356  0.45307022  1
  S2-  S201  1  0.26147483  0.13376735  0.95353784  1
  S2-  S202  1  0.24973780  0.37585950  0.44123650  1
  S2-  S203  1  0.25920775  0.38479590  0.94886503  1
  S2-  S204  1  0.25226839  0.62461222  0.44009057  1
  S2-  S205  1  0.26272472  0.62787856  0.95120312  1
  S2-  S206  1  0.24543497  0.87584214  0.44706652  1
  S2-  S207  1  0.25863071  0.87798842  0.95804348  1
  S2-  S208  1  0.49558811  0.12826327  0.46741420  1
  S2-  S209  1  0.50765981  0.12803500  0.95089023  1
  S2-  S210  1  0.50325056  0.37759348  0.46757320  1
  S2-  S211  1  0.51425207  0.37783716  0.95657456  1
  S2-  S212  1  0.49697461  0.62726179  0.44823211  1
  S2-  S213  1  0.50696615  0.63113798  0.95931590  1
  S2-  S214  1  0.49676644  0.87331947  0.45309981  1
  S2-  S215  1  0.51124905  0.87557050  0.96611818  1
  S2-  S216  1  0.74340910  0.13311680  0.44898176  1
  S2-  S217  1  0.76081813  0.12901300  0.96961006  1
  S2-  S218  1  0.74843379  0.36854006  0.44383705  1
  S2-  S219  1  0.75965687  0.38585839  0.96047289  1
  S2-  S220  1  0.74994670  0.62723230  0.44653412  1
  S2-  S221  1  0.76086098  0.62787387  0.96029544  1
  S2-  S222  1  0.74744415  0.88071972  0.45833786  1
  S2-  S223  1  0.76114303  0.87367660  0.96023595  1
  S2-  S224  1  0.13452181  0.00477887  0.03845422  1
  S2-  S225  1  0.12335120  -0.00044838  0.54278879  1
  S2-  S226  1  0.13232392  0.26218200  0.03944064  1
  S2-  S227  1  0.13018374  0.25874152  0.54250135  1
  S2-  S228  1  0.13583478  0.50570455  0.04324559  1
  S2-  S229  1  0.12262171  0.50110061  0.53391022  1
  S2-  S230  1  0.13567726  0.75006817  0.04337505  1
  S2-  S231  1  0.12497724  0.74844511  0.54229355  1
  S2-  S232  1  0.38155807  0.00605728  0.04149022  1
  S2-  S233  1  0.37012005  -0.00337072  0.53719589  1
  S2-  S234  1  0.37838717  0.25763908  0.05579298  1
  S2-  S235  1  0.36926112  0.26430407  0.56348391  1
  S2-  S236  1  0.38508608  0.50404351  0.04571801  1
  S2-  S237  1  0.37520913  0.49635752  0.54178547  1
  S2-  S238  1  0.38467359  0.75382095  0.04955047  1
  S2-  S239  1  0.37354476  0.74868471  0.55535985  1
  S2-  S240  1  0.62752968  0.00178369  0.04757514  1
  S2-  S241  1  0.62771912  0.00150904  0.54719540  1
  S2-  S242  1  0.63461776  0.25251900  0.04884422  1
  S2-  S243  1  0.62170220  0.25025078  0.54620574  1
  S2-  S244  1  0.63389636  0.50430773  0.04837149  1
  S2-  S245  1  0.62808590  0.50238037  0.54657904  1
  S2-  S246  1  0.63681241  0.75786451  0.05299145  1
  S2-  S247  1  0.62694856  0.74760166  0.53810823  1
  S2-  S248  1  0.89085112  -0.00363147  0.04740391  1
  S2-  S249  1  0.87477184  0.00287240  0.54888200  1
  S2-  S250  1  0.89076046  0.26348557  0.05066454  1
  S2-  S251  1  0.87715447  0.25003667  0.55877179  1
  S2-  S252  1  0.88396752  0.50301442  0.05828003  1
  S2-  S253  1  0.87379358  0.50009978  0.54555696  1
  S2-  S254  1  0.88732081  0.75320578  0.04956795  1
  S2-  S255  1  0.87424538  0.75213528  0.54192583  1
