# generated using pymatgen
data_La9Ce10Pr6Nd4Sm3(BiS2)32
_symmetry_space_group_name_H-M   'P 1'
_cell_length_a   16.22880562
_cell_length_b   16.18839445
_cell_length_c   27.24123594
_cell_angle_alpha   90.43708621
_cell_angle_beta   89.89291944
_cell_angle_gamma   90.08324644
_symmetry_Int_Tables_number   1
_chemical_formula_structural   La9Ce10Pr6Nd4Sm3(BiS2)32
_chemical_formula_sum   'La18 Ce20 Pr12 Nd8 Sm6 Bi64 S128'
_cell_volume   7156.54323289
_cell_formula_units_Z   2
loop_
 _symmetry_equiv_pos_site_id
 _symmetry_equiv_pos_as_xyz
  1  'x, y, z'
loop_
 _atom_type_symbol
 _atom_type_oxidation_number
  La3+  3.0
  Ce3+  3.0
  Pr3+  3.0
  Nd3+  3.0
  Sm3+  3.0
  Bi2+  2.0
  S2-  -2.0
loop_
 _atom_site_type_symbol
 _atom_site_label
 _atom_site_symmetry_multiplicity
 _atom_site_fract_x
 _atom_site_fract_y
 _atom_site_fract_z
 _atom_site_occupancy
  La3+  La0  1  0.00467481  0.64139521  0.56471556  1
  La3+  La1  1  -0.00108119  0.10727613  0.07681366  1
  La3+  La2  1  0.61272859  0.25417277  0.41638125  1
  La3+  La3  1  0.76415921  0.39430886  0.12020803  1
  La3+  La4  1  0.74290057  0.12060406  0.06684435  1
  La3+  La5  1  0.88642899  0.24875899  0.42099038  1
  La3+  La6  1  0.24237171  0.11403771  0.05513409  1
  La3+  La7  1  0.37912430  0.52265140  0.41997395  1
  La3+  La8  1  0.61054223  -0.01652620  0.92272266  1
  La3+  La9  1  -0.00399595  0.15080947  0.58006287  1
  La3+  La10  1  0.87150423  -0.00193937  0.91982784  1
  La3+  La11  1  0.11704444  0.76528500  0.41911253  1
  La3+  La12  1  0.37990583  0.48204494  0.93596701  1
  La3+  La13  1  0.61927034  0.23791261  0.92849893  1
  La3+  La14  1  0.48011628  0.62067529  0.08324820  1
  La3+  La15  1  0.74121892  0.39106023  0.55355065  1
  La3+  La16  1  0.24810816  0.37327605  0.06932754  1
  La3+  La17  1  0.12222210  0.49483541  0.93225257  1
  Ce3+  Ce18  1  0.49811226  0.89133783  0.55645724  1
  Ce3+  Ce19  1  0.86562607  0.24263889  0.94872966  1
  Ce3+  Ce20  1  0.37526057  0.26525941  0.44321319  1
  Ce3+  Ce21  1  0.74124095  0.87385690  0.05644523  1
  Ce3+  Ce22  1  0.61377097  0.74045379  0.93497522  1
  Ce3+  Ce23  1  0.50041555  0.14306433  0.56286441  1
  Ce3+  Ce24  1  0.13234430  0.51391454  0.42977008  1
  Ce3+  Ce25  1  0.36755289  0.24204395  0.94270022  1
  Ce3+  Ce26  1  0.87607804  0.76452636  0.44450880  1
  Ce3+  Ce27  1  0.74851698  0.89268591  0.56632615  1
  Ce3+  Ce28  1  0.73669505  0.61886923  0.05698882  1
  Ce3+  Ce29  1  -0.00621871  0.89217926  0.56848891  1
  Ce3+  Ce30  1  0.11400878  -0.00463706  0.92903629  1
  Ce3+  Ce31  1  0.62700487  0.01639251  0.44623268  1
  Ce3+  Ce32  1  -0.00118386  0.38830031  0.55392643  1
  Ce3+  Ce33  1  -0.00773986  0.36732955  0.05807061  1
  Ce3+  Ce34  1  0.11016681  0.74033642  0.93683602  1
  Ce3+  Ce35  1  0.12580672  0.26341710  0.44583661  1
  Ce3+  Ce36  1  0.24990726  0.39643869  0.55673730  1
  Ce3+  Ce37  1  0.49035020  0.86363080  0.05753047  1
  Pr3+  Pr38  1  0.62058757  0.52086369  0.43011294  1
  Pr3+  Pr39  1  0.49542695  0.64608442  0.56030553  1
  Pr3+  Pr40  1  0.36337823  -0.01283614  0.93120453  1
  Pr3+  Pr41  1  0.23883877  0.86511028  0.04848868  1
  Pr3+  Pr42  1  0.87413669  0.51276785  0.44056966  1
  Pr3+  Pr43  1  0.48868454  0.39907516  0.56294866  1
  Pr3+  Pr44  1  0.23115060  0.62320883  0.06911189  1
  Pr3+  Pr45  1  0.74607254  0.63706066  0.57083882  1
  Pr3+  Pr46  1  0.11393653  0.24348503  0.94208561  1
  Pr3+  Pr47  1  0.86308523  0.73785568  0.93882195  1
  Pr3+  Pr48  1  0.36202928  0.72785069  0.93251676  1
  Pr3+  Pr49  1  0.49327692  0.11187888  0.05891459  1
  Nd3+  Nd50  1  0.37255811  0.01282274  0.44104714  1
  Nd3+  Nd51  1  -0.01046749  0.61732456  0.06290477  1
  Nd3+  Nd52  1  0.36635288  0.77535924  0.42420202  1
  Nd3+  Nd53  1  0.74576659  0.15074013  0.56765583  1
  Nd3+  Nd54  1  0.62692729  0.76444308  0.44031489  1
  Nd3+  Nd55  1  0.24604798  0.89096778  0.56518623  1
  Nd3+  Nd56  1  0.24940284  0.13871706  0.55887494  1
  Nd3+  Nd57  1  0.50403491  0.35434074  0.07716381  1
  Sm3+  Sm58  1  0.61536720  0.48707167  0.95203428  1
  Sm3+  Sm59  1  -0.01367015  0.87091184  0.04684708  1
  Sm3+  Sm60  1  0.86311527  0.48910901  0.94587719  1
  Sm3+  Sm61  1  0.12110712  0.01442938  0.45113780  1
  Sm3+  Sm62  1  0.25018048  0.64420445  0.55083027  1
  Sm3+  Sm63  1  0.87459806  0.01723069  0.45306976  1
  Bi2+  Bi64  1  0.02832765  0.10343038  0.30285646  1
  Bi2+  Bi65  1  0.01457400  0.14607429  0.79535810  1
  Bi2+  Bi66  1  0.06047736  0.40231490  0.28599641  1
  Bi2+  Bi67  1  0.01334927  0.38080034  0.73166939  1
  Bi2+  Bi68  1  -0.01194654  0.65176934  0.28596703  1
  Bi2+  Bi69  1  -0.00757121  0.61438630  0.80769458  1
  Bi2+  Bi70  1  -0.01167847  0.86972598  0.27352697  1
  Bi2+  Bi71  1  0.01885633  0.85443777  0.75862397  1
  Bi2+  Bi72  1  0.25739178  0.14071048  0.27858297  1
  Bi2+  Bi73  1  0.28702459  0.04055945  0.80501397  1
  Bi2+  Bi74  1  0.24014502  0.33377043  0.30358728  1
  Bi2+  Bi75  1  0.24308250  0.43131487  0.80390190  1
  Bi2+  Bi76  1  0.24827448  0.64452918  0.29426688  1
  Bi2+  Bi77  1  0.27821072  0.66758795  0.78261294  1
  Bi2+  Bi78  1  0.25161893  0.93828264  0.29017548  1
  Bi2+  Bi79  1  0.21536570  0.87081080  0.76673098  1
  Bi2+  Bi80  1  0.49534159  0.04623610  0.28751192  1
  Bi2+  Bi81  1  0.50292925  0.08728116  0.77389614  1
  Bi2+  Bi82  1  0.48745027  0.35503531  0.28557776  1
  Bi2+  Bi83  1  0.52068705  0.35178370  0.80238395  1
  Bi2+  Bi84  1  0.51794491  0.63291211  0.28844890  1
  Bi2+  Bi85  1  0.55521051  0.62961033  0.80263676  1
  Bi2+  Bi86  1  0.55534933  0.85372988  0.28827684  1
  Bi2+  Bi87  1  0.48382862  0.79402978  0.75752698  1
  Bi2+  Bi88  1  0.76047016  0.05032041  0.29273031  1
  Bi2+  Bi89  1  0.75231276  0.14693294  0.80079057  1
  Bi2+  Bi90  1  0.75427530  0.42727136  0.32106164  1
  Bi2+  Bi91  1  0.82097789  0.35437973  0.78105837  1
  Bi2+  Bi92  1  0.76395341  0.67169183  0.28694041  1
  Bi2+  Bi93  1  0.73711061  0.56286182  0.80414219  1
  Bi2+  Bi94  1  0.77794529  0.86174387  0.31193573  1
  Bi2+  Bi95  1  0.73832181  0.76725911  0.80265281  1
  Bi2+  Bi96  1  0.13752610  -0.03937322  0.19582514  1
  Bi2+  Bi97  1  0.13169775  0.01643644  0.70831079  1
  Bi2+  Bi98  1  0.11563764  0.22635331  0.21432017  1
  Bi2+  Bi99  1  0.18033157  0.27369233  0.74013276  1
  Bi2+  Bi100  1  0.16719190  0.41078706  0.19080717  1
  Bi2+  Bi101  1  0.18356392  0.45826439  0.69334586  1
  Bi2+  Bi102  1  0.12238402  0.76526207  0.21457651  1
  Bi2+  Bi103  1  0.10072349  0.68991782  0.71634363  1
  Bi2+  Bi104  1  0.43119173  0.00288035  0.17659641  1
  Bi2+  Bi105  1  0.37191771  -0.00312175  0.68998967  1
  Bi2+  Bi106  1  0.37567310  0.24748727  0.21444222  1
  Bi2+  Bi107  1  0.36149386  0.21927129  0.77675147  1
  Bi2+  Bi108  1  0.35230397  0.50776404  0.21291159  1
  Bi2+  Bi109  1  0.42504456  0.44536455  0.71919846  1
  Bi2+  Bi110  1  0.38923857  0.83004046  0.21438582  1
  Bi2+  Bi111  1  0.36815874  0.70153435  0.68161900  1
  Bi2+  Bi112  1  0.62038423  -0.01627103  0.20413812  1
  Bi2+  Bi113  1  0.64683695  -0.12272975  0.71338861  1
  Bi2+  Bi114  1  0.62084795  0.23943406  0.21677352  1
  Bi2+  Bi115  1  0.61915616  0.22719210  0.69383862  1
  Bi2+  Bi116  1  0.64548637  0.51578697  0.22139656  1
  Bi2+  Bi117  1  0.61884967  0.49802521  0.71845742  1
  Bi2+  Bi118  1  0.65132796  0.78045161  0.19830592  1
  Bi2+  Bi119  1  0.62236874  0.69068955  0.68131450  1
  Bi2+  Bi120  1  0.88071527  0.00429766  0.20572667  1
  Bi2+  Bi121  1  0.87244836  -0.02744965  0.73114922  1
  Bi2+  Bi122  1  0.87149668  0.26451933  0.22573362  1
  Bi2+  Bi123  1  0.85607829  0.21159061  0.69738900  1
  Bi2+  Bi124  1  1.00414447  0.52136320  0.19984915  1
  Bi2+  Bi125  1  0.85946516  0.49925392  0.70588453  1
  Bi2+  Bi126  1  0.84788608  0.78541783  0.20609461  1
  Bi2+  Bi127  1  0.81462985  0.69284712  0.70533998  1
  S2-  S128  1  -0.04628307  0.15088715  0.17419244  1
  S2-  S129  1  -0.01892358  0.08644865  0.67602485  1
  S2-  S130  1  -0.06317639  0.36998463  0.15077520  1
  S2-  S131  1  -0.02054107  0.30445239  0.63935899  1
  S2-  S132  1  0.09546897  0.63866841  0.14233814  1
  S2-  S133  1  -0.03386912  0.63084543  0.66326923  1
  S2-  S134  1  -0.00453576  0.94869546  0.13427653  1
  S2-  S135  1  0.05185482  0.87329082  0.65910407  1
  S2-  S136  1  0.16159848  0.10393150  0.14333472  1
  S2-  S137  1  0.24615115  0.10677407  0.65677683  1
  S2-  S138  1  0.37123017  0.37792478  0.14531487  1
  S2-  S139  1  0.32174280  0.38519934  0.64474983  1
  S2-  S140  1  0.33152044  0.62154927  0.15071050  1
  S2-  S141  1  0.20955042  0.62482220  0.64709794  1
  S2-  S142  1  0.24191737  0.83819818  0.14862781  1
  S2-  S143  1  0.28346343  0.86045447  0.66186448  1
  S2-  S144  1  0.50322194  0.20113374  0.14742015  1
  S2-  S145  1  0.48824727  0.12932509  0.66224501  1
  S2-  S146  1  0.60378202  0.37938043  0.16181703  1
  S2-  S147  1  0.53784923  0.34966336  0.65570140  1
  S2-  S148  1  0.50754876  0.57160182  0.18483263  1
  S2-  S149  1  0.44910771  0.56557120  0.64590898  1
  S2-  S150  1  0.49895240  0.77560813  0.14270792  1
  S2-  S151  1  0.50753655  0.90327645  0.65417217  1
  S2-  S152  1  0.74800870  0.22307518  0.15612608  1
  S2-  S153  1  0.73600498  0.10078755  0.66782399  1
  S2-  S154  1  0.78987793  0.41700991  0.22736309  1
  S2-  S155  1  0.74862197  0.28890179  0.63599452  1
  S2-  S156  1  0.75213663  0.57201809  0.14918279  1
  S2-  S157  1  0.73043680  0.50307579  0.63728466  1
  S2-  S158  1  0.75199621  0.98495243  0.13438869  1
  S2-  S159  1  0.80661770  0.88777677  0.65976938  1
  S2-  S160  1  0.11467239  -0.01144870  0.35395210  1
  S2-  S161  1  0.01898351  0.01007638  0.84866094  1
  S2-  S162  1  0.04992771  0.22934667  0.36194456  1
  S2-  S163  1  0.12816440  0.23366870  0.84073224  1
  S2-  S164  1  0.11043932  0.61761024  0.35242711  1
  S2-  S165  1  0.08905554  0.46985584  0.83374289  1
  S2-  S166  1  0.23803924  0.78955222  0.34639190  1
  S2-  S167  1  0.12467845  0.68920226  0.84461237  1
  S2-  S168  1  0.38903535  -0.05280613  0.34931351  1
  S2-  S169  1  0.44575241  -0.01131056  0.84280486  1
  S2-  S170  1  0.45040053  0.24953238  0.35711383  1
  S2-  S171  1  0.36632363  0.33557042  0.86085772  1
  S2-  S172  1  0.26416130  0.49100466  0.34398741  1
  S2-  S173  1  0.30929348  0.56656874  0.85859830  1
  S2-  S174  1  0.39452712  0.66661457  0.34693213  1
  S2-  S175  1  0.37399375  0.77713576  0.83567780  1
  S2-  S176  1  0.62469430  0.08984045  0.35760973  1
  S2-  S177  1  0.61687395  0.10874878  0.85147041  1
  S2-  S178  1  0.64351086  0.29825951  0.31765513  1
  S2-  S179  1  0.67047916  0.30558396  0.83168608  1
  S2-  S180  1  0.51118787  0.49180454  0.34864205  1
  S2-  S181  1  0.52708527  0.48842375  0.86588047  1
  S2-  S182  1  0.64108230  0.65687326  0.36093758  1
  S2-  S183  1  0.61909283  0.84454595  0.85624328  1
  S2-  S184  1  0.88443492  0.08796629  0.36281884  1
  S2-  S185  1  0.80121099  -0.00195205  0.82518582  1
  S2-  S186  1  0.86454095  0.31392336  0.32796352  1
  S2-  S187  1  0.88982704  0.22307663  0.85040120  1
  S2-  S188  1  0.86621275  0.55985116  0.34378876  1
  S2-  S189  1  0.87492124  0.49412298  0.84726597  1
  S2-  S190  1  0.96985045  0.77810013  0.36142804  1
  S2-  S191  1  0.90594731  0.74559178  0.84082242  1
  S2-  S192  1  0.00359336  0.13445393  0.47045238  1
  S2-  S193  1  -0.00605793  0.11928396  0.95851223  1
  S2-  S194  1  0.00283445  0.39121409  0.44814791  1
  S2-  S195  1  -0.00929794  0.37039354  0.95079407  1
  S2-  S196  1  -0.00196451  0.63708586  0.45778672  1
  S2-  S197  1  -0.01194063  0.61312125  0.95618650  1
  S2-  S198  1  -0.00334078  0.89472440  0.46242238  1
  S2-  S199  1  -0.01116221  0.86589966  0.94371949  1
  S2-  S200  1  0.24861199  0.13618323  0.45086010  1
  S2-  S201  1  0.24071377  0.11749715  0.94694678  1
  S2-  S202  1  0.25089348  0.38615805  0.45149993  1
  S2-  S203  1  0.24005790  0.36666982  0.95969489  1
  S2-  S204  1  0.24830548  0.64569533  0.44949733  1
  S2-  S205  1  0.23279500  0.62110779  0.96246820  1
  S2-  S206  1  0.24387315  0.89334189  0.45776847  1
  S2-  S207  1  0.23612211  0.86400530  0.94015430  1
  S2-  S208  1  0.49496418  0.13263099  0.45799097  1
  S2-  S209  1  0.48490423  0.11471341  0.95171450  1
  S2-  S210  1  0.49770133  0.38915774  0.45462279  1
  S2-  S211  1  0.49826017  0.35772610  0.96660415  1
  S2-  S212  1  0.49706827  0.65076338  0.45501890  1
  S2-  S213  1  0.49418074  0.61903264  0.96063816  1
  S2-  S214  1  0.50217534  0.88825085  0.45034588  1
  S2-  S215  1  0.48276105  0.85924499  0.95239745  1
  S2-  S216  1  0.74906641  0.14031941  0.45920344  1
  S2-  S217  1  0.74469046  0.11459539  0.95299468  1
  S2-  S218  1  0.74401217  0.38799894  0.44335326  1
  S2-  S219  1  0.74150799  0.36952046  0.94996440  1
  S2-  S220  1  0.75348951  0.64113541  0.46324733  1
  S2-  S221  1  0.73837578  0.61285864  0.95010555  1
  S2-  S222  1  0.75178318  0.89175512  0.45789968  1
  S2-  S223  1  0.74646453  0.86745004  0.95112668  1
  S2-  S224  1  0.11647922  -0.01164930  0.03328636  1
  S2-  S225  1  0.12178850  0.01642734  0.55585899  1
  S2-  S226  1  0.11917258  0.24599341  0.04994400  1
  S2-  S227  1  0.13021608  0.26716230  0.55186870  1
  S2-  S228  1  0.11389729  0.49169610  0.04474727  1
  S2-  S229  1  0.12579787  0.51572976  0.54043834  1
  S2-  S230  1  0.10681913  0.74888321  0.04155956  1
  S2-  S231  1  0.12533165  0.76754472  0.54679420  1
  S2-  S232  1  0.36490693  -0.01220590  0.03931416  1
  S2-  S233  1  0.37297940  0.01449034  0.54763652  1
  S2-  S234  1  0.36591541  0.23804699  0.04717993  1
  S2-  S235  1  0.37273068  0.26273362  0.54789604  1
  S2-  S236  1  0.36481344  0.49765597  0.04418535  1
  S2-  S237  1  0.36864887  0.52134579  0.53331094  1
  S2-  S238  1  0.36247356  0.74277929  0.04073137  1
  S2-  S239  1  0.37056887  0.76974615  0.54033535  1
  S2-  S240  1  0.61264144  -0.01237487  0.03698209  1
  S2-  S241  1  0.62527439  0.01678632  0.55247830  1
  S2-  S242  1  0.61592865  0.23215405  0.03980333  1
  S2-  S243  1  0.61483647  0.26642470  0.53656116  1
  S2-  S244  1  0.61227410  0.49595316  0.05466587  1
  S2-  S245  1  0.61504082  0.52004156  0.53800568  1
  S2-  S246  1  0.61993995  0.74442015  0.04200254  1
  S2-  S247  1  0.62554982  0.76780097  0.54712033  1
  S2-  S248  1  0.86808491  -0.00638177  0.03303090  1
  S2-  S249  1  0.87178060  0.02099931  0.55691624  1
  S2-  S250  1  0.87541951  0.23838208  0.05116713  1
  S2-  S251  1  0.87449483  0.26736822  0.53366043  1
  S2-  S252  1  0.86606515  0.49359848  0.04972904  1
  S2-  S253  1  0.87758106  0.51366771  0.54729492  1
  S2-  S254  1  0.86656945  0.74356173  0.04801449  1
  S2-  S255  1  0.87232514  0.76369251  0.55239173  1
