# generated using pymatgen
data_La9Ce10Pr6Nd4Sm3(BiS2)32
_symmetry_space_group_name_H-M   'P 1'
_cell_length_a   16.11542221
_cell_length_b   16.11885946
_cell_length_c   27.33168616
_cell_angle_alpha   89.73133683
_cell_angle_beta   90.02377245
_cell_angle_gamma   90.04042401
_symmetry_Int_Tables_number   1
_chemical_formula_structural   La9Ce10Pr6Nd4Sm3(BiS2)32
_chemical_formula_sum   'La18 Ce20 Pr12 Nd8 Sm6 Bi64 S128'
_cell_volume   7099.65920913
_cell_formula_units_Z   2
loop_
 _symmetry_equiv_pos_site_id
 _symmetry_equiv_pos_as_xyz
  1  'x, y, z'
loop_
 _atom_type_symbol
 _atom_type_oxidation_number
  La3+  3.0
  Ce3+  3.0
  Pr3+  3.0
  Nd3+  3.0
  Sm3+  3.0
  Bi2+  2.0
  S2-  -2.0
loop_
 _atom_site_type_symbol
 _atom_site_label
 _atom_site_symmetry_multiplicity
 _atom_site_fract_x
 _atom_site_fract_y
 _atom_site_fract_z
 _atom_site_occupancy
  La3+  La0  1  0.12232192  0.01321788  0.40424794  1
  La3+  La1  1  0.75057415  0.12148434  0.06113348  1
  La3+  La2  1  0.49481600  0.62377092  0.57062618  1
  La3+  La3  1  0.50716588  0.12521451  0.57316359  1
  La3+  La4  1  0.74780040  0.61631210  0.07515125  1
  La3+  La5  1  0.75791118  0.87172037  0.57474446  1
  La3+  La6  1  0.38719834  0.74766075  0.42000497  1
  La3+  La7  1  0.62244868  0.24376678  0.92930259  1
  La3+  La8  1  0.12372288  0.74621690  0.93559761  1
  La3+  La9  1  0.87165636  0.75088462  0.92770811  1
  La3+  La10  1  0.88504900  0.24479091  0.92856111  1
  La3+  La11  1  0.38881701  0.48693155  0.88531590  1
  La3+  La12  1  0.25681350  0.87401564  0.55281213  1
  La3+  La13  1  0.12587078  0.49827096  0.93664484  1
  La3+  La14  1  0.37503348  -0.00106468  0.42348911  1
  La3+  La15  1  0.12736943  0.24304588  0.94939804  1
  La3+  La16  1  0.62367010  0.74732796  0.93215857  1
  La3+  La17  1  0.25349829  0.12454206  0.57061299  1
  Ce3+  Ce18  1  0.00445062  0.62551627  0.55041529  1
  Ce3+  Ce19  1  0.74900430  0.86997718  0.05598513  1
  Ce3+  Ce20  1  0.75459199  0.37503602  0.55204792  1
  Ce3+  Ce21  1  0.62993369  0.24468653  0.43935425  1
  Ce3+  Ce22  1  0.50934088  0.87386198  0.56391034  1
  Ce3+  Ce23  1  0.37415593  -0.01329578  0.95178415  1
  Ce3+  Ce24  1  0.25052840  0.37606520  0.06867149  1
  Ce3+  Ce25  1  0.87714730  0.49690155  0.94131058  1
  Ce3+  Ce26  1  0.88327137  0.24330381  0.43888029  1
  Ce3+  Ce27  1  0.88054453  0.75164587  0.43661427  1
  Ce3+  Ce28  1  0.37047852  0.24731846  0.94711106  1
  Ce3+  Ce29  1  0.87674768  -0.00233532  0.93576997  1
  Ce3+  Ce30  1  0.25529006  0.61706168  0.06968224  1
  Ce3+  Ce31  1  0.25665301  0.37648990  0.55354306  1
  Ce3+  Ce32  1  0.87652839  0.49992269  0.43194184  1
  Ce3+  Ce33  1  0.25041573  0.11634372  0.07081744  1
  Ce3+  Ce34  1  0.12889353  0.49421901  0.43346819  1
  Ce3+  Ce35  1  0.61976133  -0.00441078  0.93456092  1
  Ce3+  Ce36  1  0.62539189  0.49558339  0.94386598  1
  Ce3+  Ce37  1  0.75215349  0.37107120  0.06231979  1
  Pr3+  Pr38  1  0.62741701  -0.00219071  0.43651890  1
  Pr3+  Pr39  1  0.38813540  0.49923165  0.40849599  1
  Pr3+  Pr40  1  0.75779517  0.12466582  0.56620696  1
  Pr3+  Pr41  1  -0.00191882  0.11152029  0.07973300  1
  Pr3+  Pr42  1  0.74922249  0.62048732  0.56870366  1
  Pr3+  Pr43  1  0.49951710  0.61943267  0.06470845  1
  Pr3+  Pr44  1  0.00474556  0.86699310  0.56411231  1
  Pr3+  Pr45  1  0.51027362  0.87230719  0.08064831  1
  Pr3+  Pr46  1  0.50043545  0.11954534  0.06500767  1
  Pr3+  Pr47  1  0.25167098  0.86040701  0.08074082  1
  Pr3+  Pr48  1  0.63434102  0.49989479  0.42945476  1
  Pr3+  Pr49  1  0.00174055  0.37138302  0.06904689  1
  Nd3+  Nd50  1  0.37850489  0.24573233  0.44139081  1
  Nd3+  Nd51  1  0.12847463  0.75511190  0.42701719  1
  Nd3+  Nd52  1  0.25736273  0.62271389  0.54321085  1
  Nd3+  Nd53  1  0.00311363  0.37376317  0.56192565  1
  Nd3+  Nd54  1  0.63030954  0.74889292  0.44320416  1
  Nd3+  Nd55  1  -0.00375276  0.86202861  0.06577357  1
  Nd3+  Nd56  1  0.87805187  -0.00814837  0.43207958  1
  Nd3+  Nd57  1  0.49832360  0.36839450  0.05955817  1
  Sm3+  Sm58  1  0.37392996  0.74634153  0.94192292  1
  Sm3+  Sm59  1  0.12977413  0.25659787  0.43794469  1
  Sm3+  Sm60  1  0.00093866  0.62344120  0.06472731  1
  Sm3+  Sm61  1  0.50406457  0.37700274  0.54945311  1
  Sm3+  Sm62  1  0.12480480  -0.00675405  0.95466559  1
  Sm3+  Sm63  1  0.00584833  0.12025427  0.56567945  1
  Bi2+  Bi64  1  -0.02410531  0.15976939  0.28881490  1
  Bi2+  Bi65  1  0.01267251  0.13312926  0.79718237  1
  Bi2+  Bi66  1  -0.10299541  0.44273964  0.29898680  1
  Bi2+  Bi67  1  -0.01823439  0.40144429  0.75931936  1
  Bi2+  Bi68  1  -0.05557390  0.63604339  0.31370761  1
  Bi2+  Bi69  1  0.00073877  0.60532867  0.78404412  1
  Bi2+  Bi70  1  -0.03513437  0.84029755  0.28931127  1
  Bi2+  Bi71  1  0.04855758  0.86334509  0.80751084  1
  Bi2+  Bi72  1  0.23050231  0.17461838  0.28050433  1
  Bi2+  Bi73  1  0.29121289  0.15821593  0.80247024  1
  Bi2+  Bi74  1  0.16924935  0.49818073  0.29721197  1
  Bi2+  Bi75  1  0.19066233  0.32262171  0.81544415  1
  Bi2+  Bi76  1  0.14132343  0.68983036  0.30228197  1
  Bi2+  Bi77  1  0.25259336  0.66136070  0.79058648  1
  Bi2+  Bi78  1  0.25369289  0.91052068  0.27791436  1
  Bi2+  Bi79  1  0.26147293  0.96189217  0.81225977  1
  Bi2+  Bi80  1  0.47588452  0.13227689  0.29107692  1
  Bi2+  Bi81  1  0.48053020  0.09859496  0.79367430  1
  Bi2+  Bi82  1  0.47033954  0.34716293  0.29300762  1
  Bi2+  Bi83  1  0.63480611  0.33459541  0.80358014  1
  Bi2+  Bi84  1  0.51163080  0.62156640  0.29155814  1
  Bi2+  Bi85  1  0.50648606  0.60975771  0.78013180  1
  Bi2+  Bi86  1  0.51348995  0.88503128  0.28857514  1
  Bi2+  Bi87  1  0.44979196  0.86851026  0.77296359  1
  Bi2+  Bi88  1  0.73345063  0.15688259  0.30135611  1
  Bi2+  Bi89  1  0.74753362  0.07979625  0.78691195  1
  Bi2+  Bi90  1  0.71816101  0.33504810  0.24895191  1
  Bi2+  Bi91  1  0.81262492  0.40591191  0.82079461  1
  Bi2+  Bi92  1  0.74759101  0.63812143  0.28493824  1
  Bi2+  Bi93  1  0.78270734  0.59682917  0.78418933  1
  Bi2+  Bi94  1  0.72163549  0.96003647  0.30684696  1
  Bi2+  Bi95  1  0.73817827  0.85339464  0.79651493  1
  Bi2+  Bi96  1  0.10304889  0.02721492  0.20854032  1
  Bi2+  Bi97  1  0.08113814  0.00651371  0.71793309  1
  Bi2+  Bi98  1  0.08832602  0.36403344  0.22576186  1
  Bi2+  Bi99  1  0.16656889  0.25611478  0.70743613  1
  Bi2+  Bi100  1  0.08083745  0.55262220  0.19703136  1
  Bi2+  Bi101  1  0.15962914  0.50929017  0.75104421  1
  Bi2+  Bi102  1  0.08483762  0.77917132  0.20590204  1
  Bi2+  Bi103  1  0.11233653  0.81581356  0.70139518  1
  Bi2+  Bi104  1  0.41925331  0.15867913  0.18628120  1
  Bi2+  Bi105  1  0.35330165  -0.00208118  0.70800128  1
  Bi2+  Bi106  1  0.27487459  0.30353284  0.19578400  1
  Bi2+  Bi107  1  0.51730946  0.24814591  0.72484880  1
  Bi2+  Bi108  1  0.36262453  0.47946922  0.20965674  1
  Bi2+  Bi109  1  0.39048476  0.46358039  0.68307879  1
  Bi2+  Bi110  1  0.34077403  0.71615059  0.22062696  1
  Bi2+  Bi111  1  0.35433382  0.73395419  0.70496283  1
  Bi2+  Bi112  1  0.62550468  0.06358651  0.21909542  1
  Bi2+  Bi113  1  0.60162404  -0.02256599  0.73322296  1
  Bi2+  Bi114  1  0.58893463  0.25674768  0.17153204  1
  Bi2+  Bi115  1  0.71426174  0.22854485  0.71251160  1
  Bi2+  Bi116  1  0.63212923  0.50500324  0.20914424  1
  Bi2+  Bi117  1  0.65097340  0.48988515  0.72604174  1
  Bi2+  Bi118  1  0.58517310  0.76993705  0.21013203  1
  Bi2+  Bi119  1  0.62177933  0.73886134  0.69285446  1
  Bi2+  Bi120  1  0.86264079  -0.02802828  0.22235754  1
  Bi2+  Bi121  1  0.88596688  -0.02864558  0.73508485  1
  Bi2+  Bi122  1  0.83991469  0.23943380  0.18382505  1
  Bi2+  Bi123  1  0.92365627  0.23041306  0.70785472  1
  Bi2+  Bi124  1  0.87885047  0.56701528  0.20765472  1
  Bi2+  Bi125  1  0.84688023  0.49852951  0.69462305  1
  Bi2+  Bi126  1  0.78181982  0.79681272  0.21781600  1
  Bi2+  Bi127  1  0.90877024  0.76507960  0.70646814  1
  S2-  S128  1  -0.01143785  0.16348279  0.18030308  1
  S2-  S129  1  0.12585346  0.12691801  0.64585815  1
  S2-  S130  1  -0.04652060  0.37223992  0.16633870  1
  S2-  S131  1  0.03614376  0.34728240  0.65945440  1
  S2-  S132  1  -0.02589955  0.73662229  0.14026512  1
  S2-  S133  1  0.02372208  0.70051762  0.63793813  1
  S2-  S134  1  -0.01645015  0.96766798  0.14645272  1
  S2-  S135  1  -0.10504814  0.89925332  0.64315913  1
  S2-  S136  1  0.20389695  0.14627890  0.16489273  1
  S2-  S137  1  0.37866780  0.12011173  0.64535167  1
  S2-  S138  1  0.22892837  0.49007681  0.14480562  1
  S2-  S139  1  0.27341146  0.34769652  0.65056171  1
  S2-  S140  1  0.22323022  0.72537101  0.14814201  1
  S2-  S141  1  0.32974397  0.60914843  0.63470932  1
  S2-  S142  1  0.22961950  0.94124276  0.17476014  1
  S2-  S143  1  0.26218732  0.86505871  0.65506709  1
  S2-  S144  1  0.50859576  0.01901634  0.14824696  1
  S2-  S145  1  0.63871890  0.13115839  0.64414062  1
  S2-  S146  1  0.50245508  0.40876797  0.15830263  1
  S2-  S147  1  0.51413886  0.36482387  0.64852409  1
  S2-  S148  1  0.39792066  0.61253448  0.15312344  1
  S2-  S149  1  0.61840445  0.58809430  0.64370218  1
  S2-  S150  1  0.42695336  0.82443538  0.17113534  1
  S2-  S151  1  0.47796123  0.76130208  0.63848429  1
  S2-  S152  1  0.77224129  0.07881346  0.15864074  1
  S2-  S153  1  0.88681716  0.12595258  0.63914605  1
  S2-  S154  1  0.75833644  0.47367803  0.14372242  1
  S2-  S155  1  0.77419568  0.36560834  0.64902516  1
  S2-  S156  1  0.61531324  0.62969934  0.14642593  1
  S2-  S157  1  0.77124106  0.73099457  0.64903343  1
  S2-  S158  1  0.66870465  0.86430874  0.14229852  1
  S2-  S159  1  0.62706987  0.89308449  0.64591506  1
  S2-  S160  1  0.26603838  0.03518290  0.33896424  1
  S2-  S161  1  0.10359279  0.01565177  0.85725106  1
  S2-  S162  1  0.11560795  0.17386734  0.35030583  1
  S2-  S163  1  0.03877753  0.25874810  0.86248549  1
  S2-  S164  1  0.11319058  0.38308873  0.36024787  1
  S2-  S165  1  0.21928119  0.49750527  0.85026411  1
  S2-  S166  1  0.12304634  0.86152171  0.34494035  1
  S2-  S167  1  0.19612490  0.78948522  0.84374972  1
  S2-  S168  1  0.36899715  -0.14120452  0.34015067  1
  S2-  S169  1  0.38289108  -0.11454537  0.87121091  1
  S2-  S170  1  0.35503508  0.23294061  0.34233358  1
  S2-  S171  1  0.35804539  0.30918903  0.85564980  1
  S2-  S172  1  0.33886849  0.43267097  0.31450017  1
  S2-  S173  1  0.40023243  0.47974077  0.77645394  1
  S2-  S174  1  0.37529681  0.63732407  0.33892153  1
  S2-  S175  1  0.39120367  0.65867238  0.85352982  1
  S2-  S176  1  0.51410050  0.01255515  0.35730720  1
  S2-  S177  1  0.61261220  -0.12173456  0.86048088  1
  S2-  S178  1  0.59567347  0.24271382  0.34283175  1
  S2-  S179  1  0.62352691  0.11310565  0.85797890  1
  S2-  S180  1  0.53652377  0.48004698  0.34446866  1
  S2-  S181  1  0.56189375  0.50778126  0.85330890  1
  S2-  S182  1  0.56890588  0.75740558  0.34891995  1
  S2-  S183  1  0.74523491  0.70952836  0.85623213  1
  S2-  S184  1  0.96884796  0.03342379  0.34835429  1
  S2-  S185  1  0.87244877  -0.10606652  0.85353361  1
  S2-  S186  1  0.89210892  0.27661576  0.34119023  1
  S2-  S187  1  0.87650668  0.11551358  0.85911642  1
  S2-  S188  1  0.76347720  0.50433113  0.35473792  1
  S2-  S189  1  0.98745154  0.49707638  0.86430193  1
  S2-  S190  1  0.84686817  0.85584371  0.36032535  1
  S2-  S191  1  0.99971445  0.72517599  0.85620815  1
  S2-  S192  1  0.00778333  0.12636087  0.45961663  1
  S2-  S193  1  0.00326161  0.11826189  0.96947898  1
  S2-  S194  1  -0.00217334  0.37588094  0.45679475  1
  S2-  S195  1  -0.00029027  0.37071975  0.96359188  1
  S2-  S196  1  0.00612603  0.62289480  0.44522110  1
  S2-  S197  1  -0.00411096  0.62283269  0.96275807  1
  S2-  S198  1  0.00634299  0.87451897  0.45438295  1
  S2-  S199  1  0.00004845  0.87388172  0.95995193  1
  S2-  S200  1  0.24921856  0.12724335  0.45712244  1
  S2-  S201  1  0.25126497  0.11543421  0.96116420  1
  S2-  S202  1  0.26044684  0.37729333  0.44801515  1
  S2-  S203  1  0.24900501  0.37127942  0.96278961  1
  S2-  S204  1  0.25074998  0.62180042  0.43903703  1
  S2-  S205  1  0.25008831  0.62683597  0.95807620  1
  S2-  S206  1  0.24998506  0.87742063  0.44651254  1
  S2-  S207  1  0.24663121  0.87032743  0.96838427  1
  S2-  S208  1  0.50349689  0.12579009  0.45959528  1
  S2-  S209  1  0.49241277  0.12054456  0.95782902  1
  S2-  S210  1  0.50432107  0.37072207  0.44676348  1
  S2-  S211  1  0.49774257  0.37035722  0.95161392  1
  S2-  S212  1  0.50818540  0.62072145  0.45221595  1
  S2-  S213  1  0.50139626  0.62023891  0.95717943  1
  S2-  S214  1  0.50509014  0.87329075  0.45611392  1
  S2-  S215  1  0.50114884  0.86953288  0.97000748  1
  S2-  S216  1  0.75577104  0.12173689  0.45156127  1
  S2-  S217  1  0.75085277  0.12580658  0.95601047  1
  S2-  S218  1  0.75663513  0.36768588  0.44772612  1
  S2-  S219  1  0.75228626  0.36707733  0.95407637  1
  S2-  S220  1  0.75787964  0.62781705  0.45613675  1
  S2-  S221  1  0.75009357  0.61406534  0.96199336  1
  S2-  S222  1  0.74962629  0.87385472  0.46237789  1
  S2-  S223  1  0.74838871  0.87757718  0.95496403  1
  S2-  S224  1  0.12705369  -0.00952891  0.05695591  1
  S2-  S225  1  0.12631436  -0.00615779  0.55270819  1
  S2-  S226  1  0.12491235  0.24461685  0.05791329  1
  S2-  S227  1  0.12858297  0.25387782  0.54287551  1
  S2-  S228  1  0.11958350  0.49937621  0.04563630  1
  S2-  S229  1  0.12889091  0.49924172  0.54352675  1
  S2-  S230  1  0.12287530  0.74289186  0.04458358  1
  S2-  S231  1  0.13239658  0.74595980  0.53389403  1
  S2-  S232  1  0.37234610  -0.00884310  0.05630208  1
  S2-  S233  1  0.38264665  -0.00275081  0.54173926  1
  S2-  S234  1  0.37196473  0.24453793  0.05334946  1
  S2-  S235  1  0.38174541  0.25288520  0.54530600  1
  S2-  S236  1  0.37656186  0.49052851  0.04941388  1
  S2-  S237  1  0.38111742  0.49672110  0.53201698  1
  S2-  S238  1  0.37811892  0.74706189  0.04762985  1
  S2-  S239  1  0.37795261  0.74793312  0.53041566  1
  S2-  S240  1  0.62685598  -0.00170396  0.04229786  1
  S2-  S241  1  0.63295877  0.00158434  0.54171195  1
  S2-  S242  1  0.62543075  0.24694985  0.04046013  1
  S2-  S243  1  0.62989644  0.25376288  0.54315336  1
  S2-  S244  1  0.62382616  0.48928279  0.04630673  1
  S2-  S245  1  0.62906276  0.49597481  0.53649672  1
  S2-  S246  1  0.62789095  0.74332350  0.04172947  1
  S2-  S247  1  0.62803083  0.74513811  0.54550742  1
  S2-  S248  1  0.87328052  -0.00599553  0.04405020  1
  S2-  S249  1  0.88228957  -0.00068600  0.53794340  1
  S2-  S250  1  0.87887546  0.24564572  0.04802036  1
  S2-  S251  1  0.88144899  0.25161316  0.54346657  1
  S2-  S252  1  0.88004177  0.49697045  0.04746927  1
  S2-  S253  1  0.88002816  0.50067970  0.54268402  1
  S2-  S254  1  0.86762753  0.74254960  0.04108254  1
  S2-  S255  1  0.87826685  0.74456595  0.54032548  1
