# generated using pymatgen
data_La9Ce10Pr6Nd4Sm3(BiS2)32
_symmetry_space_group_name_H-M   'P 1'
_cell_length_a   16.22244102
_cell_length_b   16.22346400
_cell_length_c   27.15919096
_cell_angle_alpha   89.82308057
_cell_angle_beta   89.99383798
_cell_angle_gamma   90.01464817
_symmetry_Int_Tables_number   1
_chemical_formula_structural   La9Ce10Pr6Nd4Sm3(BiS2)32
_chemical_formula_sum   'La18 Ce20 Pr12 Nd8 Sm6 Bi64 S128'
_cell_volume   7147.83526313
_cell_formula_units_Z   2
loop_
 _symmetry_equiv_pos_site_id
 _symmetry_equiv_pos_as_xyz
  1  'x, y, z'
loop_
 _atom_type_symbol
 _atom_type_oxidation_number
  La3+  3.0
  Ce3+  3.0
  Pr3+  3.0
  Nd3+  3.0
  Sm3+  3.0
  Bi2+  2.0
  S2-  -2.0
loop_
 _atom_site_type_symbol
 _atom_site_label
 _atom_site_symmetry_multiplicity
 _atom_site_fract_x
 _atom_site_fract_y
 _atom_site_fract_z
 _atom_site_occupancy
  La3+  La0  1  0.36515041  0.25001828  0.44212497  1
  La3+  La1  1  0.86527754  0.73640751  0.94153221  1
  La3+  La2  1  0.49069577  0.11641085  0.06878364  1
  La3+  La3  1  0.23538709  0.11714305  0.59330247  1
  La3+  La4  1  0.86400768  0.49547683  0.39198941  1
  La3+  La5  1  0.63824325  0.49101911  0.89638308  1
  La3+  La6  1  0.75507188  0.35081653  0.08720721  1
  La3+  La7  1  0.37413309  0.24484164  0.93080461  1
  La3+  La8  1  0.86987041  0.24037459  0.93574940  1
  La3+  La9  1  0.49317249  0.62353000  0.56376394  1
  La3+  La10  1  0.61989207  0.25618955  0.44042987  1
  La3+  La11  1  0.36684838  -0.00343922  0.92522787  1
  La3+  La12  1  0.37157071  0.50199565  0.89402977  1
  La3+  La13  1  0.50251054  0.60751505  0.05422673  1
  La3+  La14  1  0.75173637  0.37228441  0.57849389  1
  La3+  La15  1  0.61796279  0.74967153  0.43583515  1
  La3+  La16  1  0.11308849  -0.01360646  0.92157619  1
  La3+  La17  1  0.00279496  0.10809999  0.07321067  1
  Ce3+  Ce18  1  -0.00279885  0.36348889  0.05794516  1
  Ce3+  Ce19  1  0.86813026  0.00255089  0.44382232  1
  Ce3+  Ce20  1  0.74436867  0.62237444  0.55976536  1
  Ce3+  Ce21  1  0.61502168  0.49717276  0.44320200  1
  Ce3+  Ce22  1  0.36660679  0.75205219  0.44434509  1
  Ce3+  Ce23  1  0.37357149  0.73856931  0.94153646  1
  Ce3+  Ce24  1  0.11755261  0.75123161  0.44629821  1
  Ce3+  Ce25  1  0.74448827  0.86523401  0.05970778  1
  Ce3+  Ce26  1  -0.00106727  0.86536889  0.06268210  1
  Ce3+  Ce27  1  0.61930619  0.00279288  0.44448904  1
  Ce3+  Ce28  1  0.86925753  0.74398717  0.43948574  1
  Ce3+  Ce29  1  -0.00580189  0.37699228  0.55741807  1
  Ce3+  Ce30  1  0.61994425  -0.00493623  0.93484640  1
  Ce3+  Ce31  1  0.62016899  0.73903238  0.93685916  1
  Ce3+  Ce32  1  -0.00380239  0.12654332  0.55738219  1
  Ce3+  Ce33  1  0.24430079  0.37819088  0.55696482  1
  Ce3+  Ce34  1  0.24843590  0.61423302  0.06236249  1
  Ce3+  Ce35  1  0.49168856  0.87852176  0.55971790  1
  Ce3+  Ce36  1  0.37121530  0.50351316  0.43167661  1
  Ce3+  Ce37  1  0.24371824  0.62361335  0.55634476  1
  Pr3+  Pr38  1  -0.00607673  0.62342929  0.56312559  1
  Pr3+  Pr39  1  0.48216697  0.37165103  0.57362881  1
  Pr3+  Pr40  1  0.11600202  0.00392717  0.42961357  1
  Pr3+  Pr41  1  -0.00298629  0.61283148  0.05874626  1
  Pr3+  Pr42  1  0.24454629  0.10820349  0.06647945  1
  Pr3+  Pr43  1  0.74537037  0.62298879  0.07863892  1
  Pr3+  Pr44  1  0.74339194  0.87509732  0.55682692  1
  Pr3+  Pr45  1  0.12344600  0.73908137  0.93778374  1
  Pr3+  Pr46  1  0.11815665  0.25273948  0.44294294  1
  Pr3+  Pr47  1  0.50150178  0.36668127  0.05070890  1
  Pr3+  Pr48  1  0.12349552  0.49105177  0.93684136  1
  Pr3+  Pr49  1  -0.00705912  0.87601908  0.55976665  1
  Nd3+  Nd50  1  0.36862136  0.00181148  0.44055444  1
  Nd3+  Nd51  1  0.12168273  0.23814420  0.94078383  1
  Nd3+  Nd52  1  0.49610986  0.86763989  0.05253592  1
  Nd3+  Nd53  1  0.86592291  0.48873758  0.95017567  1
  Nd3+  Nd54  1  0.24897424  0.85846998  0.06343648  1
  Nd3+  Nd55  1  0.62164893  0.24030340  0.93722801  1
  Nd3+  Nd56  1  0.74309236  0.12749093  0.56061024  1
  Nd3+  Nd57  1  0.24162115  0.87844272  0.55980632  1
  Sm3+  Sm58  1  0.25009434  0.36529045  0.05190486  1
  Sm3+  Sm59  1  0.86752622  0.25529600  0.44164033  1
  Sm3+  Sm60  1  0.11512906  0.50394848  0.43638371  1
  Sm3+  Sm61  1  0.74344825  0.11336760  0.06045690  1
  Sm3+  Sm62  1  0.49302852  0.12716459  0.55968246  1
  Sm3+  Sm63  1  0.87189998  -0.01009826  0.94483471  1
  Bi2+  Bi64  1  0.00020489  0.10362618  0.29040357  1
  Bi2+  Bi65  1  0.00383571  0.10861181  0.77924353  1
  Bi2+  Bi66  1  0.07039859  0.39003822  0.27357403  1
  Bi2+  Bi67  1  0.01872962  0.39503043  0.79440939  1
  Bi2+  Bi68  1  0.00460039  0.65095562  0.28995196  1
  Bi2+  Bi69  1  0.04114178  0.59510600  0.79216415  1
  Bi2+  Bi70  1  0.00851204  0.85127277  0.27553370  1
  Bi2+  Bi71  1  -0.03482373  0.86968283  0.79445346  1
  Bi2+  Bi72  1  0.24633423  0.12375912  0.31378742  1
  Bi2+  Bi73  1  0.25154246  0.12743698  0.79432029  1
  Bi2+  Bi74  1  0.27195789  0.37158516  0.29744735  1
  Bi2+  Bi75  1  0.22197533  0.37857783  0.78226974  1
  Bi2+  Bi76  1  0.24785985  0.56243114  0.31848186  1
  Bi2+  Bi77  1  0.22470155  0.65967186  0.78853555  1
  Bi2+  Bi78  1  0.26022039  0.75634437  0.29145758  1
  Bi2+  Bi79  1  0.23213011  0.85658038  0.78371121  1
  Bi2+  Bi80  1  0.50509955  0.12945119  0.30924839  1
  Bi2+  Bi81  1  0.51306837  0.11170895  0.78099769  1
  Bi2+  Bi82  1  0.46543260  0.42351129  0.26290471  1
  Bi2+  Bi83  1  0.49938266  0.36323107  0.78810022  1
  Bi2+  Bi84  1  0.43943481  0.60676552  0.30711487  1
  Bi2+  Bi85  1  0.50252017  0.73968400  0.79358976  1
  Bi2+  Bi86  1  0.48517064  0.90199739  0.29015452  1
  Bi2+  Bi87  1  0.49306568  0.92879061  0.81908991  1
  Bi2+  Bi88  1  0.79291918  0.13383963  0.27996990  1
  Bi2+  Bi89  1  0.76201242  0.08500687  0.80318867  1
  Bi2+  Bi90  1  0.72545119  0.36841538  0.29587662  1
  Bi2+  Bi91  1  0.76155111  0.36884622  0.78763776  1
  Bi2+  Bi92  1  0.73730059  0.62516700  0.28362241  1
  Bi2+  Bi93  1  0.77329594  0.62648266  0.79102222  1
  Bi2+  Bi94  1  0.74477162  0.85481503  0.29128444  1
  Bi2+  Bi95  1  0.69114813  0.89771444  0.82300584  1
  Bi2+  Bi96  1  0.13324705  0.00028855  0.21142182  1
  Bi2+  Bi97  1  0.11941948  -0.00399363  0.71106012  1
  Bi2+  Bi98  1  0.16762541  0.25880715  0.21397633  1
  Bi2+  Bi99  1  0.10475743  0.28241795  0.71059928  1
  Bi2+  Bi100  1  0.11336243  0.54464288  0.20479992  1
  Bi2+  Bi101  1  0.12491931  0.47549608  0.69162225  1
  Bi2+  Bi102  1  0.12403284  0.74489660  0.20712322  1
  Bi2+  Bi103  1  0.08961598  0.74429434  0.71608730  1
  Bi2+  Bi104  1  0.38911451  -0.01252185  0.20592262  1
  Bi2+  Bi105  1  0.38777887  -0.03579389  0.71993690  1
  Bi2+  Bi106  1  0.36641812  0.24964513  0.20868735  1
  Bi2+  Bi107  1  0.40137236  0.26007688  0.70579892  1
  Bi2+  Bi108  1  0.30798116  0.51110571  0.20657727  1
  Bi2+  Bi109  1  0.35854038  0.51966359  0.70564124  1
  Bi2+  Bi110  1  0.39062165  0.70495081  0.21065462  1
  Bi2+  Bi111  1  0.36434357  0.77401067  0.71317528  1
  Bi2+  Bi112  1  0.67910950  -0.00166552  0.22007329  1
  Bi2+  Bi113  1  0.66234445  -0.01223948  0.71980205  1
  Bi2+  Bi114  1  0.62043783  0.23158497  0.19829411  1
  Bi2+  Bi115  1  0.64532504  0.23848014  0.69730533  1
  Bi2+  Bi116  1  0.58648031  0.49329236  0.18731518  1
  Bi2+  Bi117  1  0.61721872  0.51972533  0.69201153  1
  Bi2+  Bi118  1  0.60125753  0.81666753  0.21343129  1
  Bi2+  Bi119  1  0.65717965  0.78916504  0.72722366  1
  Bi2+  Bi120  1  0.87577737  0.00496887  0.20738828  1
  Bi2+  Bi121  1  0.86624084  -0.00942298  0.72250014  1
  Bi2+  Bi122  1  0.92957618  0.26137852  0.24152574  1
  Bi2+  Bi123  1  0.91592151  0.23962522  0.71264523  1
  Bi2+  Bi124  1  0.87696511  0.48828653  0.18918747  1
  Bi2+  Bi125  1  0.93307816  0.50674140  0.71008730  1
  Bi2+  Bi126  1  0.86410264  0.80634830  0.20596127  1
  Bi2+  Bi127  1  0.85303851  0.76130816  0.72079579  1
  S2-  S128  1  0.12984680  0.12910946  0.14580250  1
  S2-  S129  1  0.07538096  0.11312602  0.64315596  1
  S2-  S130  1  -0.06663542  0.33874512  0.14795226  1
  S2-  S131  1  -0.08477745  0.36586729  0.64453417  1
  S2-  S132  1  -0.03145623  0.62045420  0.15819883  1
  S2-  S133  1  -0.03514387  0.66077113  0.66066508  1
  S2-  S134  1  0.00792843  0.96609536  0.14193919  1
  S2-  S135  1  0.04226209  0.87765087  0.65705280  1
  S2-  S136  1  0.36197618  0.12812657  0.14352803  1
  S2-  S137  1  0.27703456  0.16714194  0.69020056  1
  S2-  S138  1  0.26310472  0.35891603  0.15096186  1
  S2-  S139  1  0.33400793  0.38252275  0.64030618  1
  S2-  S140  1  0.25538555  0.72325341  0.13933439  1
  S2-  S141  1  0.23013114  0.60334134  0.65286464  1
  S2-  S142  1  0.24819465  0.94312497  0.15282456  1
  S2-  S143  1  0.25123778  0.96405529  0.64612966  1
  S2-  S144  1  0.56988882  0.09387564  0.16020120  1
  S2-  S145  1  0.50804354  0.14508758  0.65706953  1
  S2-  S146  1  0.50158599  0.33462375  0.15160023  1
  S2-  S147  1  0.53207084  0.36834348  0.67181205  1
  S2-  S148  1  0.51304924  0.63459600  0.15459916  1
  S2-  S149  1  0.47255516  0.61328885  0.66404840  1
  S2-  S150  1  0.46707693  0.87860123  0.15179484  1
  S2-  S151  1  0.48427132  0.86957269  0.65705834  1
  S2-  S152  1  0.75372584  0.19851670  0.14467622  1
  S2-  S153  1  0.77547377  0.17602189  0.65485197  1
  S2-  S154  1  0.71609296  0.38001427  0.18952865  1
  S2-  S155  1  0.72570387  0.38851160  0.68071674  1
  S2-  S156  1  0.73314827  0.58178989  0.17971536  1
  S2-  S157  1  0.72745061  0.62294617  0.65736336  1
  S2-  S158  1  0.72899179  0.77455871  0.14258579  1
  S2-  S159  1  0.78680532  0.87504600  0.65424445  1
  S2-  S160  1  0.15876061  -0.00825039  0.33045381  1
  S2-  S161  1  0.23942480  -0.00409698  0.84974262  1
  S2-  S162  1  0.11459621  0.20724520  0.34593244  1
  S2-  S163  1  0.11951721  0.18375981  0.84582351  1
  S2-  S164  1  0.02911069  0.50505071  0.35079242  1
  S2-  S165  1  0.21192216  0.50659269  0.84945284  1
  S2-  S166  1  0.10489062  0.75666123  0.34891589  1
  S2-  S167  1  0.10173351  0.83492867  0.85441278  1
  S2-  S168  1  0.37635540  0.01622032  0.34051042  1
  S2-  S169  1  0.38875319  0.13177389  0.85199530  1
  S2-  S170  1  0.37971308  0.23572767  0.34167679  1
  S2-  S171  1  0.36185656  0.34157339  0.84349768  1
  S2-  S172  1  0.49399814  0.47369903  0.36511500  1
  S2-  S173  1  0.43492301  0.51088018  0.79411445  1
  S2-  S174  1  0.40557294  0.78298060  0.35040081  1
  S2-  S175  1  0.36560748  0.67907412  0.85072028  1
  S2-  S176  1  0.59907225  0.00664646  0.34741681  1
  S2-  S177  1  0.62018397  0.11698110  0.86165798  1
  S2-  S178  1  0.61063477  0.24791592  0.33839529  1
  S2-  S179  1  0.63927297  0.32986808  0.84986422  1
  S2-  S180  1  0.69596419  0.50442892  0.35448701  1
  S2-  S181  1  0.64006650  0.49292394  0.78662415  1
  S2-  S182  1  0.63961622  0.73567122  0.33546168  1
  S2-  S183  1  0.64030371  0.65878489  0.85220606  1
  S2-  S184  1  0.87701479  0.02748199  0.34733492  1
  S2-  S185  1  0.96241175  0.00137425  0.86080210  1
  S2-  S186  1  0.85547620  0.32438448  0.35255992  1
  S2-  S187  1  0.84100146  0.23447006  0.83564196  1
  S2-  S188  1  0.84693451  0.49219510  0.28264702  1
  S2-  S189  1  0.81082357  0.49277106  0.85555562  1
  S2-  S190  1  0.86286908  0.66572618  0.35202967  1
  S2-  S191  1  0.87234770  0.73517103  0.84048732  1
  S2-  S192  1  -0.00905706  0.12945053  0.45132788  1
  S2-  S193  1  -0.00416464  0.11642492  0.96091191  1
  S2-  S194  1  -0.00677003  0.37749259  0.45192638  1
  S2-  S195  1  -0.00342503  0.36706866  0.94982227  1
  S2-  S196  1  -0.00403668  0.62658922  0.45636446  1
  S2-  S197  1  -0.00486669  0.61335218  0.95034181  1
  S2-  S198  1  -0.00844125  0.87646365  0.45065759  1
  S2-  S199  1  -0.01041438  0.86069899  0.95873245  1
  S2-  S200  1  0.24163780  0.12337723  0.45121329  1
  S2-  S201  1  0.24378099  0.11839359  0.95646053  1
  S2-  S202  1  0.24061065  0.38063280  0.44856602  1
  S2-  S203  1  0.24356402  0.36634918  0.94866816  1
  S2-  S204  1  0.24215089  0.62661846  0.45002645  1
  S2-  S205  1  0.24860826  0.61474953  0.95596987  1
  S2-  S206  1  0.24270065  0.87852905  0.45177393  1
  S2-  S207  1  0.24917537  0.85989076  0.95382443  1
  S2-  S208  1  0.49453718  0.12620872  0.45443767  1
  S2-  S209  1  0.49622089  0.11509691  0.96010195  1
  S2-  S210  1  0.48889797  0.37058963  0.46550524  1
  S2-  S211  1  0.50116205  0.37724743  0.94423170  1
  S2-  S212  1  0.49180937  0.62868967  0.45579502  1
  S2-  S213  1  0.49915978  0.60824306  0.94621557  1
  S2-  S214  1  0.49443196  0.87840500  0.45405673  1
  S2-  S215  1  0.49726550  0.86525013  0.94703112  1
  S2-  S216  1  0.74505514  0.12924287  0.45253191  1
  S2-  S217  1  0.75094969  0.11241294  0.95666703  1
  S2-  S218  1  0.74545874  0.37616408  0.46213591  1
  S2-  S219  1  0.74752016  0.36427306  0.96011061  1
  S2-  S220  1  0.74152383  0.62476334  0.45550240  1
  S2-  S221  1  0.74278764  0.61138506  0.96386129  1
  S2-  S222  1  0.74514466  0.87577065  0.44940463  1
  S2-  S223  1  0.74615167  0.86800512  0.95371629  1
  S2-  S224  1  0.12445633  -0.01703464  0.03697413  1
  S2-  S225  1  0.11779209  -0.00056348  0.53828409  1
  S2-  S226  1  0.12286669  0.24514789  0.04617978  1
  S2-  S227  1  0.12175883  0.25253194  0.54970729  1
  S2-  S228  1  0.12304487  0.48841875  0.04678499  1
  S2-  S229  1  0.11851010  0.50058402  0.54274503  1
  S2-  S230  1  0.11847986  0.73868757  0.04457550  1
  S2-  S231  1  0.11991171  0.75154439  0.55261305  1
  S2-  S232  1  0.36967503  -0.01364868  0.03819159  1
  S2-  S233  1  0.36948773  0.00541554  0.54746169  1
  S2-  S234  1  0.37101600  0.24611670  0.03954481  1
  S2-  S235  1  0.36072911  0.23909062  0.55024453  1
  S2-  S236  1  0.37090267  0.48879301  0.05177509  1
  S2-  S237  1  0.36687193  0.50264815  0.53998317  1
  S2-  S238  1  0.37876210  0.73742968  0.04478474  1
  S2-  S239  1  0.36594718  0.75298845  0.55138626  1
  S2-  S240  1  0.62269364  -0.01021966  0.04568591  1
  S2-  S241  1  0.61867038  0.00338832  0.55284812  1
  S2-  S242  1  0.62387777  0.23827433  0.04439554  1
  S2-  S243  1  0.61786120  0.25092886  0.55079282  1
  S2-  S244  1  0.63164913  0.48548717  0.06351473  1
  S2-  S245  1  0.61736851  0.49455060  0.55319274  1
  S2-  S246  1  0.61895976  0.74185488  0.04238587  1
  S2-  S247  1  0.61782440  0.75181504  0.54836433  1
  S2-  S248  1  0.86751407  -0.01004111  0.04897763  1
  S2-  S249  1  0.86880989  0.00325690  0.55127237  1
  S2-  S250  1  0.87744244  0.23281069  0.04421596  1
  S2-  S251  1  0.87134272  0.24760275  0.54471391  1
  S2-  S252  1  0.86929345  0.48948082  0.05536171  1
  S2-  S253  1  0.86946985  0.50226325  0.55304571  1
  S2-  S254  1  0.87352544  0.74063933  0.04938739  1
  S2-  S255  1  0.86859069  0.75026228  0.54682678  1
