# generated using pymatgen
data_La9Ce10Pr6Nd4Sm3(BiS2)32
_symmetry_space_group_name_H-M   'P 1'
_cell_length_a   16.19913791
_cell_length_b   16.19629717
_cell_length_c   27.11995092
_cell_angle_alpha   89.94214692
_cell_angle_beta   90.00173497
_cell_angle_gamma   90.00014587
_symmetry_Int_Tables_number   1
_chemical_formula_structural   La9Ce10Pr6Nd4Sm3(BiS2)32
_chemical_formula_sum   'La18 Ce20 Pr12 Nd8 Sm6 Bi64 S128'
_cell_volume   7115.35080778
_cell_formula_units_Z   2
loop_
 _symmetry_equiv_pos_site_id
 _symmetry_equiv_pos_as_xyz
  1  'x, y, z'
loop_
 _atom_type_symbol
 _atom_type_oxidation_number
  La3+  3.0
  Ce3+  3.0
  Pr3+  3.0
  Nd3+  3.0
  Sm3+  3.0
  Bi2+  2.0
  S2-  -2.0
loop_
 _atom_site_type_symbol
 _atom_site_label
 _atom_site_symmetry_multiplicity
 _atom_site_fract_x
 _atom_site_fract_y
 _atom_site_fract_z
 _atom_site_occupancy
  La3+  La0  1  0.14168534  0.25097696  0.92660079  1
  La3+  La1  1  0.64328870  0.50119234  0.93206407  1
  La3+  La2  1  0.72833815  0.13360096  0.57635014  1
  La3+  La3  1  0.64423272  0.25228833  0.90996297  1
  La3+  La4  1  0.84976732  0.24820259  0.42259314  1
  La3+  La5  1  0.02243903  0.36740133  0.08198645  1
  La3+  La6  1  0.85877577  0.50159317  0.38726369  1
  La3+  La7  1  0.47250942  0.13223834  0.59386513  1
  La3+  La8  1  -0.02248027  0.13608421  0.57628534  1
  La3+  La9  1  0.60068665  0.75409314  0.42969229  1
  La3+  La10  1  0.89377168  0.24899455  0.93300796  1
  La3+  La11  1  0.72532880  0.62840447  0.56465188  1
  La3+  La12  1  0.23113281  0.87176581  0.57103379  1
  La3+  La13  1  -0.02933853  0.62812526  0.57333021  1
  La3+  La14  1  0.35085483  0.25418553  0.43811033  1
  La3+  La15  1  0.60228048  0.50313745  0.42977067  1
  La3+  La16  1  0.02497140  0.63665798  0.08445275  1
  La3+  La17  1  0.14570702  0.74194711  0.91228608  1
  Ce3+  Ce18  1  0.09957275  0.25345252  0.43885955  1
  Ce3+  Ce19  1  0.60017141  0.25133336  0.44042429  1
  Ce3+  Ce20  1  0.77017786  0.62469505  0.06366785  1
  Ce3+  Ce21  1  0.39595152  0.25077263  0.95016076  1
  Ce3+  Ce22  1  0.89882232  0.50243236  0.95147589  1
  Ce3+  Ce23  1  -0.02537320  0.37672618  0.55244168  1
  Ce3+  Ce24  1  0.52132818  0.12646745  0.06248590  1
  Ce3+  Ce25  1  0.14567719  -0.00023624  0.93426689  1
  Ce3+  Ce26  1  0.89081680  0.00014842  0.94144033  1
  Ce3+  Ce27  1  0.22892809  0.37913171  0.55591082  1
  Ce3+  Ce28  1  0.85273670  0.00781187  0.43948326  1
  Ce3+  Ce29  1  0.23137335  0.62569940  0.56320357  1
  Ce3+  Ce30  1  0.39300422  0.74903112  0.93254075  1
  Ce3+  Ce31  1  0.26776246  0.12512019  0.05526846  1
  Ce3+  Ce32  1  0.48013886  0.87789992  0.55654375  1
  Ce3+  Ce33  1  0.72784667  0.37304684  0.54914652  1
  Ce3+  Ce34  1  0.39597003  0.00036623  0.94631219  1
  Ce3+  Ce35  1  0.22492593  0.13061966  0.56988710  1
  Ce3+  Ce36  1  0.77033727  0.37217049  0.05632693  1
  Ce3+  Ce37  1  0.47971367  0.37548929  0.56587966  1
  Pr3+  Pr38  1  0.35437973  0.75352008  0.43252492  1
  Pr3+  Pr39  1  0.51536614  0.86276532  0.07079195  1
  Pr3+  Pr40  1  0.64128804  0.74822034  0.93292100  1
  Pr3+  Pr41  1  0.52443804  0.61551850  0.07034762  1
  Pr3+  Pr42  1  0.60141028  0.00718073  0.43835333  1
  Pr3+  Pr43  1  0.89556555  0.74658132  0.93639802  1
  Pr3+  Pr44  1  -0.02620088  0.87728195  0.55907166  1
  Pr3+  Pr45  1  0.10292002  0.00188990  0.44670114  1
  Pr3+  Pr46  1  0.52334217  0.37506934  0.07074476  1
  Pr3+  Pr47  1  0.76777381  0.87274869  0.05926999  1
  Pr3+  Pr48  1  0.10109028  0.75169502  0.44293096  1
  Pr3+  Pr49  1  0.26661009  0.62761245  0.06349106  1
  Nd3+  Nd50  1  0.39374046  0.49846371  0.94744690  1
  Nd3+  Nd51  1  0.14257430  0.50008989  0.94240882  1
  Nd3+  Nd52  1  0.35463744  0.50519171  0.44092375  1
  Nd3+  Nd53  1  0.26671253  0.87483074  0.05250741  1
  Nd3+  Nd54  1  0.26408994  0.37297215  0.06354252  1
  Nd3+  Nd55  1  0.75913347  0.12781747  0.06746067  1
  Nd3+  Nd56  1  0.01940179  0.87453506  0.05148482  1
  Nd3+  Nd57  1  0.64185845  -0.00133119  0.94588615  1
  Sm3+  Sm58  1  0.01827806  0.12370911  0.05854697  1
  Sm3+  Sm59  1  0.84487783  0.75072340  0.43335080  1
  Sm3+  Sm60  1  0.72528669  0.88142870  0.55652879  1
  Sm3+  Sm61  1  0.48222000  0.62638542  0.56562744  1
  Sm3+  Sm62  1  0.35058762  0.00379339  0.44719263  1
  Sm3+  Sm63  1  0.09704088  0.50754187  0.44358001  1
  Bi2+  Bi64  1  0.03927992  0.13817269  0.28456899  1
  Bi2+  Bi65  1  0.00067693  0.12868229  0.79193111  1
  Bi2+  Bi66  1  -0.00623519  0.38361084  0.28348594  1
  Bi2+  Bi67  1  0.02541990  0.41000985  0.77041566  1
  Bi2+  Bi68  1  -0.00618009  0.62671817  0.27474759  1
  Bi2+  Bi69  1  -0.01128282  0.65145782  0.80850589  1
  Bi2+  Bi70  1  0.01250613  0.88224842  0.29447424  1
  Bi2+  Bi71  1  -0.03468952  0.94992762  0.75132123  1
  Bi2+  Bi72  1  0.24387225  0.06983641  0.29143240  1
  Bi2+  Bi73  1  0.21060859  0.17392638  0.80401536  1
  Bi2+  Bi74  1  0.27761909  0.37101115  0.29075070  1
  Bi2+  Bi75  1  0.20274717  0.37730318  0.81737038  1
  Bi2+  Bi76  1  0.26024019  0.56350047  0.32531604  1
  Bi2+  Bi77  1  0.26314233  0.59062244  0.79149341  1
  Bi2+  Bi78  1  0.24607199  0.76063413  0.31386891  1
  Bi2+  Bi79  1  0.33957454  0.86247836  0.78536388  1
  Bi2+  Bi80  1  0.50791267  0.12627814  0.29569651  1
  Bi2+  Bi81  1  0.45719749  0.11898747  0.80038211  1
  Bi2+  Bi82  1  0.51658692  0.34165443  0.31189484  1
  Bi2+  Bi83  1  0.49102016  0.40008633  0.79338524  1
  Bi2+  Bi84  1  0.44639828  0.59961291  0.28139045  1
  Bi2+  Bi85  1  0.51743376  0.61766532  0.79044650  1
  Bi2+  Bi86  1  0.45375520  0.87535873  0.29606394  1
  Bi2+  Bi87  1  0.51797044  0.80804948  0.82173477  1
  Bi2+  Bi88  1  0.79000320  0.09199810  0.26187115  1
  Bi2+  Bi89  1  0.75375073  0.10253293  0.80396447  1
  Bi2+  Bi90  1  0.70587323  0.32021353  0.27042010  1
  Bi2+  Bi91  1  0.70649235  0.42822105  0.75090046  1
  Bi2+  Bi92  1  0.74431878  0.66811227  0.28728546  1
  Bi2+  Bi93  1  0.77902715  0.59938969  0.79082897  1
  Bi2+  Bi94  1  0.82779111  0.92479028  0.31238263  1
  Bi2+  Bi95  1  0.71192206  0.84456265  0.80088454  1
  Bi2+  Bi96  1  0.16989000  -0.03496035  0.20498338  1
  Bi2+  Bi97  1  0.20298908  0.03984466  0.71904492  1
  Bi2+  Bi98  1  0.14606239  0.24263347  0.20934931  1
  Bi2+  Bi99  1  0.10145783  0.25932070  0.70658743  1
  Bi2+  Bi100  1  0.19729112  0.50395753  0.22145132  1
  Bi2+  Bi101  1  0.17529287  0.48113889  0.70774197  1
  Bi2+  Bi102  1  0.14513958  0.76779817  0.20706412  1
  Bi2+  Bi103  1  0.13976600  0.76262786  0.71646740  1
  Bi2+  Bi104  1  0.39666558  0.01983410  0.22085598  1
  Bi2+  Bi105  1  0.40807720  0.01272940  0.71224040  1
  Bi2+  Bi106  1  0.33921036  0.20140425  0.19235492  1
  Bi2+  Bi107  1  0.34423439  0.29029432  0.75612695  1
  Bi2+  Bi108  1  0.38863919  0.44527594  0.20328852  1
  Bi2+  Bi109  1  0.36141257  0.55269717  0.68962607  1
  Bi2+  Bi110  1  0.35663740  0.74031843  0.22100750  1
  Bi2+  Bi111  1  0.42903669  0.73842552  0.71233323  1
  Bi2+  Bi112  1  0.61961970  0.02267779  0.22401775  1
  Bi2+  Bi113  1  0.59434265  -0.03765646  0.72189910  1
  Bi2+  Bi114  1  0.52094989  0.26442920  0.19992577  1
  Bi2+  Bi115  1  0.61127086  0.24318772  0.70934894  1
  Bi2+  Bi116  1  0.60538789  0.48675368  0.25021310  1
  Bi2+  Bi117  1  0.54441580  0.47932988  0.68838457  1
  Bi2+  Bi118  1  0.61625454  0.77045980  0.19653614  1
  Bi2+  Bi119  1  0.64537473  0.72717388  0.71924798  1
  Bi2+  Bi120  1  0.97549570  0.01050998  0.20312147  1
  Bi2+  Bi121  1  0.78907051  -0.03148627  0.70753702  1
  Bi2+  Bi122  1  0.87379282  0.25474380  0.19364408  1
  Bi2+  Bi123  1  0.85327944  0.24709643  0.70658799  1
  Bi2+  Bi124  1  0.81959688  0.50621635  0.18456005  1
  Bi2+  Bi125  1  0.87891862  0.49048425  0.71318372  1
  Bi2+  Bi126  1  0.88078134  0.83038394  0.21286146  1
  Bi2+  Bi127  1  0.89517941  0.75425712  0.69646470  1
  S2-  S128  1  0.01689872  0.21693450  0.14167334  1
  S2-  S129  1  0.10609500  0.11922439  0.64723600  1
  S2-  S130  1  -0.04301660  0.40142081  0.17883518  1
  S2-  S131  1  -0.03173962  0.29658560  0.64098830  1
  S2-  S132  1  -0.06522120  0.61620494  0.17359811  1
  S2-  S133  1  0.03532660  0.66713922  0.67139054  1
  S2-  S134  1  0.01857428  0.80161167  0.14207573  1
  S2-  S135  1  -0.00536648  0.88324942  0.66065977  1
  S2-  S136  1  0.20520209  0.11209117  0.14568843  1
  S2-  S137  1  0.32491080  0.12344514  0.65197194  1
  S2-  S138  1  0.16897548  0.37700113  0.14707560  1
  S2-  S139  1  0.22853584  0.34448831  0.65258631  1
  S2-  S140  1  0.16894456  0.62709291  0.14804286  1
  S2-  S141  1  0.24795691  0.69374010  0.65272481  1
  S2-  S142  1  0.27798178  0.85410279  0.15191073  1
  S2-  S143  1  0.21884708  0.89814779  0.67140307  1
  S2-  S144  1  0.61388692  0.14053847  0.14466787  1
  S2-  S145  1  0.61285558  0.10435745  0.65721594  1
  S2-  S146  1  0.52882673  0.49205931  0.14814945  1
  S2-  S147  1  0.48270988  0.28467359  0.65065782  1
  S2-  S148  1  0.48622142  0.72480782  0.14519695  1
  S2-  S149  1  0.60110852  0.62788003  0.64054447  1
  S2-  S150  1  0.53040102  0.92128648  0.16817161  1
  S2-  S151  1  0.49209825  0.86905084  0.65479144  1
  S2-  S152  1  0.83258624  0.09964099  0.15698610  1
  S2-  S153  1  0.85592343  0.11105584  0.65183672  1
  S2-  S154  1  0.74202386  0.34836009  0.15328444  1
  S2-  S155  1  0.73393318  0.29308748  0.63806523  1
  S2-  S156  1  0.70244369  0.63812151  0.15526224  1
  S2-  S157  1  0.83740524  0.62214648  0.64635861  1
  S2-  S158  1  0.74302221  0.86860946  0.15965451  1
  S2-  S159  1  0.74792521  0.82665757  0.65017298  1
  S2-  S160  1  0.10342354  0.00819764  0.34565081  1
  S2-  S161  1  0.12980661  0.02587696  0.83729071  1
  S2-  S162  1  0.09584262  0.27207569  0.34028537  1
  S2-  S163  1  0.01194135  0.25321075  0.85422616  1
  S2-  S164  1  0.03553287  0.50663411  0.35025813  1
  S2-  S165  1  0.12844158  0.58855603  0.85536946  1
  S2-  S166  1  0.07860725  0.73504233  0.34265610  1
  S2-  S167  1  0.07647234  0.78624601  0.81753205  1
  S2-  S168  1  0.33603381  -0.03788981  0.35113293  1
  S2-  S169  1  0.36990043  -0.00278624  0.84905915  1
  S2-  S170  1  0.36855088  0.24798972  0.33703758  1
  S2-  S171  1  0.41777889  0.26722457  0.85388278  1
  S2-  S172  1  0.46539910  0.49558305  0.36193756  1
  S2-  S173  1  0.39667206  0.52116758  0.84801208  1
  S2-  S174  1  0.47596864  0.74219114  0.35571629  1
  S2-  S175  1  0.29337921  0.73425096  0.85098292  1
  S2-  S176  1  0.57872494  -0.01605428  0.33723664  1
  S2-  S177  1  0.64399378  -0.01501556  0.84650268  1
  S2-  S178  1  0.65140450  0.23017810  0.34560345  1
  S2-  S179  1  0.60830053  0.18769391  0.81108765  1
  S2-  S180  1  0.69297803  0.53111626  0.34080950  1
  S2-  S181  1  0.62937685  0.39687077  0.84954471  1
  S2-  S182  1  0.71177346  0.77931126  0.34986244  1
  S2-  S183  1  0.64918288  0.62581159  0.85818249  1
  S2-  S184  1  0.85563390  0.10508865  0.35801133  1
  S2-  S185  1  0.89103237  0.00723252  0.84312236  1
  S2-  S186  1  0.85743313  0.34176436  0.33563033  1
  S2-  S187  1  0.79051661  0.23713508  0.85070633  1
  S2-  S188  1  0.87538992  0.51067216  0.27661646  1
  S2-  S189  1  0.89664106  0.51376847  0.85359239  1
  S2-  S190  1  0.87910499  0.66610802  0.34858786  1
  S2-  S191  1  0.85570551  0.75161808  0.83699823  1
  S2-  S192  1  -0.01770333  0.12793740  0.45932454  1
  S2-  S193  1  0.01939918  0.11974611  0.95405633  1
  S2-  S194  1  -0.02330213  0.38092169  0.44827228  1
  S2-  S195  1  0.02062832  0.37696397  0.95944873  1
  S2-  S196  1  -0.02330982  0.62906573  0.46078884  1
  S2-  S197  1  0.02016721  0.62732577  0.96079837  1
  S2-  S198  1  -0.02592422  0.87597618  0.45050196  1
  S2-  S199  1  0.01918160  0.87452077  0.94424033  1
  S2-  S200  1  0.22673708  0.12751093  0.45451145  1
  S2-  S201  1  0.26972080  0.12603016  0.94922815  1
  S2-  S202  1  0.22410834  0.38434794  0.44806945  1
  S2-  S203  1  0.26809745  0.37474164  0.95675485  1
  S2-  S204  1  0.22775909  0.62756472  0.45657846  1
  S2-  S205  1  0.26923164  0.62128549  0.95714933  1
  S2-  S206  1  0.22962299  0.87588826  0.45929715  1
  S2-  S207  1  0.26832080  0.87647136  0.94694124  1
  S2-  S208  1  0.47286959  0.12616286  0.44762911  1
  S2-  S209  1  0.52114487  0.12621503  0.95347228  1
  S2-  S210  1  0.47646590  0.37483810  0.45922083  1
  S2-  S211  1  0.51754002  0.37509155  0.96087105  1
  S2-  S212  1  0.47659591  0.62852963  0.46165436  1
  S2-  S213  1  0.51431961  0.62493491  0.95956131  1
  S2-  S214  1  0.47489909  0.88264486  0.45228322  1
  S2-  S215  1  0.51748781  0.87359967  0.95900177  1
  S2-  S216  1  0.72440994  0.12740142  0.45976983  1
  S2-  S217  1  0.76447902  0.12142524  0.95796911  1
  S2-  S218  1  0.72712052  0.37739346  0.44415459  1
  S2-  S219  1  0.77154969  0.37794724  0.95101484  1
  S2-  S220  1  0.72641393  0.62974021  0.45462040  1
  S2-  S221  1  0.77142286  0.62630209  0.95787711  1
  S2-  S222  1  0.72808057  0.88329365  0.45351186  1
  S2-  S223  1  0.76733805  0.87236795  0.95144876  1
  S2-  S224  1  0.14149465  -0.00056976  0.04231701  1
  S2-  S225  1  0.10380124  -0.00270389  0.55180589  1
  S2-  S226  1  0.14378614  0.24596602  0.03775030  1
  S2-  S227  1  0.10576484  0.25684428  0.54308763  1
  S2-  S228  1  0.14148648  0.50045566  0.04745418  1
  S2-  S229  1  0.10116791  0.50390216  0.55136011  1
  S2-  S230  1  0.14538621  0.75347961  0.03756420  1
  S2-  S231  1  0.10214802  0.75172251  0.55026545  1
  S2-  S232  1  0.39469839  -0.00037930  0.05409723  1
  S2-  S233  1  0.35436661  0.00237854  0.55135390  1
  S2-  S234  1  0.39382285  0.25224832  0.05625364  1
  S2-  S235  1  0.35217185  0.25367195  0.54587137  1
  S2-  S236  1  0.38847046  0.49767061  0.05338641  1
  S2-  S237  1  0.35705210  0.50335051  0.54858165  1
  S2-  S238  1  0.38851134  0.74904494  0.04031353  1
  S2-  S239  1  0.35903375  0.74874168  0.54551227  1
  S2-  S240  1  0.64056989  -0.00484661  0.05148790  1
  S2-  S241  1  0.60075536  0.00386353  0.54703351  1
  S2-  S242  1  0.64232309  0.25300647  0.04049868  1
  S2-  S243  1  0.59682933  0.24885497  0.54428342  1
  S2-  S244  1  0.64947204  0.49722983  0.04290240  1
  S2-  S245  1  0.60178776  0.49716516  0.54135939  1
  S2-  S246  1  0.64355050  0.74718543  0.04215626  1
  S2-  S247  1  0.60266232  0.75686893  0.54097268  1
  S2-  S248  1  0.89353825  -0.00050609  0.04798579  1
  S2-  S249  1  0.85063022  0.00121169  0.54643650  1
  S2-  S250  1  0.89128139  0.24459489  0.04349231  1
  S2-  S251  1  0.85351963  0.25265705  0.53431651  1
  S2-  S252  1  0.89785123  0.49958266  0.05691161  1
  S2-  S253  1  0.84985194  0.49579032  0.55003721  1
  S2-  S254  1  0.89257844  0.74982329  0.04489339  1
  S2-  S255  1  0.84892893  0.75696778  0.54051453  1
