# generated using pymatgen
data_La9Ce10Pr6Nd4Sm3(BiS2)32
_symmetry_space_group_name_H-M   'P 1'
_cell_length_a   16.21669731
_cell_length_b   16.21633685
_cell_length_c   27.09083200
_cell_angle_alpha   90.18814287
_cell_angle_beta   89.79227629
_cell_angle_gamma   89.98992721
_symmetry_Int_Tables_number   1
_chemical_formula_structural   La9Ce10Pr6Nd4Sm3(BiS2)32
_chemical_formula_sum   'La18 Ce20 Pr12 Nd8 Sm6 Bi64 S128'
_cell_volume   7124.13773773
_cell_formula_units_Z   2
loop_
 _symmetry_equiv_pos_site_id
 _symmetry_equiv_pos_as_xyz
  1  'x, y, z'
loop_
 _atom_type_symbol
 _atom_type_oxidation_number
  La3+  3.0
  Ce3+  3.0
  Pr3+  3.0
  Nd3+  3.0
  Sm3+  3.0
  Bi2+  2.0
  S2-  -2.0
loop_
 _atom_site_type_symbol
 _atom_site_label
 _atom_site_symmetry_multiplicity
 _atom_site_fract_x
 _atom_site_fract_y
 _atom_site_fract_z
 _atom_site_occupancy
  La3+  La0  1  0.11831402  0.76557675  0.43179985  1
  La3+  La1  1  0.87492739  0.25122556  0.92762278  1
  La3+  La2  1  0.62567383  0.23219309  0.38638305  1
  La3+  La3  1  0.38268511  0.49609193  0.92907771  1
  La3+  La4  1  0.24158819  0.11306383  0.07029419  1
  La3+  La5  1  -0.01094257  0.14049144  0.59256065  1
  La3+  La6  1  0.61888244  -0.00578080  0.91049617  1
  La3+  La7  1  0.48925279  0.87890707  0.57565229  1
  La3+  La8  1  0.49696555  0.37956979  0.08219110  1
  La3+  La9  1  0.36823570  0.50022661  0.42955836  1
  La3+  La10  1  0.24569191  0.37447849  0.06710346  1
  La3+  La11  1  0.72832200  0.14209724  0.60631355  1
  La3+  La12  1  0.88170588  0.50892594  0.42096119  1
  La3+  La13  1  0.49051796  0.13433292  0.56672501  1
  La3+  La14  1  0.62576884  0.24526522  0.92991776  1
  La3+  La15  1  0.12754264  0.24734669  0.92938001  1
  La3+  La16  1  0.37231024  -0.00298280  0.43026115  1
  La3+  La17  1  0.88645083  -0.01381815  0.91077244  1
  Ce3+  Ce18  1  0.36736239  0.25009110  0.43068302  1
  Ce3+  Ce19  1  0.75071966  0.62350432  0.06066489  1
  Ce3+  Ce20  1  0.24213154  0.87744194  0.56940319  1
  Ce3+  Ce21  1  0.86057115  0.75780120  0.43623291  1
  Ce3+  Ce22  1  0.62355869  0.75415934  0.44425059  1
  Ce3+  Ce23  1  0.37896568  -0.00325341  0.94246295  1
  Ce3+  Ce24  1  -0.00884352  0.38053657  0.56131151  1
  Ce3+  Ce25  1  0.86914062  0.25273820  0.44318681  1
  Ce3+  Ce26  1  0.00413175  0.88293152  0.06524610  1
  Ce3+  Ce27  1  0.12518253  0.74745733  0.94008147  1
  Ce3+  Ce28  1  0.12033225  0.50382077  0.44674937  1
  Ce3+  Ce29  1  0.62582198  0.49458454  0.43345345  1
  Ce3+  Ce30  1  0.00120280  0.37376018  0.05881389  1
  Ce3+  Ce31  1  0.50011373  0.12220119  0.06143839  1
  Ce3+  Ce32  1  0.50338522  0.62227552  0.06287576  1
  Ce3+  Ce33  1  0.24365869  0.62624006  0.55786010  1
  Ce3+  Ce34  1  0.37143568  0.75621863  0.44523163  1
  Ce3+  Ce35  1  0.74499538  0.37990113  0.55808644  1
  Ce3+  Ce36  1  -0.00458311  0.12055559  0.04957689  1
  Ce3+  Ce37  1  0.62634730  0.49749989  0.93700134  1
  Pr3+  Pr38  1  0.13236910  -0.00019146  0.92353655  1
  Pr3+  Pr39  1  0.00250257  0.63232348  0.06911015  1
  Pr3+  Pr40  1  0.24323609  0.13213407  0.56097200  1
  Pr3+  Pr41  1  0.25741998  0.38557634  0.57872926  1
  Pr3+  Pr42  1  0.62008354  0.00632887  0.45196566  1
  Pr3+  Pr43  1  0.74654405  0.62982000  0.56533304  1
  Pr3+  Pr44  1  0.37789856  0.24809736  0.94704191  1
  Pr3+  Pr45  1  0.62480275  0.74760440  0.92856903  1
  Pr3+  Pr46  1  0.50482227  0.87208543  0.06271121  1
  Pr3+  Pr47  1  0.86545486  0.01133349  0.45407445  1
  Pr3+  Pr48  1  0.74418373  0.88010232  0.58035410  1
  Pr3+  Pr49  1  0.75028652  0.12062283  0.05020977  1
  Nd3+  Nd50  1  0.75294908  0.37264344  0.06186187  1
  Nd3+  Nd51  1  0.87887367  0.74381374  0.93756730  1
  Nd3+  Nd52  1  0.13081075  0.49607477  0.92644425  1
  Nd3+  Nd53  1  0.87843732  0.50069042  0.94236335  1
  Nd3+  Nd54  1  0.49846734  0.37794995  0.55061432  1
  Nd3+  Nd55  1  -0.00403883  0.63257675  0.56135463  1
  Nd3+  Nd56  1  -0.00848030  0.88162324  0.56782135  1
  Nd3+  Nd57  1  0.75138520  0.87539002  0.04856107  1
  Sm3+  Sm58  1  0.25159720  0.87119099  0.05069237  1
  Sm3+  Sm59  1  0.25187198  0.62174421  0.05318330  1
  Sm3+  Sm60  1  0.11555769  0.00544007  0.45247384  1
  Sm3+  Sm61  1  0.38007267  0.74604039  0.94609401  1
  Sm3+  Sm62  1  0.49589121  0.62699868  0.55067079  1
  Sm3+  Sm63  1  0.12500701  0.25476223  0.44507647  1
  Bi2+  Bi64  1  0.02922856  0.18412532  0.33416375  1
  Bi2+  Bi65  1  0.01262573  0.09937012  0.79287584  1
  Bi2+  Bi66  1  0.00840982  0.37270381  0.29421632  1
  Bi2+  Bi67  1  0.00552666  0.39744372  0.77447818  1
  Bi2+  Bi68  1  -0.00090498  0.61852930  0.28552487  1
  Bi2+  Bi69  1  -0.04049962  0.60088819  0.80547624  1
  Bi2+  Bi70  1  -0.03946880  0.84832677  0.24828836  1
  Bi2+  Bi71  1  0.00453612  0.81517470  0.78642873  1
  Bi2+  Bi72  1  0.19326381  0.18830127  0.26815653  1
  Bi2+  Bi73  1  0.26140230  0.06753449  0.77958875  1
  Bi2+  Bi74  1  0.23678713  0.39013778  0.29296419  1
  Bi2+  Bi75  1  0.25127614  0.37817029  0.79133795  1
  Bi2+  Bi76  1  0.24622191  0.65865107  0.28201260  1
  Bi2+  Bi77  1  0.21713991  0.62466381  0.77870174  1
  Bi2+  Bi78  1  0.26278917  0.92926542  0.30134483  1
  Bi2+  Bi79  1  0.24410138  0.87909827  0.79224483  1
  Bi2+  Bi80  1  0.49058668  0.10828488  0.28449114  1
  Bi2+  Bi81  1  0.43017019  0.15270957  0.78924982  1
  Bi2+  Bi82  1  0.49831112  0.37408585  0.27865695  1
  Bi2+  Bi83  1  0.45294231  0.40900123  0.77622813  1
  Bi2+  Bi84  1  0.52901287  0.65386983  0.29887425  1
  Bi2+  Bi85  1  0.56173321  0.64061010  0.80988287  1
  Bi2+  Bi86  1  0.51386720  0.84391317  0.29068224  1
  Bi2+  Bi87  1  0.44289493  0.85924970  0.80324479  1
  Bi2+  Bi88  1  0.86052890  0.10199206  0.28712444  1
  Bi2+  Bi89  1  0.76984941  0.18092541  0.79490017  1
  Bi2+  Bi90  1  0.75169923  0.34817127  0.27929883  1
  Bi2+  Bi91  1  0.73865936  0.45827992  0.78760376  1
  Bi2+  Bi92  1  0.72828721  0.64157516  0.30678263  1
  Bi2+  Bi93  1  0.75606149  0.63911491  0.83727336  1
  Bi2+  Bi94  1  0.70934633  0.95947157  0.29547825  1
  Bi2+  Bi95  1  0.74627629  0.81400012  0.77982245  1
  Bi2+  Bi96  1  0.08830082  -0.00213316  0.27548007  1
  Bi2+  Bi97  1  0.11511759  -0.11764755  0.69869900  1
  Bi2+  Bi98  1  0.14029394  0.32854472  0.18844097  1
  Bi2+  Bi99  1  0.13260032  0.21169080  0.70901732  1
  Bi2+  Bi100  1  0.14552096  0.52132075  0.21930375  1
  Bi2+  Bi101  1  0.09084365  0.52797100  0.71133752  1
  Bi2+  Bi102  1  0.13781066  0.80862064  0.21266659  1
  Bi2+  Bi103  1  0.16287996  0.70307483  0.67205522  1
  Bi2+  Bi104  1  0.33964062  -0.01244276  0.20637284  1
  Bi2+  Bi105  1  0.43568668  0.00543522  0.70182654  1
  Bi2+  Bi106  1  0.35697010  0.27571905  0.21866341  1
  Bi2+  Bi107  1  0.37345186  0.24342851  0.69231642  1
  Bi2+  Bi108  1  0.36897209  0.54084572  0.20335831  1
  Bi2+  Bi109  1  0.37637919  0.55662794  0.71637771  1
  Bi2+  Bi110  1  0.38970388  0.73745962  0.22153471  1
  Bi2+  Bi111  1  0.34427127  0.75656134  0.72004295  1
  Bi2+  Bi112  1  0.63966873  -0.02634816  0.18983449  1
  Bi2+  Bi113  1  0.61508790  0.02426738  0.73132444  1
  Bi2+  Bi114  1  0.66555846  0.22545711  0.18003618  1
  Bi2+  Bi115  1  0.61802045  0.32893412  0.73988651  1
  Bi2+  Bi116  1  0.63534557  0.56589502  0.21474665  1
  Bi2+  Bi117  1  0.60026885  0.52585069  0.70433217  1
  Bi2+  Bi118  1  0.57794435  0.75799245  0.18751585  1
  Bi2+  Bi119  1  0.60854593  0.73264177  0.71233245  1
  Bi2+  Bi120  1  0.90657990  0.00024624  0.18095028  1
  Bi2+  Bi121  1  0.88534159  -0.00371739  0.71037239  1
  Bi2+  Bi122  1  0.97133467  0.22429239  0.22117813  1
  Bi2+  Bi123  1  0.86915846  0.32463672  0.70156739  1
  Bi2+  Bi124  1  0.86753023  0.49439628  0.19217012  1
  Bi2+  Bi125  1  0.79043292  0.50206077  0.67432702  1
  Bi2+  Bi126  1  0.76704710  0.79754800  0.23996461  1
  Bi2+  Bi127  1  0.85066732  0.67372979  0.72077527  1
  S2-  S128  1  0.04563045  0.05131419  0.13312944  1
  S2-  S129  1  0.04165429  0.06393472  0.68258224  1
  S2-  S130  1  -0.05174581  0.35344809  0.15196471  1
  S2-  S131  1  0.01181145  0.29789147  0.64877401  1
  S2-  S132  1  -0.00068191  0.57257849  0.16534148  1
  S2-  S133  1  -0.04306289  0.57192392  0.65314470  1
  S2-  S134  1  0.01163597  0.78560476  0.14733725  1
  S2-  S135  1  -0.05234715  0.85580980  0.66392185  1
  S2-  S136  1  0.31989652  0.13000383  0.15992519  1
  S2-  S137  1  0.25692298  0.11989581  0.66224832  1
  S2-  S138  1  0.34565426  0.39735040  0.14796357  1
  S2-  S139  1  0.22526267  0.33271105  0.67941636  1
  S2-  S140  1  0.24160988  0.61660846  0.15131097  1
  S2-  S141  1  0.26678112  0.53224298  0.63965499  1
  S2-  S142  1  0.22644260  0.91117739  0.14555886  1
  S2-  S143  1  0.34559698  0.88897446  0.64727784  1
  S2-  S144  1  0.55522144  0.10677840  0.15454896  1
  S2-  S145  1  0.56612724  0.13321221  0.66123316  1
  S2-  S146  1  0.52532286  0.31391142  0.17797986  1
  S2-  S147  1  0.43102937  0.36778464  0.64308405  1
  S2-  S148  1  0.51210388  0.52743952  0.14522358  1
  S2-  S149  1  0.49109372  0.63888809  0.64944052  1
  S2-  S150  1  0.48296433  0.91437193  0.16036417  1
  S2-  S151  1  0.55711424  0.88875141  0.67094197  1
  S2-  S152  1  0.80360902  0.12248107  0.14726995  1
  S2-  S153  1  0.85992991  0.15419552  0.67266506  1
  S2-  S154  1  0.73383039  0.38366379  0.16270125  1
  S2-  S155  1  0.71448450  0.31133667  0.65140523  1
  S2-  S156  1  0.78067905  0.62158473  0.15844737  1
  S2-  S157  1  0.74422142  0.74202432  0.64561653  1
  S2-  S158  1  0.77807857  0.88319447  0.14803978  1
  S2-  S159  1  0.74010531  0.98707132  0.66441590  1
  S2-  S160  1  0.11977258  -0.08071650  0.36648093  1
  S2-  S161  1  0.03461800  -0.04243992  0.84348692  1
  S2-  S162  1  0.23557489  0.26715707  0.36416364  1
  S2-  S163  1  0.15390300  0.13688312  0.84974328  1
  S2-  S164  1  0.05006167  0.50030493  0.35720281  1
  S2-  S165  1  0.12165237  0.36638846  0.85238265  1
  S2-  S166  1  0.11125977  0.70809095  0.33370808  1
  S2-  S167  1  0.09759845  0.70079127  0.84591579  1
  S2-  S168  1  0.36102808  0.06593567  0.33577803  1
  S2-  S169  1  0.45588158  0.00774758  0.85519371  1
  S2-  S170  1  0.46195180  0.25021744  0.34397237  1
  S2-  S171  1  0.37499179  0.29041957  0.84808792  1
  S2-  S172  1  0.38327604  0.47094509  0.32911911  1
  S2-  S173  1  0.26248010  0.50723043  0.85381169  1
  S2-  S174  1  0.37904925  0.84731052  0.36203556  1
  S2-  S175  1  0.41499317  0.71044481  0.85111909  1
  S2-  S176  1  0.59683697  0.05479992  0.35482416  1
  S2-  S177  1  0.64112672  0.10590256  0.83136846  1
  S2-  S178  1  0.63754379  0.20844545  0.27619509  1
  S2-  S179  1  0.68311631  0.31229775  0.84201661  1
  S2-  S180  1  0.62555209  0.40489224  0.34560426  1
  S2-  S181  1  0.51704896  0.49393630  0.85898566  1
  S2-  S182  1  0.72569176  0.78125446  0.36825248  1
  S2-  S183  1  0.62232768  0.85593774  0.84473759  1
  S2-  S184  1  0.85517552  -0.02442867  0.35331724  1
  S2-  S185  1  0.84774750  0.03928859  0.81251089  1
  S2-  S186  1  0.79799044  0.23859262  0.35128190  1
  S2-  S187  1  0.92775357  0.23303033  0.83123980  1
  S2-  S188  1  0.85496731  0.44254215  0.32123535  1
  S2-  S189  1  0.89728795  0.45042577  0.84645175  1
  S2-  S190  1  0.88861960  0.65364833  0.35559084  1
  S2-  S191  1  0.87762684  0.83212609  0.85017233  1
  S2-  S192  1  -0.00187962  0.13118440  0.46558117  1
  S2-  S193  1  -0.00012490  0.12108816  0.94410190  1
  S2-  S194  1  -0.00148599  0.37478096  0.45475369  1
  S2-  S195  1  0.00178043  0.37709840  0.95357802  1
  S2-  S196  1  0.00022957  0.63472870  0.45675784  1
  S2-  S197  1  0.00434062  0.62044163  0.95681242  1
  S2-  S198  1  -0.01221530  0.88199766  0.46016166  1
  S2-  S199  1  0.00384126  0.86737380  0.95575030  1
  S2-  S200  1  0.24056737  0.12114677  0.45418524  1
  S2-  S201  1  0.25649537  0.12126072  0.95820972  1
  S2-  S202  1  0.24336102  0.38336457  0.46327888  1
  S2-  S203  1  0.25182056  0.37275889  0.95900261  1
  S2-  S204  1  0.24455349  0.63159539  0.44783921  1
  S2-  S205  1  0.25300187  0.62705602  0.95021009  1
  S2-  S206  1  0.24524446  0.88005148  0.46427226  1
  S2-  S207  1  0.25607288  0.86872698  0.94469704  1
  S2-  S208  1  0.49185545  0.12942814  0.45646377  1
  S2-  S209  1  0.50354831  0.12359045  0.95404190  1
  S2-  S210  1  0.49399765  0.37804650  0.44688786  1
  S2-  S211  1  0.50495961  0.36978553  0.96026381  1
  S2-  S212  1  0.49774672  0.62702705  0.44458873  1
  S2-  S213  1  0.50460481  0.62595954  0.95882508  1
  S2-  S214  1  0.49895707  0.87644005  0.46325966  1
  S2-  S215  1  0.49998160  0.86901760  0.95540877  1
  S2-  S216  1  0.73984730  0.13253151  0.45223373  1
  S2-  S217  1  0.75403805  0.11864015  0.94191488  1
  S2-  S218  1  0.75574366  0.38500417  0.45142406  1
  S2-  S219  1  0.75331702  0.37664737  0.95386116  1
  S2-  S220  1  0.74317162  0.62488267  0.45733292  1
  S2-  S221  1  0.75054061  0.62284218  0.95508076  1
  S2-  S222  1  0.74438349  0.88471185  0.47204207  1
  S2-  S223  1  0.75031466  0.87293938  0.94466200  1
  S2-  S224  1  0.12962551  -0.00771273  0.03048451  1
  S2-  S225  1  0.11710449  0.00570756  0.55740178  1
  S2-  S226  1  0.12314154  0.24412289  0.04463822  1
  S2-  S227  1  0.12368202  0.25914709  0.54939130  1
  S2-  S228  1  0.12455949  0.50217980  0.04483853  1
  S2-  S229  1  0.11666195  0.50238261  0.55153832  1
  S2-  S230  1  0.13156920  0.74904297  0.04587310  1
  S2-  S231  1  0.11753449  0.75692993  0.54521137  1
  S2-  S232  1  0.37586448  -0.00532631  0.04785383  1
  S2-  S233  1  0.36785147  0.00672644  0.54513606  1
  S2-  S234  1  0.37378193  0.24587927  0.05305873  1
  S2-  S235  1  0.36604141  0.25630662  0.54117926  1
  S2-  S236  1  0.37547730  0.50283412  0.03987880  1
  S2-  S237  1  0.37634295  0.50659447  0.53773013  1
  S2-  S238  1  0.37513980  0.74747880  0.05313197  1
  S2-  S239  1  0.36890454  0.74738940  0.54980908  1
  S2-  S240  1  0.62522897  -0.00331500  0.03871643  1
  S2-  S241  1  0.61713207  0.00703880  0.55778074  1
  S2-  S242  1  0.62699724  0.24951885  0.04415452  1
  S2-  S243  1  0.61827033  0.25493216  0.55057311  1
  S2-  S244  1  0.63059399  0.49654519  0.04475767  1
  S2-  S245  1  0.61960372  0.50475651  0.54378986  1
  S2-  S246  1  0.62878968  0.74770181  0.04329708  1
  S2-  S247  1  0.61553472  0.75181626  0.54912389  1
  S2-  S248  1  0.87586625  -0.00376590  0.03253624  1
  S2-  S249  1  0.87111089  0.01015378  0.56077749  1
  S2-  S250  1  0.87494499  0.24871697  0.03771389  1
  S2-  S251  1  0.86540151  0.25509755  0.55003735  1
  S2-  S252  1  0.87686290  0.50044324  0.04959062  1
  S2-  S253  1  0.87128937  0.50605752  0.53906558  1
  S2-  S254  1  0.87535817  0.75012407  0.04401768  1
  S2-  S255  1  0.87247257  0.75373372  0.54524200  1
