# generated using pymatgen
data_La9Ce10Pr6Nd4Sm3(BiS2)32
_symmetry_space_group_name_H-M   'P 1'
_cell_length_a   16.11504816
_cell_length_b   16.23485854
_cell_length_c   27.21469740
_cell_angle_alpha   90.01081348
_cell_angle_beta   89.84362301
_cell_angle_gamma   90.03807234
_symmetry_Int_Tables_number   1
_chemical_formula_structural   La9Ce10Pr6Nd4Sm3(BiS2)32
_chemical_formula_sum   'La18 Ce20 Pr12 Nd8 Sm6 Bi64 S128'
_cell_volume   7120.03134253
_cell_formula_units_Z   2
loop_
 _symmetry_equiv_pos_site_id
 _symmetry_equiv_pos_as_xyz
  1  'x, y, z'
loop_
 _atom_type_symbol
 _atom_type_oxidation_number
  La3+  3.0
  Ce3+  3.0
  Pr3+  3.0
  Nd3+  3.0
  Sm3+  3.0
  Bi2+  2.0
  S2-  -2.0
loop_
 _atom_site_type_symbol
 _atom_site_label
 _atom_site_symmetry_multiplicity
 _atom_site_fract_x
 _atom_site_fract_y
 _atom_site_fract_z
 _atom_site_occupancy
  La3+  La0  1  0.48808311  0.87756333  0.55828962  1
  La3+  La1  1  0.89525463  -0.00680789  0.90857660  1
  La3+  La2  1  0.73001830  0.87627858  0.58081108  1
  La3+  La3  1  0.37149889  -0.00406965  0.41420586  1
  La3+  La4  1  -0.00528921  0.62630456  0.56754175  1
  La3+  La5  1  0.62554331  0.25693176  0.40851381  1
  La3+  La6  1  0.51223120  0.37024024  0.07082705  1
  La3+  La7  1  -0.01031011  0.37586597  0.57589473  1
  La3+  La8  1  0.36698399  0.25255118  0.43579337  1
  La3+  La9  1  0.10385251  0.75797992  0.43035585  1
  La3+  La10  1  0.49006461  0.37756274  0.57028968  1
  La3+  La11  1  0.24426636  0.63226087  0.57488251  1
  La3+  La12  1  0.01661433  0.87178410  0.06700912  1
  La3+  La13  1  0.35291027  0.74734386  0.42718276  1
  La3+  La14  1  -0.01679367  0.88219175  0.57883172  1
  La3+  La15  1  0.76878909  0.87628324  0.08221394  1
  La3+  La16  1  0.11382520  0.49781640  0.43347048  1
  La3+  La17  1  0.88816898  0.74761750  0.93101855  1
  Ce3+  Ce18  1  0.64191195  0.24526801  0.94527250  1
  Ce3+  Ce19  1  -0.01560649  0.12516510  0.55973548  1
  Ce3+  Ce20  1  0.51464323  0.11484981  0.06124689  1
  Ce3+  Ce21  1  0.26487602  0.87010818  0.07017301  1
  Ce3+  Ce22  1  0.35833058  0.50031212  0.43765267  1
  Ce3+  Ce23  1  0.51625760  0.62171954  0.05908204  1
  Ce3+  Ce24  1  0.86451854  0.49992701  0.44003295  1
  Ce3+  Ce25  1  0.89068714  0.49259484  0.93802068  1
  Ce3+  Ce26  1  0.85826181  0.00187539  0.43827760  1
  Ce3+  Ce27  1  0.13818769  0.49687123  0.93266995  1
  Ce3+  Ce28  1  0.86490872  0.75110489  0.44508665  1
  Ce3+  Ce29  1  0.75973529  0.36606148  0.07459580  1
  Ce3+  Ce30  1  0.26462643  0.62016756  0.05714356  1
  Ce3+  Ce31  1  0.60671933  0.50155682  0.43497153  1
  Ce3+  Ce32  1  0.26770198  0.37327527  0.06506797  1
  Ce3+  Ce33  1  0.23795101  0.87627392  0.55697215  1
  Ce3+  Ce34  1  0.14147028  0.74789110  0.93975100  1
  Ce3+  Ce35  1  0.26731339  0.11907506  0.05642630  1
  Ce3+  Ce36  1  0.23909207  0.37547211  0.56942074  1
  Ce3+  Ce37  1  0.01494384  0.62032640  0.05634052  1
  Pr3+  Pr38  1  0.02043537  0.37132987  0.06878736  1
  Pr3+  Pr39  1  0.89002350  0.24691423  0.94228997  1
  Pr3+  Pr40  1  0.74336151  0.62758795  0.57079836  1
  Pr3+  Pr41  1  0.61739299  0.74965684  0.43549743  1
  Pr3+  Pr42  1  0.39145182  -0.00760846  0.93511966  1
  Pr3+  Pr43  1  0.39110860  0.49220140  0.92338739  1
  Pr3+  Pr44  1  0.51432834  0.86268611  0.08132494  1
  Pr3+  Pr45  1  0.62012057  -0.00742599  0.42278879  1
  Pr3+  Pr46  1  0.39422335  0.24748311  0.93669268  1
  Pr3+  Pr47  1  0.14516178  -0.00674281  0.93033153  1
  Pr3+  Pr48  1  0.49148465  0.12524398  0.54869467  1
  Pr3+  Pr49  1  0.86236018  0.25485984  0.44414477  1
  Nd3+  Nd50  1  0.01698395  0.11802218  0.05172351  1
  Nd3+  Nd51  1  0.76949056  0.11972608  0.06490836  1
  Nd3+  Nd52  1  0.76712479  0.61906131  0.05921171  1
  Nd3+  Nd53  1  0.73632991  0.37885017  0.56896565  1
  Nd3+  Nd54  1  0.11091689  0.00153974  0.44007309  1
  Nd3+  Nd55  1  0.39367220  0.74728527  0.94514024  1
  Nd3+  Nd56  1  0.11184986  0.25056337  0.44559410  1
  Nd3+  Nd57  1  0.24036398  0.12416623  0.55597005  1
  Sm3+  Sm58  1  0.48674454  0.62892818  0.55392370  1
  Sm3+  Sm59  1  0.64368709  0.49415288  0.93754352  1
  Sm3+  Sm60  1  0.64348360  -0.00589692  0.94602451  1
  Sm3+  Sm61  1  0.73468996  0.12585513  0.55753578  1
  Sm3+  Sm62  1  0.14106216  0.24769625  0.94042687  1
  Sm3+  Sm63  1  0.64175136  0.75062040  0.94474065  1
  Bi2+  Bi64  1  -0.04128017  0.06501529  0.31091356  1
  Bi2+  Bi65  1  0.03720370  0.15241886  0.78930985  1
  Bi2+  Bi66  1  -0.05363101  0.32775807  0.32369003  1
  Bi2+  Bi67  1  -0.03254250  0.36870580  0.79488292  1
  Bi2+  Bi68  1  -0.04966715  0.60972435  0.29035049  1
  Bi2+  Bi69  1  0.05688327  0.63706259  0.79957423  1
  Bi2+  Bi70  1  -0.02317502  0.87204919  0.29371367  1
  Bi2+  Bi71  1  0.02582787  0.88174342  0.78013166  1
  Bi2+  Bi72  1  0.12417196  0.16578665  0.28866559  1
  Bi2+  Bi73  1  0.30796957  0.10834840  0.78952585  1
  Bi2+  Bi74  1  0.23999151  0.42280747  0.26412586  1
  Bi2+  Bi75  1  0.27810536  0.39894263  0.77962168  1
  Bi2+  Bi76  1  0.22682526  0.61216822  0.28012532  1
  Bi2+  Bi77  1  0.25344039  0.62239511  0.77376922  1
  Bi2+  Bi78  1  0.24392408  0.86582697  0.29787339  1
  Bi2+  Bi79  1  0.29753445  0.83059379  0.73365203  1
  Bi2+  Bi80  1  0.44266323  0.13644444  0.28229039  1
  Bi2+  Bi81  1  0.49034193  0.16525618  0.81159579  1
  Bi2+  Bi82  1  0.48481192  0.37699760  0.29882661  1
  Bi2+  Bi83  1  0.53279959  0.37819067  0.80090595  1
  Bi2+  Bi84  1  0.53595893  0.61516779  0.28612858  1
  Bi2+  Bi85  1  0.45104368  0.62501483  0.79281123  1
  Bi2+  Bi86  1  0.51411565  0.88828659  0.27928037  1
  Bi2+  Bi87  1  0.42368133  0.92254043  0.80746765  1
  Bi2+  Bi88  1  0.77705669  0.06366700  0.25348551  1
  Bi2+  Bi89  1  0.76071392  0.20628413  0.72636563  1
  Bi2+  Bi90  1  0.78272987  0.44476726  0.31582946  1
  Bi2+  Bi91  1  0.74700795  0.37001641  0.79014608  1
  Bi2+  Bi92  1  0.73382143  0.63836170  0.31550734  1
  Bi2+  Bi93  1  0.79362090  0.62338221  0.79719669  1
  Bi2+  Bi94  1  0.76678208  0.87754890  0.29006109  1
  Bi2+  Bi95  1  0.74410498  0.88194790  0.80778136  1
  Bi2+  Bi96  1  0.12529289  0.00677689  0.21956869  1
  Bi2+  Bi97  1  0.23983728  0.00909259  0.69823548  1
  Bi2+  Bi98  1  0.05358546  0.26836785  0.19407757  1
  Bi2+  Bi99  1  0.15054445  0.26941350  0.72575461  1
  Bi2+  Bi100  1  0.05864565  0.46884278  0.21788326  1
  Bi2+  Bi101  1  0.11963899  0.49609615  0.72560681  1
  Bi2+  Bi102  1  0.10426151  0.73755116  0.19665477  1
  Bi2+  Bi103  1  0.10235441  0.74506011  0.70290801  1
  Bi2+  Bi104  1  0.32797387  0.00523658  0.21629412  1
  Bi2+  Bi105  1  0.43338061  -0.02069695  0.67747400  1
  Bi2+  Bi106  1  0.28970201  0.24080987  0.23428851  1
  Bi2+  Bi107  1  0.38295780  0.23807144  0.71066745  1
  Bi2+  Bi108  1  0.40461012  0.49370106  0.21274416  1
  Bi2+  Bi109  1  0.39973375  0.50164810  0.71167371  1
  Bi2+  Bi110  1  0.37893244  0.68731949  0.22170406  1
  Bi2+  Bi111  1  0.46717472  0.77592505  0.68253595  1
  Bi2+  Bi112  1  0.53828179  0.00305381  0.19377506  1
  Bi2+  Bi113  1  0.57192535  0.01526523  0.75905848  1
  Bi2+  Bi114  1  0.63525558  0.25450393  0.20986827  1
  Bi2+  Bi115  1  0.57923909  0.26881195  0.70655004  1
  Bi2+  Bi116  1  0.67359834  0.50473353  0.22092201  1
  Bi2+  Bi117  1  0.67588975  0.51764744  0.71919437  1
  Bi2+  Bi118  1  0.62994840  0.73599965  0.21286076  1
  Bi2+  Bi119  1  0.61855539  0.70321236  0.74196155  1
  Bi2+  Bi120  1  0.92879034  -0.01776293  0.19412366  1
  Bi2+  Bi121  1  0.85280175  0.02440159  0.71498736  1
  Bi2+  Bi122  1  0.87060513  0.24607213  0.22750261  1
  Bi2+  Bi123  1  0.94639552  0.25217537  0.69596284  1
  Bi2+  Bi124  1  0.86496368  0.44557067  0.20748360  1
  Bi2+  Bi125  1  0.87740473  0.49578494  0.72065338  1
  Bi2+  Bi126  1  0.84675184  0.72973301  0.22556478  1
  Bi2+  Bi127  1  0.84694746  0.74254211  0.70951794  1
  S2-  S128  1  0.03647267  0.10918064  0.15104994  1
  S2-  S129  1  -0.02064991  0.09428502  0.65626519  1
  S2-  S130  1  0.14890008  0.38704482  0.13939130  1
  S2-  S131  1  0.12321163  0.37824444  0.64786223  1
  S2-  S132  1  0.02129097  0.61431501  0.15545990  1
  S2-  S133  1  -0.11916464  0.62082844  0.64676317  1
  S2-  S134  1  -0.09722929  0.83402110  0.14599178  1
  S2-  S135  1  0.05881958  0.89402196  0.67468268  1
  S2-  S136  1  0.28006576  0.13719479  0.15441483  1
  S2-  S137  1  0.22774140  0.15935268  0.65429785  1
  S2-  S138  1  0.38254402  0.37793484  0.14113767  1
  S2-  S139  1  0.36129103  0.37345094  0.64341035  1
  S2-  S140  1  0.24496373  0.66464184  0.15334505  1
  S2-  S141  1  0.11469568  0.60478039  0.64409179  1
  S2-  S142  1  0.13923778  0.87510054  0.14656566  1
  S2-  S143  1  0.24233850  0.78137538  0.63946058  1
  S2-  S144  1  0.52348605  0.16313264  0.15732397  1
  S2-  S145  1  0.48659412  0.14492614  0.65011607  1
  S2-  S146  1  0.62912060  0.38781225  0.14830064  1
  S2-  S147  1  0.61654137  0.40192193  0.64551689  1
  S2-  S148  1  0.50519492  0.70036774  0.14644629  1
  S2-  S149  1  0.39925415  0.62690125  0.64058978  1
  S2-  S150  1  0.37718525  0.89113338  0.14605857  1
  S2-  S151  1  0.58227819  0.89922833  0.64408368  1
  S2-  S152  1  0.78069795  0.02267276  0.14946235  1
  S2-  S153  1  0.73170433  0.08303707  0.65510980  1
  S2-  S154  1  0.76597333  0.23589169  0.14420463  1
  S2-  S155  1  0.85668685  0.37808353  0.64558663  1
  S2-  S156  1  0.74874947  0.63116240  0.15876142  1
  S2-  S157  1  0.70929070  0.73290011  0.65194329  1
  S2-  S158  1  0.63976288  0.86987331  0.15514862  1
  S2-  S159  1  0.85266776  0.89074851  0.65458018  1
  S2-  S160  1  0.10727476  -0.09863750  0.35793660  1
  S2-  S161  1  0.04235752  0.00265588  0.84532695  1
  S2-  S162  1  0.10972904  0.30396627  0.35095935  1
  S2-  S163  1  0.14544379  0.24806432  0.84135354  1
  S2-  S164  1  0.24070845  0.49813388  0.35972891  1
  S2-  S165  1  0.01117871  0.49427453  0.86056376  1
  S2-  S166  1  0.21717752  0.71953829  0.35444206  1
  S2-  S167  1  0.12651921  0.78194623  0.84265091  1
  S2-  S168  1  0.28348548  0.01826424  0.32611565  1
  S2-  S169  1  0.27439044  -0.01492001  0.85759559  1
  S2-  S170  1  0.35686008  0.26548921  0.33495693  1
  S2-  S171  1  0.38867778  0.35054781  0.85498851  1
  S2-  S172  1  0.45941270  0.50998296  0.35626140  1
  S2-  S173  1  0.25045872  0.50899521  0.85648865  1
  S2-  S174  1  0.39288403  0.83396283  0.34086265  1
  S2-  S175  1  0.41321101  0.76566430  0.84683349  1
  S2-  S176  1  0.50562230  0.01962917  0.34460213  1
  S2-  S177  1  0.60285635  -0.05029971  0.85288235  1
  S2-  S178  1  0.57943510  0.21611786  0.30743096  1
  S2-  S179  1  0.64015254  0.24902659  0.84714469  1
  S2-  S180  1  0.62298687  0.40504698  0.35260232  1
  S2-  S181  1  0.53473166  0.50953986  0.85908000  1
  S2-  S182  1  0.62891691  0.84374027  0.34985624  1
  S2-  S183  1  0.67656371  0.72991112  0.84795889  1
  S2-  S184  1  0.75718740  0.01578644  0.35560337  1
  S2-  S185  1  0.80693970  0.02707479  0.82040141  1
  S2-  S186  1  0.78812731  0.26669652  0.35311520  1
  S2-  S187  1  0.90705577  0.22979602  0.84171965  1
  S2-  S188  1  0.98193987  0.49767099  0.36116208  1
  S2-  S189  1  0.76964059  0.48527511  0.86473562  1
  S2-  S190  1  0.96165935  0.74002957  0.36078387  1
  S2-  S191  1  0.89579938  0.84118407  0.84494856  1
  S2-  S192  1  -0.01391782  0.12651961  0.45170773  1
  S2-  S193  1  0.01750653  0.12300564  0.94739979  1
  S2-  S194  1  -0.01172041  0.37285194  0.46553050  1
  S2-  S195  1  0.01741810  0.36689536  0.96011293  1
  S2-  S196  1  -0.01278730  0.62490070  0.46139572  1
  S2-  S197  1  0.01424831  0.62547961  0.95218391  1
  S2-  S198  1  -0.01926982  0.88383428  0.46236643  1
  S2-  S199  1  0.01650125  0.87172085  0.95474764  1
  S2-  S200  1  0.23811179  0.12492359  0.44694369  1
  S2-  S201  1  0.26631985  0.12587474  0.94987883  1
  S2-  S202  1  0.23852751  0.36958568  0.46053892  1
  S2-  S203  1  0.26313647  0.36863593  0.95712717  1
  S2-  S204  1  0.23393133  0.62595215  0.46363574  1
  S2-  S205  1  0.26697344  0.62605910  0.95199321  1
  S2-  S206  1  0.24046090  0.88286436  0.45247649  1
  S2-  S207  1  0.26742387  0.86740200  0.96042361  1
  S2-  S208  1  0.49689808  0.13265816  0.44319740  1
  S2-  S209  1  0.51670493  0.11701922  0.95242446  1
  S2-  S210  1  0.49192022  0.37316367  0.45746096  1
  S2-  S211  1  0.51991712  0.36999614  0.95970889  1
  S2-  S212  1  0.48642662  0.63200913  0.45086737  1
  S2-  S213  1  0.52036892  0.62647169  0.95508943  1
  S2-  S214  1  0.49029623  0.87367405  0.45097231  1
  S2-  S215  1  0.51776542  0.87020239  0.96256151  1
  S2-  S216  1  0.73441013  0.13158359  0.45404258  1
  S2-  S217  1  0.76720478  0.11723097  0.95193174  1
  S2-  S218  1  0.73730853  0.37950504  0.46174680  1
  S2-  S219  1  0.76429256  0.36727673  0.96489123  1
  S2-  S220  1  0.74072060  0.62451872  0.45608492  1
  S2-  S221  1  0.76398334  0.62342982  0.95483028  1
  S2-  S222  1  0.74208776  0.87257168  0.45959855  1
  S2-  S223  1  0.76492516  0.87390163  0.95249253  1
  S2-  S224  1  0.14432973  -0.00241226  0.04044782  1
  S2-  S225  1  0.11273882  0.00246570  0.54725134  1
  S2-  S226  1  0.14248643  0.24321325  0.04521963  1
  S2-  S227  1  0.11231220  0.24519747  0.55037098  1
  S2-  S228  1  0.14013092  0.50005682  0.04015284  1
  S2-  S229  1  0.11650169  0.49660653  0.54269861  1
  S2-  S230  1  0.14034311  0.74354918  0.04444927  1
  S2-  S231  1  0.10832560  0.76079697  0.54274532  1
  S2-  S232  1  0.39066405  -0.00317796  0.04197868  1
  S2-  S233  1  0.36294139  0.00275700  0.53760175  1
  S2-  S234  1  0.39150256  0.24163304  0.04292259  1
  S2-  S235  1  0.36379417  0.24737474  0.54345235  1
  S2-  S236  1  0.39106922  0.50205430  0.03889671  1
  S2-  S237  1  0.36501828  0.50169406  0.54236725  1
  S2-  S238  1  0.38808580  0.74410539  0.04881584  1
  S2-  S239  1  0.36535268  0.75457764  0.53644619  1
  S2-  S240  1  0.64130345  -0.00477015  0.04886152  1
  S2-  S241  1  0.61669211  0.00264701  0.53628937  1
  S2-  S242  1  0.63726994  0.23972178  0.04772458  1
  S2-  S243  1  0.61613395  0.25073178  0.54905023  1
  S2-  S244  1  0.64085330  0.49874098  0.04426257  1
  S2-  S245  1  0.61275908  0.51136396  0.54377152  1
  S2-  S246  1  0.64592911  0.74603338  0.04810403  1
  S2-  S247  1  0.61191827  0.74712424  0.54204996  1
  S2-  S248  1  0.89353900  -0.00377571  0.04177435  1
  S2-  S249  1  0.85823146  0.00422859  0.54518251  1
  S2-  S250  1  0.89648137  0.24609954  0.04906353  1
  S2-  S251  1  0.85926114  0.24688380  0.55038575  1
  S2-  S252  1  0.89064040  0.49225228  0.04992243  1
  S2-  S253  1  0.86280003  0.50084585  0.54480961  1
  S2-  S254  1  0.88972401  0.74207594  0.04032212  1
  S2-  S255  1  0.86300988  0.75533461  0.54877975  1
