# generated using pymatgen
data_La9Ce10Pr6Nd4Sm3(BiS2)32
_symmetry_space_group_name_H-M   'P 1'
_cell_length_a   16.10090723
_cell_length_b   16.16565457
_cell_length_c   27.14144383
_cell_angle_alpha   89.78591922
_cell_angle_beta   90.38596584
_cell_angle_gamma   90.18017890
_symmetry_Int_Tables_number   1
_chemical_formula_structural   La9Ce10Pr6Nd4Sm3(BiS2)32
_chemical_formula_sum   'La18 Ce20 Pr12 Nd8 Sm6 Bi64 S128'
_cell_volume   7064.17729373
_cell_formula_units_Z   2
loop_
 _symmetry_equiv_pos_site_id
 _symmetry_equiv_pos_as_xyz
  1  'x, y, z'
loop_
 _atom_type_symbol
 _atom_type_oxidation_number
  La3+  3.0
  Ce3+  3.0
  Pr3+  3.0
  Nd3+  3.0
  Sm3+  3.0
  Bi2+  2.0
  S2-  -2.0
loop_
 _atom_site_type_symbol
 _atom_site_label
 _atom_site_symmetry_multiplicity
 _atom_site_fract_x
 _atom_site_fract_y
 _atom_site_fract_z
 _atom_site_occupancy
  La3+  La0  1  0.14979181  -0.00624373  0.43064018  1
  La3+  La1  1  0.13708056  0.51506369  0.93119209  1
  La3+  La2  1  0.88983758  0.26334132  0.92137082  1
  La3+  La3  1  0.13396597  0.76333069  0.93783707  1
  La3+  La4  1  0.65621299  0.01256195  0.40234428  1
  La3+  La5  1  0.27746934  0.11954952  0.57599103  1
  La3+  La6  1  0.90808100  0.49135008  0.41970440  1
  La3+  La7  1  0.78227437  0.62263336  0.55566008  1
  La3+  La8  1  0.53053562  0.35991190  0.59685961  1
  La3+  La9  1  0.00825333  0.62916533  0.10338811  1
  La3+  La10  1  0.02893337  0.86255095  0.57873993  1
  La3+  La11  1  0.38903262  0.01011348  0.93190585  1
  La3+  La12  1  0.87234943  0.00441915  0.89742522  1
  La3+  La13  1  0.65414450  0.74373605  0.41500640  1
  La3+  La14  1  0.01205649  0.88773536  0.07330713  1
  La3+  La15  1  0.78375258  0.37121083  0.56621293  1
  La3+  La16  1  0.78551890  0.11676582  0.57051247  1
  La3+  La17  1  0.77721322  0.14829493  0.08480876  1
  Ce3+  Ce18  1  0.27423817  0.86905851  0.56057139  1
  Ce3+  Ce19  1  0.27862242  0.36517307  0.56971012  1
  Ce3+  Ce20  1  0.53276977  0.86718732  0.55105651  1
  Ce3+  Ce21  1  0.63722969  0.51932788  0.92725881  1
  Ce3+  Ce22  1  0.25768108  0.13473805  0.05185298  1
  Ce3+  Ce23  1  0.51539369  0.38502115  0.05615026  1
  Ce3+  Ce24  1  0.03490380  0.61762497  0.56204777  1
  Ce3+  Ce25  1  0.26290543  0.88745199  0.06961849  1
  Ce3+  Ce26  1  0.40103635  -0.00541753  0.44273787  1
  Ce3+  Ce27  1  0.88607551  0.50962293  0.94272152  1
  Ce3+  Ce28  1  0.90263664  -0.00582900  0.43415685  1
  Ce3+  Ce29  1  0.38873740  0.26213701  0.94399286  1
  Ce3+  Ce30  1  0.64458195  0.01457966  0.95127596  1
  Ce3+  Ce31  1  0.76059619  0.88893365  0.07384284  1
  Ce3+  Ce32  1  0.39010791  0.51049889  0.94243468  1
  Ce3+  Ce33  1  0.53065957  0.11935469  0.55458906  1
  Ce3+  Ce34  1  0.00816476  0.13483922  0.04268475  1
  Ce3+  Ce35  1  0.13814829  0.00478824  0.92944510  1
  Ce3+  Ce36  1  0.14820817  0.74413147  0.43350382  1
  Ce3+  Ce37  1  0.39788982  0.49492331  0.44654700  1
  Pr3+  Pr38  1  0.64747312  0.49595720  0.43962330  1
  Pr3+  Pr39  1  0.15416284  0.24275268  0.43825644  1
  Pr3+  Pr40  1  0.53114183  0.62713323  0.56755634  1
  Pr3+  Pr41  1  0.51173411  0.88991604  0.07059873  1
  Pr3+  Pr42  1  0.90631858  0.74523792  0.42668674  1
  Pr3+  Pr43  1  0.75471758  0.63622789  0.06865135  1
  Pr3+  Pr44  1  0.15813764  0.49252221  0.43676054  1
  Pr3+  Pr45  1  0.01734622  0.38160085  0.06662195  1
  Pr3+  Pr46  1  0.39982970  0.24571775  0.43657363  1
  Pr3+  Pr47  1  0.39019935  0.76245757  0.94786984  1
  Pr3+  Pr48  1  0.13751897  0.26646444  0.92053466  1
  Pr3+  Pr49  1  0.25941151  0.63443610  0.06556957  1
  Nd3+  Nd50  1  0.27828635  0.61697704  0.56523286  1
  Nd3+  Nd51  1  0.64360511  0.76549025  0.93679108  1
  Nd3+  Nd52  1  0.40286022  0.74638898  0.44028064  1
  Nd3+  Nd53  1  0.77824704  0.87012887  0.55026278  1
  Nd3+  Nd54  1  0.26000864  0.38503443  0.06236708  1
  Nd3+  Nd55  1  0.65204967  0.25085249  0.44485258  1
  Nd3+  Nd56  1  0.88783008  0.76450814  0.95130479  1
  Nd3+  Nd57  1  0.90370753  0.24448068  0.43118209  1
  Sm3+  Sm58  1  0.76517439  0.38864666  0.05619248  1
  Sm3+  Sm59  1  0.02969269  0.11668750  0.56179143  1
  Sm3+  Sm60  1  0.51279442  0.13799637  0.06046884  1
  Sm3+  Sm61  1  0.64133010  0.25865671  0.94238762  1
  Sm3+  Sm62  1  0.02774969  0.36768644  0.56065047  1
  Sm3+  Sm63  1  0.51451635  0.63425210  0.06366185  1
  Bi2+  Bi64  1  0.00190421  0.15682459  0.26937226  1
  Bi2+  Bi65  1  0.04296912  0.18933317  0.70796482  1
  Bi2+  Bi66  1  -0.00194591  0.36813623  0.29279792  1
  Bi2+  Bi67  1  -0.00819851  0.37923164  0.78560058  1
  Bi2+  Bi68  1  0.01230311  0.61793043  0.28517388  1
  Bi2+  Bi69  1  0.01999662  0.61866758  0.78224658  1
  Bi2+  Bi70  1  0.03145474  0.88094568  0.28352738  1
  Bi2+  Bi71  1  0.00373840  0.87122182  0.78126729  1
  Bi2+  Bi72  1  0.18475567  0.10559662  0.31168003  1
  Bi2+  Bi73  1  0.15729313  0.15947802  0.79961300  1
  Bi2+  Bi74  1  0.24986943  0.37491234  0.28628654  1
  Bi2+  Bi75  1  0.24437126  0.33277710  0.78132043  1
  Bi2+  Bi76  1  0.26419594  0.61022428  0.29138756  1
  Bi2+  Bi77  1  0.23353952  0.56883555  0.78658428  1
  Bi2+  Bi78  1  0.21298152  0.86729251  0.32132497  1
  Bi2+  Bi79  1  0.25747887  0.84519476  0.79729908  1
  Bi2+  Bi80  1  0.41653858  0.24868655  0.29023268  1
  Bi2+  Bi81  1  0.44312759  0.03199969  0.80034141  1
  Bi2+  Bi82  1  0.50830609  0.38722379  0.35249635  1
  Bi2+  Bi83  1  0.46997836  0.37484051  0.80150499  1
  Bi2+  Bi84  1  0.49587969  0.55347815  0.28849298  1
  Bi2+  Bi85  1  0.41413835  0.60090564  0.74241224  1
  Bi2+  Bi86  1  0.41416699  0.85232420  0.30921547  1
  Bi2+  Bi87  1  0.50216263  0.83087323  0.79534841  1
  Bi2+  Bi88  1  0.73965219  0.11587110  0.27895684  1
  Bi2+  Bi89  1  0.68686983  0.09492031  0.79636865  1
  Bi2+  Bi90  1  0.67793051  0.35972001  0.29822032  1
  Bi2+  Bi91  1  0.74130487  0.31611852  0.81501289  1
  Bi2+  Bi92  1  0.73819249  0.63534806  0.28120665  1
  Bi2+  Bi93  1  0.78456072  0.70116996  0.82046046  1
  Bi2+  Bi94  1  0.72642640  0.88013952  0.28557595  1
  Bi2+  Bi95  1  0.69368251  0.85740447  0.77407554  1
  Bi2+  Bi96  1  0.11839491  0.01534376  0.20162072  1
  Bi2+  Bi97  1  0.18811521  0.01530686  0.72570798  1
  Bi2+  Bi98  1  0.17065168  0.22557921  0.21501212  1
  Bi2+  Bi99  1  0.14620166  0.35409660  0.67918347  1
  Bi2+  Bi100  1  0.15167326  0.47998971  0.20404524  1
  Bi2+  Bi101  1  0.00683601  0.49969773  0.69201844  1
  Bi2+  Bi102  1  0.19574626  0.75946815  0.22290371  1
  Bi2+  Bi103  1  0.17015153  0.73723112  0.71415335  1
  Bi2+  Bi104  1  0.31217674  0.00175420  0.25421467  1
  Bi2+  Bi105  1  0.36339501  -0.02651914  0.67947779  1
  Bi2+  Bi106  1  0.38181108  0.37670175  0.19966187  1
  Bi2+  Bi107  1  0.34151627  0.15194939  0.72505275  1
  Bi2+  Bi108  1  0.37985195  0.57329417  0.19307130  1
  Bi2+  Bi109  1  0.28232660  0.50133879  0.68216763  1
  Bi2+  Bi110  1  0.39812447  0.76962124  0.20225422  1
  Bi2+  Bi111  1  0.36491920  0.77524883  0.70141085  1
  Bi2+  Bi112  1  0.56796657  0.00088802  0.20326850  1
  Bi2+  Bi113  1  0.55640699  -0.03160920  0.71646796  1
  Bi2+  Bi114  1  0.56791723  0.25531062  0.22010321  1
  Bi2+  Bi115  1  0.62137924  0.21926006  0.71452893  1
  Bi2+  Bi116  1  0.64247087  0.49731012  0.21501147  1
  Bi2+  Bi117  1  0.61868936  0.46516373  0.73012922  1
  Bi2+  Bi118  1  0.59596787  0.75065666  0.21763507  1
  Bi2+  Bi119  1  0.62659816  0.70384107  0.70562456  1
  Bi2+  Bi120  1  0.89792516  0.03665645  0.19935881  1
  Bi2+  Bi121  1  0.85687962  0.00710925  0.70446416  1
  Bi2+  Bi122  1  0.83972596  0.28656757  0.23841327  1
  Bi2+  Bi123  1  0.82068381  0.31812337  0.71552858  1
  Bi2+  Bi124  1  0.83535120  0.46421544  0.19342221  1
  Bi2+  Bi125  1  0.83820810  0.55664002  0.74977151  1
  Bi2+  Bi126  1  0.85451175  0.76373294  0.21949525  1
  Bi2+  Bi127  1  0.86394029  0.75591736  0.69521833  1
  S2-  S128  1  -0.04869052  0.15655513  0.13602599  1
  S2-  S129  1  -0.07644907  0.13067053  0.64251195  1
  S2-  S130  1  -0.00459433  0.47436211  0.15609222  1
  S2-  S131  1  -0.08527457  0.37114791  0.63919779  1
  S2-  S132  1  0.00879835  0.71941383  0.19789058  1
  S2-  S133  1  -0.01865259  0.71557344  0.63601414  1
  S2-  S134  1  -0.11960255  0.88670091  0.14977889  1
  S2-  S135  1  -0.01894210  0.91562985  0.67968927  1
  S2-  S136  1  0.24335673  0.11620092  0.15042976  1
  S2-  S137  1  0.13883505  0.09882716  0.64261678  1
  S2-  S138  1  0.15212641  0.34636355  0.13806565  1
  S2-  S139  1  0.29172063  0.25117124  0.64715186  1
  S2-  S140  1  0.17110939  0.62132717  0.15277857  1
  S2-  S141  1  0.16480616  0.61782677  0.64108973  1
  S2-  S142  1  0.14733782  0.87860220  0.14548519  1
  S2-  S143  1  0.17822139  0.85731508  0.64153317  1
  S2-  S144  1  0.49615528  0.13016189  0.15927307  1
  S2-  S145  1  0.51591954  0.19197365  0.64307721  1
  S2-  S146  1  0.54718997  0.38559925  0.15277787  1
  S2-  S147  1  0.48204363  0.37810368  0.70186803  1
  S2-  S148  1  0.62034897  0.63393106  0.14256218  1
  S2-  S149  1  0.53926563  0.56761617  0.66462022  1
  S2-  S150  1  0.38311190  0.90633315  0.14275706  1
  S2-  S151  1  0.54885210  0.77510242  0.63389821  1
  S2-  S152  1  0.73051283  0.06721614  0.17357752  1
  S2-  S153  1  0.71868430  0.11290106  0.67001862  1
  S2-  S154  1  0.78084934  0.30631327  0.14318063  1
  S2-  S155  1  0.68360509  0.37286706  0.65254520  1
  S2-  S156  1  0.84358244  0.62395025  0.15708532  1
  S2-  S157  1  0.76514652  0.62115894  0.65771721  1
  S2-  S158  1  0.63403993  0.86910220  0.14753246  1
  S2-  S159  1  0.77342417  0.87741576  0.65226411  1
  S2-  S160  1  0.01831630  -0.01542070  0.35723316  1
  S2-  S161  1  0.11649838  -0.11865942  0.85860575  1
  S2-  S162  1  0.03672188  0.23965909  0.35842329  1
  S2-  S163  1  0.01799157  0.24726102  0.84337832  1
  S2-  S164  1  0.05794919  0.49151275  0.35093868  1
  S2-  S165  1  0.15366214  0.40494923  0.85080521  1
  S2-  S166  1  0.03624243  0.73762438  0.35295634  1
  S2-  S167  1  0.14062167  0.64686724  0.85574933  1
  S2-  S168  1  0.39171797  0.01782476  0.34526110  1
  S2-  S169  1  0.29264419  -0.00313229  0.84761556  1
  S2-  S170  1  0.27490394  0.23954479  0.36082605  1
  S2-  S171  1  0.37049816  0.25985844  0.84651186  1
  S2-  S172  1  0.28986770  0.48496432  0.36468870  1
  S2-  S173  1  0.38635636  0.50953657  0.84283886  1
  S2-  S174  1  0.38818288  0.68461525  0.34563259  1
  S2-  S175  1  0.37414570  0.75559427  0.84715493  1
  S2-  S176  1  0.59947655  0.01607180  0.29847901  1
  S2-  S177  1  0.70301018  -0.03249052  0.86148628  1
  S2-  S178  1  0.66549991  0.18534796  0.35210812  1
  S2-  S179  1  0.60400076  0.22562596  0.84507695  1
  S2-  S180  1  0.62482605  0.59643578  0.35485588  1
  S2-  S181  1  0.62367069  0.44506160  0.83620643  1
  S2-  S182  1  0.58740702  0.80758750  0.32392458  1
  S2-  S183  1  0.63509154  0.65599289  0.85895422  1
  S2-  S184  1  0.80613969  0.00709927  0.34730711  1
  S2-  S185  1  0.93486629  0.01233800  0.79662302  1
  S2-  S186  1  0.86554293  0.35556721  0.35332161  1
  S2-  S187  1  0.81981790  0.16227601  0.84391170  1
  S2-  S188  1  0.87310703  0.56634153  0.32339919  1
  S2-  S189  1  0.87699266  0.41910827  0.85723080  1
  S2-  S190  1  0.79733760  0.76779361  0.34487501  1
  S2-  S191  1  0.89344568  0.83260638  0.85697297  1
  S2-  S192  1  0.02613473  0.11836622  0.45781530  1
  S2-  S193  1  0.00398396  0.11999504  0.93878008  1
  S2-  S194  1  0.02917061  0.36888529  0.45762656  1
  S2-  S195  1  0.01510991  0.38895874  0.95593640  1
  S2-  S196  1  0.02990567  0.61700428  0.45507967  1
  S2-  S197  1  0.00489752  0.63566651  0.94963373  1
  S2-  S198  1  0.02899403  0.86627870  0.45813645  1
  S2-  S199  1  0.00758048  0.89038728  0.96310233  1
  S2-  S200  1  0.27824086  0.11557713  0.46242408  1
  S2-  S201  1  0.26038532  0.13833581  0.94583746  1
  S2-  S202  1  0.27853079  0.36698892  0.46522360  1
  S2-  S203  1  0.26731792  0.38715142  0.95656444  1
  S2-  S204  1  0.27653006  0.62416308  0.45976829  1
  S2-  S205  1  0.26782632  0.63561990  0.95821004  1
  S2-  S206  1  0.27733124  0.86846135  0.45246942  1
  S2-  S207  1  0.26517257  0.88475046  0.96095077  1
  S2-  S208  1  0.52750154  0.11996492  0.44763918  1
  S2-  S209  1  0.51444605  0.13665981  0.95426626  1
  S2-  S210  1  0.52526514  0.36977124  0.46442950  1
  S2-  S211  1  0.51588361  0.38488281  0.95043682  1
  S2-  S212  1  0.52075421  0.61987444  0.45910007  1
  S2-  S213  1  0.51260925  0.63658763  0.95901313  1
  S2-  S214  1  0.52995056  0.87514483  0.44494051  1
  S2-  S215  1  0.51720453  0.88748006  0.95412278  1
  S2-  S216  1  0.77793697  0.12219098  0.45748492  1
  S2-  S217  1  0.76209240  0.13766839  0.95873501  1
  S2-  S218  1  0.77405970  0.37294482  0.45756042  1
  S2-  S219  1  0.75463224  0.38755681  0.95349780  1
  S2-  S220  1  0.78108361  0.61650907  0.44701235  1
  S2-  S221  1  0.76447447  0.63631732  0.96027897  1
  S2-  S222  1  0.76957520  0.87913337  0.44606591  1
  S2-  S223  1  0.76465052  0.88677193  0.96597651  1
  S2-  S224  1  0.13629331  0.01227315  0.03930697  1
  S2-  S225  1  0.15247225  -0.00872675  0.54040081  1
  S2-  S226  1  0.13711177  0.25667493  0.03026597  1
  S2-  S227  1  0.14872656  0.24562733  0.54580033  1
  S2-  S228  1  0.13729269  0.51010339  0.04301802  1
  S2-  S229  1  0.15486607  0.48702090  0.54526432  1
  S2-  S230  1  0.13222807  0.75372997  0.04761748  1
  S2-  S231  1  0.15507294  0.74286837  0.53821824  1
  S2-  S232  1  0.38880496  0.01769743  0.04021981  1
  S2-  S233  1  0.40509112  -0.00738560  0.54915067  1
  S2-  S234  1  0.38621863  0.26050740  0.05195987  1
  S2-  S235  1  0.40609617  0.24552547  0.54347408  1
  S2-  S236  1  0.38915460  0.50977088  0.05126614  1
  S2-  S237  1  0.40570684  0.49146189  0.55713486  1
  S2-  S238  1  0.39039548  0.75599125  0.05371012  1
  S2-  S239  1  0.39750734  0.74483122  0.54714571  1
  S2-  S240  1  0.63684129  0.01922674  0.05462712  1
  S2-  S241  1  0.65227145  -0.00622297  0.55190064  1
  S2-  S242  1  0.63888934  0.25964059  0.04810760  1
  S2-  S243  1  0.65690958  0.24248166  0.54940602  1
  S2-  S244  1  0.63717563  0.50811942  0.04036112  1
  S2-  S245  1  0.65107694  0.49669606  0.54835197  1
  S2-  S246  1  0.63190881  0.76181936  0.04191242  1
  S2-  S247  1  0.65693960  0.74486160  0.53032495  1
  S2-  S248  1  0.88291190  0.01508912  0.05150088  1
  S2-  S249  1  0.90764317  -0.01080872  0.54385362  1
  S2-  S250  1  0.88932373  0.26848846  0.03340558  1
  S2-  S251  1  0.90665655  0.24370892  0.53823274  1
  S2-  S252  1  0.88824588  0.51030245  0.04761901  1
  S2-  S253  1  0.90773865  0.49899539  0.53945469  1
  S2-  S254  1  0.88972128  0.75354209  0.05552856  1
  S2-  S255  1  0.90101140  0.74788469  0.53328160  1
