# generated using pymatgen
data_La9Ce10Pr6Nd4Sm3(BiS2)32
_symmetry_space_group_name_H-M   'P 1'
_cell_length_a   16.21094207
_cell_length_b   16.12908565
_cell_length_c   27.17496537
_cell_angle_alpha   89.90570057
_cell_angle_beta   89.87148039
_cell_angle_gamma   89.94054339
_symmetry_Int_Tables_number   1
_chemical_formula_structural   La9Ce10Pr6Nd4Sm3(BiS2)32
_chemical_formula_sum   'La18 Ce20 Pr12 Nd8 Sm6 Bi64 S128'
_cell_volume   7105.34366742
_cell_formula_units_Z   2
loop_
 _symmetry_equiv_pos_site_id
 _symmetry_equiv_pos_as_xyz
  1  'x, y, z'
loop_
 _atom_type_symbol
 _atom_type_oxidation_number
  La3+  3.0
  Ce3+  3.0
  Pr3+  3.0
  Nd3+  3.0
  Sm3+  3.0
  Bi2+  2.0
  S2-  -2.0
loop_
 _atom_site_type_symbol
 _atom_site_label
 _atom_site_symmetry_multiplicity
 _atom_site_fract_x
 _atom_site_fract_y
 _atom_site_fract_z
 _atom_site_occupancy
  La3+  La0  1  0.48850905  0.37285133  0.56854184  1
  La3+  La1  1  0.86986175  0.49699653  0.43986336  1
  La3+  La2  1  0.51762279  0.64498536  0.10658784  1
  La3+  La3  1  0.11559774  0.49113067  0.42107893  1
  La3+  La4  1  0.36873681  0.49737147  0.92711079  1
  La3+  La5  1  -0.00344982  0.37411927  0.57593239  1
  La3+  La6  1  0.00525852  0.11553898  0.08897180  1
  La3+  La7  1  0.25996251  0.86142162  0.05946434  1
  La3+  La8  1  -0.00076644  0.12704425  0.57813752  1
  La3+  La9  1  0.62624186  0.48530916  0.91649087  1
  La3+  La10  1  0.74026822  0.10721320  0.08498040  1
  La3+  La11  1  -0.00317669  0.86709766  0.06887018  1
  La3+  La12  1  0.12285387  0.49245575  0.93486176  1
  La3+  La13  1  0.37804825  0.48279408  0.41516103  1
  La3+  La14  1  0.11436409  0.24068387  0.42759765  1
  La3+  La15  1  0.62263361  0.75070768  0.43436145  1
  La3+  La16  1  0.74196339  0.61253390  0.57992583  1
  La3+  La17  1  0.24224757  0.37468313  0.56331261  1
  Ce3+  Ce18  1  0.12192767  0.74594881  0.94047728  1
  Ce3+  Ce19  1  0.73838650  0.37043872  0.55783603  1
  Ce3+  Ce20  1  0.74414337  0.12089174  0.55766473  1
  Ce3+  Ce21  1  -0.00134753  0.36911002  0.06779631  1
  Ce3+  Ce22  1  0.37529237  0.24614648  0.94717909  1
  Ce3+  Ce23  1  0.62247500  0.50498005  0.43667863  1
  Ce3+  Ce24  1  0.74946989  0.37247233  0.05743293  1
  Ce3+  Ce25  1  0.24571602  0.11682856  0.56929322  1
  Ce3+  Ce26  1  0.50221433  0.38212542  0.06028127  1
  Ce3+  Ce27  1  0.88353069  0.49323974  0.94089115  1
  Ce3+  Ce28  1  0.24159772  0.61775882  0.54968818  1
  Ce3+  Ce29  1  0.50359602  0.12053541  0.05533237  1
  Ce3+  Ce30  1  0.24226116  0.87104070  0.55549815  1
  Ce3+  Ce31  1  0.87118878  0.24639100  0.43982946  1
  Ce3+  Ce32  1  0.74578955  0.62022714  0.04572480  1
  Ce3+  Ce33  1  0.36826215  -0.00168594  0.43955055  1
  Ce3+  Ce34  1  0.37766816  0.74031280  0.93519742  1
  Ce3+  Ce35  1  0.25240974  0.37270433  0.06469377  1
  Ce3+  Ce36  1  0.62922780  -0.00365682  0.92756287  1
  Ce3+  Ce37  1  -0.00369043  0.62009869  0.56319747  1
  Pr3+  Pr38  1  0.88160749  0.74608377  0.92658516  1
  Pr3+  Pr39  1  0.87059143  -0.00312582  0.43869465  1
  Pr3+  Pr40  1  0.61683388  0.24418623  0.43718521  1
  Pr3+  Pr41  1  0.63407822  0.74683480  0.90120057  1
  Pr3+  Pr42  1  0.86989183  0.74870430  0.45310294  1
  Pr3+  Pr43  1  0.49517473  0.86867453  0.56197250  1
  Pr3+  Pr44  1  0.49206850  0.11815888  0.57009278  1
  Pr3+  Pr45  1  0.37655960  -0.00129854  0.93479344  1
  Pr3+  Pr46  1  0.74415349  0.88063952  0.57379805  1
  Pr3+  Pr47  1  0.25728977  0.11894370  0.07204529  1
  Pr3+  Pr48  1  0.87849315  0.23872068  0.95354445  1
  Pr3+  Pr49  1  -0.00425696  0.87408795  0.57043253  1
  Nd3+  Nd50  1  0.49154404  0.61972693  0.55949834  1
  Nd3+  Nd51  1  0.00308005  0.61807360  0.06797534  1
  Nd3+  Nd52  1  0.36650352  0.23882699  0.43724724  1
  Nd3+  Nd53  1  0.61748801  -0.00247991  0.43260746  1
  Nd3+  Nd54  1  0.36620628  0.74524901  0.44270926  1
  Nd3+  Nd55  1  0.50606902  0.86696140  0.04193788  1
  Nd3+  Nd56  1  0.11878899  0.74486282  0.43654548  1
  Nd3+  Nd57  1  0.25224186  0.61062504  0.06758057  1
  Sm3+  Sm58  1  0.74640654  0.86423474  0.04902080  1
  Sm3+  Sm59  1  0.12696479  -0.00415898  0.94927182  1
  Sm3+  Sm60  1  0.87924404  -0.00282389  0.94451502  1
  Sm3+  Sm61  1  0.62818745  0.24416627  0.94181358  1
  Sm3+  Sm62  1  0.11715443  -0.00135808  0.44229026  1
  Sm3+  Sm63  1  0.12604009  0.24060294  0.95198373  1
  Bi2+  Bi64  1  -0.01980465  0.13211432  0.29228752  1
  Bi2+  Bi65  1  0.01324210  0.12072828  0.82820831  1
  Bi2+  Bi66  1  0.02741279  0.37590715  0.28791720  1
  Bi2+  Bi67  1  -0.00594316  0.36762262  0.79822419  1
  Bi2+  Bi68  1  0.00385841  0.67473692  0.30635597  1
  Bi2+  Bi69  1  0.02527393  0.63197034  0.78666232  1
  Bi2+  Bi70  1  -0.00834762  0.89954344  0.24407598  1
  Bi2+  Bi71  1  -0.08737351  0.84595524  0.79246400  1
  Bi2+  Bi72  1  0.23715085  0.14401156  0.29825728  1
  Bi2+  Bi73  1  0.20955745  0.11951854  0.74571236  1
  Bi2+  Bi74  1  0.28210186  0.35840308  0.28091966  1
  Bi2+  Bi75  1  0.26414779  0.34174833  0.80703681  1
  Bi2+  Bi76  1  0.24994623  0.68972883  0.29981880  1
  Bi2+  Bi77  1  0.22857290  0.61664238  0.78404920  1
  Bi2+  Bi78  1  0.33652109  0.95968948  0.29355482  1
  Bi2+  Bi79  1  0.19785355  0.83607976  0.78081975  1
  Bi2+  Bi80  1  0.49918498  0.15772950  0.28165980  1
  Bi2+  Bi81  1  0.47834083  0.08995413  0.80597966  1
  Bi2+  Bi82  1  0.56804887  0.37013950  0.27558767  1
  Bi2+  Bi83  1  0.51448466  0.32147352  0.78355959  1
  Bi2+  Bi84  1  0.50885649  0.63374301  0.31695576  1
  Bi2+  Bi85  1  0.48372483  0.58880431  0.80200139  1
  Bi2+  Bi86  1  0.51818057  0.87839023  0.29505294  1
  Bi2+  Bi87  1  0.48440825  0.89336186  0.79125813  1
  Bi2+  Bi88  1  0.73219213  0.13059888  0.28385132  1
  Bi2+  Bi89  1  0.67019223  0.11230850  0.80451889  1
  Bi2+  Bi90  1  0.75250990  0.33016139  0.30663011  1
  Bi2+  Bi91  1  0.78589295  0.36142617  0.79804875  1
  Bi2+  Bi92  1  0.79681974  0.52830276  0.31424142  1
  Bi2+  Bi93  1  0.83327380  0.64819300  0.76248736  1
  Bi2+  Bi94  1  0.81718219  0.80892180  0.25974956  1
  Bi2+  Bi95  1  0.70868857  0.93031842  0.75342804  1
  Bi2+  Bi96  1  0.18645357  -0.00669752  0.22240255  1
  Bi2+  Bi97  1  0.09394882  -0.03260769  0.72682285  1
  Bi2+  Bi98  1  0.14860175  0.25573609  0.22009355  1
  Bi2+  Bi99  1  0.07703131  0.25274677  0.71676656  1
  Bi2+  Bi100  1  0.12698764  0.51149661  0.21317022  1
  Bi2+  Bi101  1  0.12523939  0.49773293  0.70682014  1
  Bi2+  Bi102  1  0.11891459  0.76390508  0.20943456  1
  Bi2+  Bi103  1  0.15160213  0.72998693  0.68640217  1
  Bi2+  Bi104  1  0.36790486  0.04837956  0.18907182  1
  Bi2+  Bi105  1  0.34049519  -0.03186578  0.70417529  1
  Bi2+  Bi106  1  0.34711320  0.24102670  0.19136094  1
  Bi2+  Bi107  1  0.37764509  0.21647336  0.73024517  1
  Bi2+  Bi108  1  0.38512994  0.52316586  0.21038245  1
  Bi2+  Bi109  1  0.37082624  0.48451141  0.70164764  1
  Bi2+  Bi110  1  0.39463579  0.78315159  0.20719133  1
  Bi2+  Bi111  1  0.33969019  0.76310627  0.71676023  1
  Bi2+  Bi112  1  0.59955727  0.01113693  0.23295876  1
  Bi2+  Bi113  1  0.58911597  0.05948831  0.69872163  1
  Bi2+  Bi114  1  0.54161550  0.25774422  0.18541876  1
  Bi2+  Bi115  1  0.65391189  0.24105702  0.70978254  1
  Bi2+  Bi116  1  0.68813888  0.50406571  0.22471944  1
  Bi2+  Bi117  1  0.63663217  0.49282841  0.71126447  1
  Bi2+  Bi118  1  0.67667269  0.81190346  0.18695520  1
  Bi2+  Bi119  1  0.57884325  0.73460767  0.69714265  1
  Bi2+  Bi120  1  0.85282094  0.04595689  0.20398112  1
  Bi2+  Bi121  1  0.86929564  0.02048706  0.71825100  1
  Bi2+  Bi122  1  0.86334677  0.31457960  0.21062091  1
  Bi2+  Bi123  1  0.84319734  0.20835826  0.73060856  1
  Bi2+  Bi124  1  0.88871817  0.56240279  0.21496762  1
  Bi2+  Bi125  1  0.88135706  0.46453456  0.72037929  1
  Bi2+  Bi126  1  0.93209564  0.73737907  0.17278699  1
  Bi2+  Bi127  1  0.95857785  0.75401927  0.69356203  1
  S2-  S128  1  -0.03830138  0.18194116  0.18614368  1
  S2-  S129  1  -0.05253544  0.25067470  0.65026889  1
  S2-  S130  1  0.00552198  0.42652822  0.16072505  1
  S2-  S131  1  0.13332928  0.36738520  0.64646231  1
  S2-  S132  1  0.12581457  0.62458589  0.14366612  1
  S2-  S133  1  -0.00852999  0.52143680  0.64457289  1
  S2-  S134  1  -0.01487037  0.97088831  0.14993870  1
  S2-  S135  1  -0.01242589  0.98975296  0.64831953  1
  S2-  S136  1  0.15250238  0.11728855  0.15352120  1
  S2-  S137  1  0.14321392  0.14307276  0.64740766  1
  S2-  S138  1  0.25590119  0.45695262  0.15159210  1
  S2-  S139  1  0.35949177  0.36204588  0.64335495  1
  S2-  S140  1  0.35104976  0.65179046  0.14845990  1
  S2-  S141  1  0.25571697  0.55091165  0.64060639  1
  S2-  S142  1  0.24574065  0.85202210  0.16051424  1
  S2-  S143  1  0.21565297  0.93003629  0.64599470  1
  S2-  S144  1  0.58065609  0.09385293  0.14080785  1
  S2-  S145  1  0.37408614  0.11366785  0.64596626  1
  S2-  S146  1  0.49982420  0.47753335  0.14291250  1
  S2-  S147  1  0.57166047  0.36841892  0.66080886  1
  S2-  S148  1  0.50719304  0.65041765  0.21967154  1
  S2-  S149  1  0.49604808  0.58706321  0.65962890  1
  S2-  S150  1  0.51320408  0.82220282  0.13930898  1
  S2-  S151  1  0.46253009  0.85457149  0.66182642  1
  S2-  S152  1  0.76214305  0.18450898  0.17753579  1
  S2-  S153  1  0.74310226  0.03538975  0.64207220  1
  S2-  S154  1  0.75034118  0.40774035  0.15307358  1
  S2-  S155  1  0.75858011  0.45030363  0.64480016  1
  S2-  S156  1  0.68790622  0.65967097  0.13620921  1
  S2-  S157  1  0.71341134  0.63902389  0.68016728  1
  S2-  S158  1  0.74949284  0.94142537  0.13945320  1
  S2-  S159  1  0.69525820  0.83235848  0.66744516  1
  S2-  S160  1  0.10928977  0.09129837  0.35846818  1
  S2-  S161  1  0.12561680  0.01499478  0.85130841  1
  S2-  S162  1  0.14940314  0.35997440  0.35119104  1
  S2-  S163  1  0.12863215  0.26192654  0.85294150  1
  S2-  S164  1  0.14454179  0.57707687  0.32614116  1
  S2-  S165  1  0.22763165  0.47814322  0.85289848  1
  S2-  S166  1  0.12069266  0.79053807  0.33968169  1
  S2-  S167  1  0.01988826  0.75545932  0.85963231  1
  S2-  S168  1  0.37544760  0.10181107  0.36043512  1
  S2-  S169  1  0.36028206  -0.03622646  0.83587074  1
  S2-  S170  1  0.38430017  0.33094409  0.35204583  1
  S2-  S171  1  0.35360974  0.20958113  0.85312779  1
  S2-  S172  1  0.35037584  0.55423861  0.31638830  1
  S2-  S173  1  0.42556802  0.42913721  0.83588024  1
  S2-  S174  1  0.39450340  0.76313433  0.34454922  1
  S2-  S175  1  0.34755459  0.67562155  0.84630682  1
  S2-  S176  1  0.64040471  -0.12264465  0.35993222  1
  S2-  S177  1  0.63860758  -0.09704934  0.84590684  1
  S2-  S178  1  0.60875870  0.12568567  0.35931558  1
  S2-  S179  1  0.63579726  0.32942111  0.85540210  1
  S2-  S180  1  0.53157226  0.47587934  0.35468054  1
  S2-  S181  1  0.63515911  0.53799574  0.81604884  1
  S2-  S182  1  0.65909818  0.63275290  0.36083684  1
  S2-  S183  1  0.56162975  0.72855907  0.80424529  1
  S2-  S184  1  0.86146989  0.04464501  0.34031713  1
  S2-  S185  1  0.90106669  -0.00075378  0.84532288  1
  S2-  S186  1  0.96366107  0.25252839  0.35538702  1
  S2-  S187  1  0.89146558  0.24817294  0.85231787  1
  S2-  S188  1  0.96442908  0.49556124  0.35389258  1
  S2-  S189  1  0.99059627  0.49845751  0.86219981  1
  S2-  S190  1  0.88219839  0.76143127  0.35193312  1
  S2-  S191  1  0.78381413  0.74084441  0.84136496  1
  S2-  S192  1  -0.00895885  0.11910510  0.46245534  1
  S2-  S193  1  0.00512309  0.11640918  0.96930572  1
  S2-  S194  1  -0.00748497  0.36894177  0.46094641  1
  S2-  S195  1  0.00250650  0.36264421  0.96191784  1
  S2-  S196  1  -0.00391142  0.62520791  0.45622296  1
  S2-  S197  1  0.00104888  0.62226337  0.96223366  1
  S2-  S198  1  -0.00313677  0.87338964  0.45801170  1
  S2-  S199  1  0.00211661  0.87669341  0.96014777  1
  S2-  S200  1  0.24210744  0.11623499  0.46034608  1
  S2-  S201  1  0.25042772  0.11837407  0.96241657  1
  S2-  S202  1  0.24804946  0.36910222  0.45425669  1
  S2-  S203  1  0.24818783  0.36433233  0.95907344  1
  S2-  S204  1  0.24460548  0.61863863  0.44353186  1
  S2-  S205  1  0.24589195  0.62363271  0.95732436  1
  S2-  S206  1  0.24171929  0.87388134  0.44746264  1
  S2-  S207  1  0.25073449  0.87019607  0.95006792  1
  S2-  S208  1  0.49432626  0.11928012  0.46336131  1
  S2-  S209  1  0.50423882  0.12201518  0.94898327  1
  S2-  S210  1  0.49808122  0.36537275  0.45965363  1
  S2-  S211  1  0.50089986  0.36620242  0.95389835  1
  S2-  S212  1  0.49110186  0.62446575  0.45259401  1
  S2-  S213  1  0.50665355  0.61898577  0.92949845  1
  S2-  S214  1  0.49026726  0.87168802  0.45515335  1
  S2-  S215  1  0.49911014  0.86852480  0.93751899  1
  S2-  S216  1  0.74588052  0.12044279  0.45335431  1
  S2-  S217  1  0.75063406  0.11882406  0.95028662  1
  S2-  S218  1  0.74078579  0.37003238  0.45062079  1
  S2-  S219  1  0.75786172  0.36823747  0.95280745  1
  S2-  S220  1  0.74877667  0.62388737  0.46859881  1
  S2-  S221  1  0.75506389  0.61318288  0.93972850  1
  S2-  S222  1  0.74704802  0.87534743  0.46469707  1
  S2-  S223  1  0.75893693  0.87330120  0.94644313  1
  S2-  S224  1  0.13438022  -0.01184930  0.05351416  1
  S2-  S225  1  0.11795241  -0.00496384  0.54338124  1
  S2-  S226  1  0.12699197  0.24699295  0.05716554  1
  S2-  S227  1  0.12007217  0.24524878  0.54035491  1
  S2-  S228  1  0.12197642  0.49109730  0.04399106  1
  S2-  S229  1  0.11593392  0.50125867  0.53597388  1
  S2-  S230  1  0.12570154  0.74566930  0.04567383  1
  S2-  S231  1  0.11713888  0.74789618  0.54482433  1
  S2-  S232  1  0.38069671  -0.00675037  0.04394644  1
  S2-  S233  1  0.36952287  -0.00962295  0.54461818  1
  S2-  S234  1  0.37972493  0.24709976  0.05374097  1
  S2-  S235  1  0.36857717  0.24085896  0.54360641  1
  S2-  S236  1  0.37193454  0.49248269  0.03708685  1
  S2-  S237  1  0.37011775  0.50056601  0.53485418  1
  S2-  S238  1  0.38620614  0.73736857  0.03972654  1
  S2-  S239  1  0.36629322  0.74487598  0.55022641  1
  S2-  S240  1  0.62662588  -0.00873405  0.03356658  1
  S2-  S241  1  0.61553349  -0.00441035  0.54331463  1
  S2-  S242  1  0.62788126  0.24673618  0.04640188  1
  S2-  S243  1  0.61730450  0.24194310  0.54849945  1
  S2-  S244  1  0.62757146  0.49528615  0.03371348  1
  S2-  S245  1  0.61565249  0.49750284  0.54486711  1
  S2-  S246  1  0.62671609  0.74463000  0.02657046  1
  S2-  S247  1  0.61965268  0.74420148  0.55017571  1
  S2-  S248  1  0.87131431  -0.00354599  0.04679851  1
  S2-  S249  1  0.87182250  -0.00141899  0.54562285  1
  S2-  S250  1  0.87218880  0.24047152  0.05998835  1
  S2-  S251  1  0.86164129  0.24821006  0.54472318  1
  S2-  S252  1  0.87749237  0.49726591  0.04770015  1
  S2-  S253  1  0.86870970  0.49527021  0.54558085  1
  S2-  S254  1  0.87300240  0.74436903  0.03944368  1
  S2-  S255  1  0.86763241  0.74756431  0.56047902  1
