# generated using pymatgen
data_La9Ce10Pr6Nd4Sm3(BiS2)32
_symmetry_space_group_name_H-M   'P 1'
_cell_length_a   16.14040137
_cell_length_b   16.04821115
_cell_length_c   27.44251093
_cell_angle_alpha   90.34034781
_cell_angle_beta   89.86248849
_cell_angle_gamma   90.15103855
_symmetry_Int_Tables_number   1
_chemical_formula_structural   La9Ce10Pr6Nd4Sm3(BiS2)32
_chemical_formula_sum   'La18 Ce20 Pr12 Nd8 Sm6 Bi64 S128'
_cell_volume   7108.11425509
_cell_formula_units_Z   2
loop_
 _symmetry_equiv_pos_site_id
 _symmetry_equiv_pos_as_xyz
  1  'x, y, z'
loop_
 _atom_type_symbol
 _atom_type_oxidation_number
  La3+  3.0
  Ce3+  3.0
  Pr3+  3.0
  Nd3+  3.0
  Sm3+  3.0
  Bi2+  2.0
  S2-  -2.0
loop_
 _atom_site_type_symbol
 _atom_site_label
 _atom_site_symmetry_multiplicity
 _atom_site_fract_x
 _atom_site_fract_y
 _atom_site_fract_z
 _atom_site_occupancy
  La3+  La0  1  0.00256585  0.89407014  0.06784606  1
  La3+  La1  1  0.25301730  0.38274944  0.54282359  1
  La3+  La2  1  0.24226873  0.38860171  0.07313972  1
  La3+  La3  1  0.38602412  0.51000489  0.39980268  1
  La3+  La4  1  0.25634345  0.89900671  0.05376615  1
  La3+  La5  1  0.49623646  0.38319071  0.56824969  1
  La3+  La6  1  0.61165376  0.04178527  0.39005145  1
  La3+  La7  1  0.00315308  0.13453734  0.56267994  1
  La3+  La8  1  0.76057657  0.88209089  0.09320813  1
  La3+  La9  1  0.49994570  0.88685977  0.56806934  1
  La3+  La10  1  0.37642825  0.24827823  0.41937301  1
  La3+  La11  1  0.12207043  0.01560604  0.90443881  1
  La3+  La12  1  0.50538705  0.14623880  0.07417292  1
  La3+  La13  1  0.49370994  0.63287059  0.57735358  1
  La3+  La14  1  0.75609247  0.88382025  0.58183732  1
  La3+  La15  1  0.75814012  0.13810518  0.10205242  1
  La3+  La16  1  0.88709272  0.77272589  0.92995197  1
  La3+  La17  1  0.49841396  0.40322136  0.08123985  1
  Ce3+  Ce18  1  0.13272024  0.26423211  0.93494355  1
  Ce3+  Ce19  1  0.50827015  0.89261215  0.05649216  1
  Ce3+  Ce20  1  0.87371553  0.76129235  0.44499152  1
  Ce3+  Ce21  1  0.86580516  0.00050336  0.43873928  1
  Ce3+  Ce22  1  0.86878526  0.50549756  0.44178154  1
  Ce3+  Ce23  1  0.62871220  0.50875803  0.43822990  1
  Ce3+  Ce24  1  0.36863278  0.00686848  0.43735871  1
  Ce3+  Ce25  1  0.63134993  0.76313745  0.93626249  1
  Ce3+  Ce26  1  0.12346101  0.00435672  0.43350786  1
  Ce3+  Ce27  1  0.38236644  0.51254016  0.93847775  1
  Ce3+  Ce28  1  0.87767398  0.01524498  0.94093033  1
  Ce3+  Ce29  1  0.25084241  0.63243265  0.55364849  1
  Ce3+  Ce30  1  0.86962309  0.25212157  0.44118753  1
  Ce3+  Ce31  1  0.13348486  0.76588313  0.94465426  1
  Ce3+  Ce32  1  0.74947735  0.63161842  0.56788442  1
  Ce3+  Ce33  1  0.12579511  0.75103043  0.43566781  1
  Ce3+  Ce34  1  0.75622160  0.38921767  0.06481162  1
  Ce3+  Ce35  1  0.00076530  0.63249586  0.55541112  1
  Ce3+  Ce36  1  0.00200127  0.37932348  0.56099154  1
  Ce3+  Ce37  1  0.12315652  0.50869061  0.43039605  1
  Pr3+  Pr38  1  0.00306790  0.88737760  0.56907908  1
  Pr3+  Pr39  1  0.75037572  0.38487148  0.57092839  1
  Pr3+  Pr40  1  0.25400052  0.64191001  0.06118496  1
  Pr3+  Pr41  1  0.49829004  0.13203746  0.57010081  1
  Pr3+  Pr42  1  0.62887398  0.26649268  0.94613777  1
  Pr3+  Pr43  1  0.12833939  0.51117534  0.92896829  1
  Pr3+  Pr44  1  0.62585977  0.76573042  0.44443750  1
  Pr3+  Pr45  1  0.37916587  0.75684977  0.43861132  1
  Pr3+  Pr46  1  0.25780701  0.14349880  0.06374089  1
  Pr3+  Pr47  1  0.38584793  0.01499470  0.92234391  1
  Pr3+  Pr48  1  0.63012298  0.01671208  0.94363436  1
  Pr3+  Pr49  1  0.50705456  0.65176157  0.06963677  1
  Nd3+  Nd50  1  0.38156070  0.76074232  0.93190842  1
  Nd3+  Nd51  1  0.63062544  0.51335700  0.94692735  1
  Nd3+  Nd52  1  0.24844356  0.88645603  0.56319005  1
  Nd3+  Nd53  1  0.00212507  0.39221283  0.06476016  1
  Nd3+  Nd54  1  0.75817495  0.64454582  0.05441573  1
  Nd3+  Nd55  1  0.11225631  0.26429259  0.41571411  1
  Nd3+  Nd56  1  0.88160521  0.26458853  0.94280704  1
  Nd3+  Nd57  1  0.74890573  0.13345517  0.56759910  1
  Sm3+  Sm58  1  0.88506475  0.51290650  0.93651742  1
  Sm3+  Sm59  1  -0.00163194  0.14000150  0.05672827  1
  Sm3+  Sm60  1  0.37819485  0.26474873  0.94232839  1
  Sm3+  Sm61  1  0.24974089  0.13729299  0.55033712  1
  Sm3+  Sm62  1  0.00379422  0.64233217  0.05543948  1
  Sm3+  Sm63  1  0.62026358  0.26048728  0.44905298  1
  Bi2+  Bi64  1  0.03521397  0.04548031  0.30251323  1
  Bi2+  Bi65  1  -0.07895425  0.15429033  0.78848799  1
  Bi2+  Bi66  1  -0.07549604  0.41351364  0.31272519  1
  Bi2+  Bi67  1  0.03768879  0.35463305  0.79668527  1
  Bi2+  Bi68  1  -0.02673880  0.63125059  0.29991592  1
  Bi2+  Bi69  1  -0.04633581  0.60133949  0.77877197  1
  Bi2+  Bi70  1  0.00726548  0.83385843  0.30139652  1
  Bi2+  Bi71  1  0.01444302  0.85074692  0.80061052  1
  Bi2+  Bi72  1  0.26483863  0.10989071  0.28494840  1
  Bi2+  Bi73  1  0.24131546  0.17032722  0.78386329  1
  Bi2+  Bi74  1  0.19987795  0.37233829  0.27687105  1
  Bi2+  Bi75  1  0.30710801  0.36056200  0.78021865  1
  Bi2+  Bi76  1  0.16643921  0.66804183  0.26020759  1
  Bi2+  Bi77  1  0.23398533  0.54712906  0.77783984  1
  Bi2+  Bi78  1  0.20342505  0.83635003  0.31673705  1
  Bi2+  Bi79  1  0.25135273  0.79980790  0.79415493  1
  Bi2+  Bi80  1  0.50669275  0.18212907  0.29138769  1
  Bi2+  Bi81  1  0.48801047  0.14765041  0.78975301  1
  Bi2+  Bi82  1  0.51486499  0.42335846  0.26889670  1
  Bi2+  Bi83  1  0.52549687  0.40783466  0.79986531  1
  Bi2+  Bi84  1  0.53184060  0.67155976  0.29650245  1
  Bi2+  Bi85  1  0.42379496  0.61507591  0.76917027  1
  Bi2+  Bi86  1  0.39932454  0.83536483  0.30369855  1
  Bi2+  Bi87  1  0.50556182  0.89647839  0.79163142  1
  Bi2+  Bi88  1  0.86713120  0.15976417  0.28688320  1
  Bi2+  Bi89  1  0.75575152  0.05913230  0.81967575  1
  Bi2+  Bi90  1  0.73272020  0.38865239  0.28832364  1
  Bi2+  Bi91  1  0.80075975  0.43767584  0.79538737  1
  Bi2+  Bi92  1  0.71775502  0.72070300  0.32383308  1
  Bi2+  Bi93  1  0.70508814  0.60208849  0.77925345  1
  Bi2+  Bi94  1  0.75879734  0.90915045  0.29579206  1
  Bi2+  Bi95  1  0.73050300  0.87927046  0.77543952  1
  Bi2+  Bi96  1  0.15214586  -0.00974919  0.21140641  1
  Bi2+  Bi97  1  0.15433650  -0.01082798  0.70581981  1
  Bi2+  Bi98  1  0.11580235  0.19050254  0.22452627  1
  Bi2+  Bi99  1  0.13792498  0.27918896  0.70684173  1
  Bi2+  Bi100  1  0.04932557  0.52552296  0.20999588  1
  Bi2+  Bi101  1  0.10148812  0.47704349  0.69803952  1
  Bi2+  Bi102  1  0.06671069  0.81116607  0.19369943  1
  Bi2+  Bi103  1  0.11901929  0.67318964  0.72000597  1
  Bi2+  Bi104  1  0.36941409  -0.00968398  0.21736596  1
  Bi2+  Bi105  1  0.38645495  0.00312445  0.72418534  1
  Bi2+  Bi106  1  0.36121757  0.25982341  0.19415631  1
  Bi2+  Bi107  1  0.36622338  0.19450912  0.69031620  1
  Bi2+  Bi108  1  0.37856611  0.53565248  0.21630191  1
  Bi2+  Bi109  1  0.36749676  0.46865362  0.68965377  1
  Bi2+  Bi110  1  0.37364793  0.76660617  0.20044595  1
  Bi2+  Bi111  1  0.35258632  0.76145248  0.70242473  1
  Bi2+  Bi112  1  0.58169085  -0.03847780  0.19767036  1
  Bi2+  Bi113  1  0.63414600  0.02651226  0.72040874  1
  Bi2+  Bi114  1  0.65183858  0.25018484  0.21988985  1
  Bi2+  Bi115  1  0.66822096  0.20725808  0.76233292  1
  Bi2+  Bi116  1  0.65926164  0.52063013  0.21066988  1
  Bi2+  Bi117  1  0.64968109  0.44982247  0.71397715  1
  Bi2+  Bi118  1  0.63506438  0.77030924  0.21811635  1
  Bi2+  Bi119  1  0.60815919  0.74553453  0.72491524  1
  Bi2+  Bi120  1  0.90881250  0.01491377  0.21232784  1
  Bi2+  Bi121  1  0.89333004  0.00706236  0.71171433  1
  Bi2+  Bi122  1  0.95093847  0.29238954  0.21530016  1
  Bi2+  Bi123  1  0.86807221  0.26451800  0.70365400  1
  Bi2+  Bi124  1  0.84599114  0.45352839  0.18449703  1
  Bi2+  Bi125  1  0.90354537  0.46235679  0.69642492  1
  Bi2+  Bi126  1  0.81519982  0.64281560  0.23293820  1
  Bi2+  Bi127  1  0.85907366  0.73599073  0.70958623  1
  S2-  S128  1  -0.07395997  0.14784381  0.14755245  1
  S2-  S129  1  0.02426419  0.02572913  0.64484273  1
  S2-  S130  1  0.10618666  0.42346475  0.14249371  1
  S2-  S131  1  0.01289897  0.26416146  0.63689835  1
  S2-  S132  1  0.00406002  0.66487341  0.15253436  1
  S2-  S133  1  -0.00519695  0.67015749  0.65151370  1
  S2-  S134  1  -0.08566372  0.87479809  0.15351266  1
  S2-  S135  1  -0.09967981  0.86768682  0.65303059  1
  S2-  S136  1  0.21737899  0.24527899  0.14556373  1
  S2-  S137  1  0.23806126  0.08463088  0.64538351  1
  S2-  S138  1  0.34927469  0.41644141  0.15279517  1
  S2-  S139  1  0.26332186  0.34614967  0.64153172  1
  S2-  S140  1  0.26897413  0.64013431  0.16208894  1
  S2-  S141  1  0.32224600  0.62273110  0.64256820  1
  S2-  S142  1  0.28052724  0.88014065  0.15299784  1
  S2-  S143  1  0.20739933  0.85452755  0.65929654  1
  S2-  S144  1  0.37350298  0.10902044  0.14372519  1
  S2-  S145  1  0.48478272  0.00781785  0.64859232  1
  S2-  S146  1  0.51635995  0.29235763  0.15883779  1
  S2-  S147  1  0.49054091  0.25811363  0.64427844  1
  S2-  S148  1  0.51576822  0.54887799  0.15295478  1
  S2-  S149  1  0.51879599  0.50115312  0.64800721  1
  S2-  S150  1  0.51022313  0.79249069  0.13851445  1
  S2-  S151  1  0.49848017  0.77012265  0.64921943  1
  S2-  S152  1  0.60448227  0.11660961  0.15678392  1
  S2-  S153  1  0.76213137  0.02665994  0.65155740  1
  S2-  S154  1  0.75454702  0.29955920  0.15025546  1
  S2-  S155  1  0.74336257  0.25775016  0.64431248  1
  S2-  S156  1  0.74948063  0.72353723  0.14395101  1
  S2-  S157  1  0.75743188  0.51511046  0.64355286  1
  S2-  S158  1  0.75114265  0.99702585  0.17041508  1
  S2-  S159  1  0.73223527  0.74049353  0.64909648  1
  S2-  S160  1  0.24240213  -0.00807736  0.36121269  1
  S2-  S161  1  0.16263072  -0.05330853  0.80989747  1
  S2-  S162  1  0.23666929  0.24350846  0.34409965  1
  S2-  S163  1  0.11829661  0.16415890  0.85073016  1
  S2-  S164  1  0.09442375  0.40770714  0.34961196  1
  S2-  S165  1  0.15525468  0.37936068  0.86031225  1
  S2-  S166  1  0.12690093  0.63456129  0.35707517  1
  S2-  S167  1  0.12111707  0.73541175  0.84940757  1
  S2-  S168  1  0.43587863  0.09311091  0.36161737  1
  S2-  S169  1  0.37327293  -0.12734778  0.85326524  1
  S2-  S170  1  0.43544996  0.33089910  0.33098202  1
  S2-  S171  1  0.36413296  0.15668035  0.85970740  1
  S2-  S172  1  0.29694857  0.48728950  0.30731348  1
  S2-  S173  1  0.39557305  0.38544489  0.86827816  1
  S2-  S174  1  0.38389866  0.67291344  0.34917809  1
  S2-  S175  1  0.38890958  0.63137680  0.86197630  1
  S2-  S176  1  0.59406458  0.02825007  0.28227381  1
  S2-  S177  1  0.53476306  0.02730769  0.85840286  1
  S2-  S178  1  0.63100418  0.21320208  0.35344332  1
  S2-  S179  1  0.62863661  0.30172800  0.84664169  1
  S2-  S180  1  0.54299128  0.52055330  0.35195044  1
  S2-  S181  1  0.59852073  0.53776578  0.85036959  1
  S2-  S182  1  0.63411968  0.86969315  0.36062461  1
  S2-  S183  1  0.61998964  0.78277792  0.83901935  1
  S2-  S184  1  0.78365035  0.04867545  0.35242364  1
  S2-  S185  1  0.96035236  -0.03168705  0.85758708  1
  S2-  S186  1  0.95687971  0.25375757  0.35542021  1
  S2-  S187  1  0.88513004  0.30323006  0.84519891  1
  S2-  S188  1  0.76579628  0.49855891  0.36307222  1
  S2-  S189  1  0.99127445  0.51615041  0.85841827  1
  S2-  S190  1  0.87643193  0.86674713  0.36598302  1
  S2-  S191  1  0.88671165  0.74602686  0.83050182  1
  S2-  S192  1  -0.00324156  0.12632964  0.45114870  1
  S2-  S193  1  0.00295508  0.13727531  0.95369753  1
  S2-  S194  1  -0.00676205  0.38360473  0.45758751  1
  S2-  S195  1  0.00331119  0.38931062  0.95921514  1
  S2-  S196  1  -0.00598284  0.63090203  0.45164663  1
  S2-  S197  1  0.00474357  0.64268569  0.95284130  1
  S2-  S198  1  0.00677321  0.87869387  0.45967143  1
  S2-  S199  1  0.01431983  0.89371585  0.96054960  1
  S2-  S200  1  0.24215352  0.13555734  0.44917402  1
  S2-  S201  1  0.24846404  0.13393800  0.95741468  1
  S2-  S202  1  0.25589781  0.38954559  0.43748785  1
  S2-  S203  1  0.25524473  0.38992344  0.96498336  1
  S2-  S204  1  0.25552861  0.62744315  0.45093522  1
  S2-  S205  1  0.25126614  0.63686607  0.95446586  1
  S2-  S206  1  0.24716128  0.87408223  0.45760971  1
  S2-  S207  1  0.24830679  0.89782410  0.94791279  1
  S2-  S208  1  0.50583227  0.13118179  0.46284863  1
  S2-  S209  1  0.50515964  0.14497641  0.96213768  1
  S2-  S210  1  0.49974706  0.38419059  0.45297521  1
  S2-  S211  1  0.50891585  0.39266323  0.96874933  1
  S2-  S212  1  0.50356521  0.63422987  0.45879938  1
  S2-  S213  1  0.51042579  0.64037886  0.96272879  1
  S2-  S214  1  0.49529220  0.88927869  0.45634392  1
  S2-  S215  1  0.50685352  0.88500131  0.95333438  1
  S2-  S216  1  0.74303019  0.13321216  0.46060136  1
  S2-  S217  1  0.75584972  0.14249409  0.94695950  1
  S2-  S218  1  0.74951134  0.37749745  0.46155978  1
  S2-  S219  1  0.75966174  0.39307543  0.95576111  1
  S2-  S220  1  0.75121153  0.63645337  0.46108467  1
  S2-  S221  1  0.76128819  0.63851788  0.94650405  1
  S2-  S222  1  0.75438699  0.87954479  0.47036201  1
  S2-  S223  1  0.75488378  0.89022850  0.94011131  1
  S2-  S224  1  0.12632413  0.02238598  0.06417532  1
  S2-  S225  1  0.12936719  0.00865873  0.53787203  1
  S2-  S226  1  0.11661343  0.26273387  0.04163221  1
  S2-  S227  1  0.12575910  0.25800555  0.52960609  1
  S2-  S228  1  0.12467204  0.52271570  0.03858096  1
  S2-  S229  1  0.12392382  0.50779405  0.54225137  1
  S2-  S230  1  0.12886541  0.76790379  0.05047325  1
  S2-  S231  1  0.12540838  0.75760142  0.54445628  1
  S2-  S232  1  0.38603116  0.01432909  0.03630849  1
  S2-  S233  1  0.36810028  0.01028699  0.54300305  1
  S2-  S234  1  0.38001367  0.27077089  0.04644296  1
  S2-  S235  1  0.37428979  0.25395742  0.53308516  1
  S2-  S236  1  0.37934250  0.52482659  0.04656439  1
  S2-  S237  1  0.37528658  0.50925938  0.54183392  1
  S2-  S238  1  0.37705833  0.76761366  0.03836359  1
  S2-  S239  1  0.37092296  0.76125276  0.54465957  1
  S2-  S240  1  0.63779630  0.01081707  0.04948366  1
  S2-  S241  1  0.62746459  0.00752758  0.55758205  1
  S2-  S242  1  0.63634853  0.26429383  0.05016153  1
  S2-  S243  1  0.62388024  0.25979185  0.54863338  1
  S2-  S244  1  0.63625549  0.51935674  0.05197663  1
  S2-  S245  1  0.62569737  0.50848906  0.54300929  1
  S2-  S246  1  0.63878728  0.77252778  0.04008101  1
  S2-  S247  1  0.62237481  0.75683561  0.54837316  1
  S2-  S248  1  0.87079685  0.01567643  0.04689180  1
  S2-  S249  1  0.87819824  0.00989411  0.54419086  1
  S2-  S250  1  0.87842313  0.26620749  0.04694727  1
  S2-  S251  1  0.87491829  0.25935681  0.54335200  1
  S2-  S252  1  0.88113971  0.51828256  0.04259027  1
  S2-  S253  1  0.87992256  0.50623799  0.54543979  1
  S2-  S254  1  0.88133707  0.76723634  0.03875013  1
  S2-  S255  1  0.87867209  0.75545114  0.54736845  1
