# generated using pymatgen
data_La9Ce10Pr6Nd4Sm3(BiS2)32
_symmetry_space_group_name_H-M   'P 1'
_cell_length_a   16.09380567
_cell_length_b   16.11639059
_cell_length_c   27.32907002
_cell_angle_alpha   90.53402043
_cell_angle_beta   90.34668758
_cell_angle_gamma   90.06985239
_symmetry_Int_Tables_number   1
_chemical_formula_structural   La9Ce10Pr6Nd4Sm3(BiS2)32
_chemical_formula_sum   'La18 Ce20 Pr12 Nd8 Sm6 Bi64 S128'
_cell_volume   7088.00838926
_cell_formula_units_Z   2
loop_
 _symmetry_equiv_pos_site_id
 _symmetry_equiv_pos_as_xyz
  1  'x, y, z'
loop_
 _atom_type_symbol
 _atom_type_oxidation_number
  La3+  3.0
  Ce3+  3.0
  Pr3+  3.0
  Nd3+  3.0
  Sm3+  3.0
  Bi2+  2.0
  S2-  -2.0
loop_
 _atom_site_type_symbol
 _atom_site_label
 _atom_site_symmetry_multiplicity
 _atom_site_fract_x
 _atom_site_fract_y
 _atom_site_fract_z
 _atom_site_occupancy
  La3+  La0  1  0.88720040  0.73664612  0.41048106  1
  La3+  La1  1  0.77208119  0.11039979  0.58211880  1
  La3+  La2  1  0.62718535  0.73162106  0.41083097  1
  La3+  La3  1  0.47873388  0.13324478  0.07153919  1
  La3+  La4  1  0.62291677  0.51628579  0.89785612  1
  La3+  La5  1  0.14180734  0.23147108  0.43771355  1
  La3+  La6  1  0.26462918  0.86690435  0.56595417  1
  La3+  La7  1  0.63398374  0.48459029  0.43576569  1
  La3+  La8  1  0.76107380  0.36877018  0.59233971  1
  La3+  La9  1  0.37830007  0.00309040  0.39971487  1
  La3+  La10  1  0.85727993  0.25914777  0.92134302  1
  La3+  La11  1  0.73916230  0.89389136  0.07673966  1
  La3+  La12  1  0.25686447  0.62001708  0.56232280  1
  La3+  La13  1  -0.00556271  0.63101319  0.08147405  1
  La3+  La14  1  0.88704438  0.48093865  0.42234927  1
  La3+  La15  1  0.47718974  0.88243652  0.09518679  1
  La3+  La16  1  0.35531350  0.75327847  0.92973054  1
  La3+  La17  1  0.76310992  0.86435091  0.55888601  1
  Ce3+  Ce18  1  0.51226730  0.61610707  0.56173522  1
  Ce3+  Ce19  1  0.51088265  0.36534547  0.57232200  1
  Ce3+  Ce20  1  0.87899201  -0.01311011  0.43009716  1
  Ce3+  Ce21  1  0.60560493  0.00331821  0.94394692  1
  Ce3+  Ce22  1  0.60828512  0.75461265  0.94797273  1
  Ce3+  Ce23  1  0.11283547  0.50809951  0.93446679  1
  Ce3+  Ce24  1  0.73082239  0.38277138  0.05593758  1
  Ce3+  Ce25  1  0.73169915  0.63459961  0.06805922  1
  Ce3+  Ce26  1  0.24083652  0.63335971  0.06527360  1
  Ce3+  Ce27  1  -0.01985869  0.88344986  0.05768371  1
  Ce3+  Ce28  1  0.63917521  0.23702503  0.45450538  1
  Ce3+  Ce29  1  0.10881528  0.25758792  0.92611705  1
  Ce3+  Ce30  1  0.36098523  0.00589610  0.93938573  1
  Ce3+  Ce31  1  -0.02058505  0.13286763  0.04632627  1
  Ce3+  Ce32  1  0.51122520  0.86408827  0.55053266  1
  Ce3+  Ce33  1  0.10877640  0.75165273  0.94488570  1
  Ce3+  Ce34  1  0.23544105  0.88208135  0.05875889  1
  Ce3+  Ce35  1  0.13519061  -0.01337175  0.44339808  1
  Ce3+  Ce36  1  0.38418015  0.74042674  0.43561284  1
  Ce3+  Ce37  1  0.51353667  0.11236275  0.56232100  1
  Pr3+  Pr38  1  0.85633328  0.75066331  0.94089513  1
  Pr3+  Pr39  1  0.63978647  -0.00788919  0.43352020  1
  Pr3+  Pr40  1  0.60616815  0.25861439  0.93154032  1
  Pr3+  Pr41  1  0.35890336  0.25811803  0.93011892  1
  Pr3+  Pr42  1  0.01430564  0.36511111  0.56727074  1
  Pr3+  Pr43  1  0.26351245  0.36983277  0.57988055  1
  Pr3+  Pr44  1  0.00966583  0.61288135  0.55461778  1
  Pr3+  Pr45  1  0.26133124  0.11209303  0.57441278  1
  Pr3+  Pr46  1  0.38314790  0.48589061  0.44646681  1
  Pr3+  Pr47  1  0.84642770  -0.00423354  0.91780560  1
  Pr3+  Pr48  1  0.48250586  0.63088176  0.06006084  1
  Pr3+  Pr49  1  0.47657957  0.37984164  0.06729136  1
  Nd3+  Nd50  1  0.13443669  0.73747212  0.42708079  1
  Nd3+  Nd51  1  0.23253712  0.13258603  0.05516114  1
  Nd3+  Nd52  1  0.36119740  0.50401769  0.93346385  1
  Nd3+  Nd53  1  0.10582025  0.00488562  0.94129770  1
  Nd3+  Nd54  1  0.13453465  0.47931307  0.43187812  1
  Nd3+  Nd55  1  0.38755987  0.23725367  0.44944961  1
  Nd3+  Nd56  1  0.76273991  0.61039806  0.55679444  1
  Nd3+  Nd57  1  0.22688334  0.38214254  0.06214280  1
  Sm3+  Sm58  1  -0.01346539  0.37794299  0.05861948  1
  Sm3+  Sm59  1  0.85964192  0.50736026  0.95361759  1
  Sm3+  Sm60  1  0.73436198  0.13546444  0.05195656  1
  Sm3+  Sm61  1  0.00919590  0.11352115  0.55461510  1
  Sm3+  Sm62  1  0.01030292  0.86218191  0.55336113  1
  Sm3+  Sm63  1  0.88164232  0.23859010  0.44651622  1
  Bi2+  Bi64  1  0.01879316  0.14351413  0.29648174  1
  Bi2+  Bi65  1  0.04835110  0.12718332  0.79792644  1
  Bi2+  Bi66  1  0.02289695  0.34688564  0.30230185  1
  Bi2+  Bi67  1  0.02859614  0.43653329  0.80910144  1
  Bi2+  Bi68  1  -0.01776323  0.61315944  0.28073756  1
  Bi2+  Bi69  1  0.01360931  0.63670226  0.84115502  1
  Bi2+  Bi70  1  0.04006511  0.94569969  0.30283534  1
  Bi2+  Bi71  1  0.00218339  0.81606879  0.79322214  1
  Bi2+  Bi72  1  0.22745137  0.16578903  0.29908625  1
  Bi2+  Bi73  1  0.30226542  0.13829919  0.79389370  1
  Bi2+  Bi74  1  0.27726372  0.42706070  0.29659423  1
  Bi2+  Bi75  1  0.22626654  0.39560740  0.78505371  1
  Bi2+  Bi76  1  0.20842823  0.61765281  0.29603202  1
  Bi2+  Bi77  1  0.27818898  0.65765195  0.79915687  1
  Bi2+  Bi78  1  0.21449263  0.81848468  0.29278785  1
  Bi2+  Bi79  1  0.26905482  0.93845156  0.79846273  1
  Bi2+  Bi80  1  0.51960943  0.14936870  0.29540881  1
  Bi2+  Bi81  1  0.49431768  0.09823401  0.76666372  1
  Bi2+  Bi82  1  0.46431175  0.34548917  0.29279017  1
  Bi2+  Bi83  1  0.47123958  0.36557961  0.78690505  1
  Bi2+  Bi84  1  0.40441038  0.62215084  0.28491837  1
  Bi2+  Bi85  1  0.52106489  0.64626029  0.79062790  1
  Bi2+  Bi86  1  0.51700899  0.86418016  0.28920734  1
  Bi2+  Bi87  1  0.55694081  0.83982459  0.73686111  1
  Bi2+  Bi88  1  0.77533368  0.14579448  0.24020754  1
  Bi2+  Bi89  1  0.74678752  0.11756609  0.78722777  1
  Bi2+  Bi90  1  0.72680695  0.37744578  0.31389857  1
  Bi2+  Bi91  1  0.79831236  0.37668871  0.79304294  1
  Bi2+  Bi92  1  0.72060055  0.63884140  0.28127714  1
  Bi2+  Bi93  1  0.83559822  0.63924996  0.78682904  1
  Bi2+  Bi94  1  0.76667550  0.94551831  0.29081931  1
  Bi2+  Bi95  1  0.73131635  0.87063439  0.78992298  1
  Bi2+  Bi96  1  0.15602554  0.04817935  0.20909118  1
  Bi2+  Bi97  1  0.15465329  0.09449831  0.70181081  1
  Bi2+  Bi98  1  0.12599118  0.25193883  0.21148743  1
  Bi2+  Bi99  1  0.09289141  0.28414298  0.72238917  1
  Bi2+  Bi100  1  0.15210823  0.47660892  0.21448301  1
  Bi2+  Bi101  1  0.11284967  0.58016777  0.74450831  1
  Bi2+  Bi102  1  0.09491768  0.85874185  0.20156852  1
  Bi2+  Bi103  1  0.17259678  0.79307367  0.73881686  1
  Bi2+  Bi104  1  0.35600225  0.00842757  0.21303908  1
  Bi2+  Bi105  1  0.38825449  -0.05271667  0.71090407  1
  Bi2+  Bi106  1  0.36647689  0.26252924  0.20408136  1
  Bi2+  Bi107  1  0.29071897  0.23434448  0.69498987  1
  Bi2+  Bi108  1  0.43056408  0.50598580  0.19826249  1
  Bi2+  Bi109  1  0.38029967  0.48432575  0.71882042  1
  Bi2+  Bi110  1  0.24860751  0.73167130  0.19136977  1
  Bi2+  Bi111  1  0.36113903  0.69074070  0.68441667  1
  Bi2+  Bi112  1  0.64068862  0.00310358  0.21046946  1
  Bi2+  Bi113  1  0.64298278  0.01213331  0.70763902  1
  Bi2+  Bi114  1  0.62177818  0.25961777  0.21744276  1
  Bi2+  Bi115  1  0.61044343  0.24545361  0.71805285  1
  Bi2+  Bi116  1  0.61509678  0.46237257  0.23116297  1
  Bi2+  Bi117  1  0.64292077  0.51733817  0.71144616  1
  Bi2+  Bi118  1  0.58531491  0.69477731  0.19136830  1
  Bi2+  Bi119  1  0.72730190  0.74075844  0.70399185  1
  Bi2+  Bi120  1  0.93050031  0.02141808  0.21461856  1
  Bi2+  Bi121  1  0.90985353  -0.00941531  0.70569602  1
  Bi2+  Bi122  1  0.90943558  0.27655340  0.19790581  1
  Bi2+  Bi123  1  0.88177183  0.24783311  0.72367995  1
  Bi2+  Bi124  1  0.81855296  0.43997564  0.22281946  1
  Bi2+  Bi125  1  0.90762315  0.50347950  0.71323934  1
  Bi2+  Bi126  1  0.83472176  0.76873130  0.20080444  1
  Bi2+  Bi127  1  0.92276957  0.74667704  0.69653742  1
  S2-  S128  1  -0.02244589  0.14676423  0.14294040  1
  S2-  S129  1  -0.06194531  0.11118235  0.64580092  1
  S2-  S130  1  0.09554071  0.37971130  0.13676722  1
  S2-  S131  1  -0.09126961  0.36387264  0.65153981  1
  S2-  S132  1  -0.04830216  0.66472838  0.17992180  1
  S2-  S133  1  0.01861484  0.60658100  0.65665687  1
  S2-  S134  1  -0.11009662  0.89625203  0.14118505  1
  S2-  S135  1  0.00263635  0.88387357  0.65245129  1
  S2-  S136  1  0.31687231  0.13527023  0.14351756  1
  S2-  S137  1  0.26021458  -0.01529608  0.64673294  1
  S2-  S138  1  0.33939853  0.38996309  0.14062177  1
  S2-  S139  1  0.13113150  0.37496777  0.64504570  1
  S2-  S140  1  0.14387569  0.60930584  0.14624920  1
  S2-  S141  1  0.27406243  0.54364104  0.65386612  1
  S2-  S142  1  0.31355045  0.88921709  0.14630976  1
  S2-  S143  1  0.22791385  0.75117931  0.64066781  1
  S2-  S144  1  0.49537713  0.02635742  0.15509915  1
  S2-  S145  1  0.51394433  0.12854525  0.66093826  1
  S2-  S146  1  0.50549426  0.26011713  0.14287060  1
  S2-  S147  1  0.39645144  0.35637272  0.65021676  1
  S2-  S148  1  0.36905048  0.63756374  0.13844052  1
  S2-  S149  1  0.51363346  0.59824591  0.66082845  1
  S2-  S150  1  0.48190232  0.81498724  0.19509776  1
  S2-  S151  1  0.46020042  0.83345136  0.64387969  1
  S2-  S152  1  0.73783226  0.06150878  0.14046409  1
  S2-  S153  1  0.74732638  0.22143840  0.66259585  1
  S2-  S154  1  0.75616535  0.32988896  0.14733785  1
  S2-  S155  1  0.61371320  0.38082742  0.65519413  1
  S2-  S156  1  0.74194268  0.62972096  0.16648986  1
  S2-  S157  1  0.77003875  0.52887116  0.64669913  1
  S2-  S158  1  0.68038002  0.83822795  0.16819925  1
  S2-  S159  1  0.77508793  0.96399260  0.64549442  1
  S2-  S160  1  0.20425737  0.04221706  0.36157065  1
  S2-  S161  1  0.11666311  -0.00560732  0.84206599  1
  S2-  S162  1  0.17075032  0.34601249  0.36175010  1
  S2-  S163  1  0.23407476  0.26109767  0.85348479  1
  S2-  S164  1  0.02252916  0.49123329  0.35087000  1
  S2-  S165  1  0.23401894  0.51098201  0.86058553  1
  S2-  S166  1  0.03306800  0.72206370  0.34417397  1
  S2-  S167  1  0.20620609  0.75504725  0.86451376  1
  S2-  S168  1  0.35633148  -0.07866377  0.30501355  1
  S2-  S169  1  0.41665000  0.00605349  0.84587283  1
  S2-  S170  1  0.37860312  0.16891508  0.35601183  1
  S2-  S171  1  0.48297939  0.25659834  0.85554278  1
  S2-  S172  1  0.43473529  0.48353509  0.35025277  1
  S2-  S173  1  0.46244626  0.51049034  0.84871529  1
  S2-  S174  1  0.47031234  0.73415269  0.34996782  1
  S2-  S175  1  0.41940601  0.74954791  0.83223865  1
  S2-  S176  1  0.53762722  0.00623222  0.34824819  1
  S2-  S177  1  0.68355350  -0.00251375  0.85628009  1
  S2-  S178  1  0.62136985  0.25833725  0.35725585  1
  S2-  S179  1  0.72637269  0.25457240  0.85190372  1
  S2-  S180  1  0.63337597  0.58024373  0.35131644  1
  S2-  S181  1  0.63882858  0.43609387  0.80147561  1
  S2-  S182  1  0.67513329  0.80009993  0.32031742  1
  S2-  S183  1  0.63684762  0.68267646  0.85826995  1
  S2-  S184  1  0.76392775  0.05335574  0.36483437  1
  S2-  S185  1  0.88976633  0.07094113  0.82640322  1
  S2-  S186  1  0.87734908  0.32656801  0.35986862  1
  S2-  S187  1  0.99100629  0.27500178  0.85124733  1
  S2-  S188  1  0.85163691  0.60289615  0.34371262  1
  S2-  S189  1  0.80335050  0.51425620  0.86004445  1
  S2-  S190  1  0.89093929  0.88001360  0.34800133  1
  S2-  S191  1  0.85950118  0.84901170  0.85569630  1
  S2-  S192  1  0.00727447  0.11322327  0.44899367  1
  S2-  S193  1  -0.02055445  0.12723518  0.94327098  1
  S2-  S194  1  0.01378891  0.35456963  0.45935669  1
  S2-  S195  1  -0.01699433  0.38653523  0.95553113  1
  S2-  S196  1  0.01084842  0.61341698  0.45019571  1
  S2-  S197  1  -0.01756851  0.62981636  0.96619682  1
  S2-  S198  1  0.01123745  0.86195594  0.45003991  1
  S2-  S199  1  -0.01549314  0.87766335  0.95306261  1
  S2-  S200  1  0.26584301  0.11114195  0.46695284  1
  S2-  S201  1  0.23295014  0.12718074  0.95008993  1
  S2-  S202  1  0.26397803  0.36009569  0.46778528  1
  S2-  S203  1  0.23128327  0.38090061  0.95655494  1
  S2-  S204  1  0.25750492  0.61220359  0.44676800  1
  S2-  S205  1  0.23404304  0.63002557  0.96223749  1
  S2-  S206  1  0.26204193  0.86564178  0.44754489  1
  S2-  S207  1  0.23303970  0.88540740  0.95510380  1
  S2-  S208  1  0.51091873  0.11250833  0.45755473  1
  S2-  S209  1  0.48417549  0.12934750  0.95776988  1
  S2-  S210  1  0.50984115  0.36161613  0.46179989  1
  S2-  S211  1  0.48765839  0.38667489  0.95775506  1
  S2-  S212  1  0.50766529  0.61414900  0.45643795  1
  S2-  S213  1  0.48741993  0.62814120  0.95465388  1
  S2-  S214  1  0.50871095  0.86723656  0.44696471  1
  S2-  S215  1  0.48444256  0.87799457  0.94709630  1
  S2-  S216  1  0.76292528  0.11744061  0.47222030  1
  S2-  S217  1  0.73336275  0.12969284  0.95058432  1
  S2-  S218  1  0.75994990  0.36314707  0.46071850  1
  S2-  S219  1  0.72926624  0.38964347  0.95210830  1
  S2-  S220  1  0.75974297  0.61638690  0.45314505  1
  S2-  S221  1  0.73249612  0.62638997  0.96432142  1
  S2-  S222  1  0.75525026  0.85558146  0.45058726  1
  S2-  S223  1  0.73189657  0.87638546  0.96248269  1
  S2-  S224  1  0.10701394  0.00750708  0.04913922  1
  S2-  S225  1  0.13057266  -0.01120313  0.54756763  1
  S2-  S226  1  0.10668227  0.25325722  0.03545831  1
  S2-  S227  1  0.13623101  0.23138907  0.54847403  1
  S2-  S228  1  0.10715365  0.50603768  0.04007327  1
  S2-  S229  1  0.13748219  0.49163513  0.53924208  1
  S2-  S230  1  0.10925634  0.76042636  0.05106961  1
  S2-  S231  1  0.13185280  0.74270983  0.53374998  1
  S2-  S232  1  0.35882832  0.00497012  0.04317250  1
  S2-  S233  1  0.39084603  -0.01004844  0.54964610  1
  S2-  S234  1  0.35308678  0.25684480  0.03685228  1
  S2-  S235  1  0.38652603  0.23476271  0.55332886  1
  S2-  S236  1  0.35698080  0.50526751  0.03897695  1
  S2-  S237  1  0.38759495  0.49301596  0.55031821  1
  S2-  S238  1  0.36471821  0.76484938  0.04023121  1
  S2-  S239  1  0.38620388  0.73862411  0.53912285  1
  S2-  S240  1  0.60550136  0.00609201  0.04716329  1
  S2-  S241  1  0.63565712  -0.01124343  0.54551656  1
  S2-  S242  1  0.61201706  0.25540481  0.03967255  1
  S2-  S243  1  0.63694944  0.23904298  0.55691066  1
  S2-  S244  1  0.60710884  0.50527205  0.06800415  1
  S2-  S245  1  0.63419118  0.49042718  0.54451950  1
  S2-  S246  1  0.60465797  0.76154889  0.05413829  1
  S2-  S247  1  0.63766012  0.73841541  0.55340366  1
  S2-  S248  1  0.85864243  0.01003396  0.03270036  1
  S2-  S249  1  0.89189884  -0.01429495  0.53762600  1
  S2-  S250  1  0.85808947  0.25981273  0.03561870  1
  S2-  S251  1  0.88781146  0.24025765  0.54848109  1
  S2-  S252  1  0.86398364  0.50495556  0.05932710  1
  S2-  S253  1  0.88726673  0.48784055  0.53977843  1
  S2-  S254  1  0.86053842  0.75221607  0.04922815  1
  S2-  S255  1  0.88633239  0.73879087  0.54810738  1
