# generated using pymatgen
data_La9Ce10Pr6Nd4Sm3(BiS2)32
_symmetry_space_group_name_H-M   'P 1'
_cell_length_a   16.14547481
_cell_length_b   16.10921444
_cell_length_c   27.21485643
_cell_angle_alpha   90.17089419
_cell_angle_beta   89.84310062
_cell_angle_gamma   89.92240652
_symmetry_Int_Tables_number   1
_chemical_formula_structural   La9Ce10Pr6Nd4Sm3(BiS2)32
_chemical_formula_sum   'La18 Ce20 Pr12 Nd8 Sm6 Bi64 S128'
_cell_volume   7078.27234479
_cell_formula_units_Z   2
loop_
 _symmetry_equiv_pos_site_id
 _symmetry_equiv_pos_as_xyz
  1  'x, y, z'
loop_
 _atom_type_symbol
 _atom_type_oxidation_number
  La3+  3.0
  Ce3+  3.0
  Pr3+  3.0
  Nd3+  3.0
  Sm3+  3.0
  Bi2+  2.0
  S2-  -2.0
loop_
 _atom_site_type_symbol
 _atom_site_label
 _atom_site_symmetry_multiplicity
 _atom_site_fract_x
 _atom_site_fract_y
 _atom_site_fract_z
 _atom_site_occupancy
  La3+  La0  1  0.74350759  0.13862451  0.60784278  1
  La3+  La1  1  0.61487021  0.73248111  0.93526816  1
  La3+  La2  1  0.24742559  0.14006267  0.55334201  1
  La3+  La3  1  0.23699204  0.64579736  0.57726104  1
  La3+  La4  1  0.73672448  0.60483409  0.07580560  1
  La3+  La5  1  -0.00647275  0.89296962  0.56563777  1
  La3+  La6  1  0.35910757  0.73662688  0.89344902  1
  La3+  La7  1  0.49570787  0.89232974  0.56892061  1
  La3+  La8  1  0.36678526  0.26435000  0.41067104  1
  La3+  La9  1  -0.02242026  0.86557694  0.09010844  1
  La3+  La10  1  0.23768761  0.60892186  0.06555047  1
  La3+  La11  1  0.86622248  0.50231796  0.39789004  1
  La3+  La12  1  0.62284688  0.01919328  0.44445936  1
  La3+  La13  1  0.00406325  0.39285842  0.57280940  1
  La3+  La14  1  0.12280665  0.51987067  0.42258515  1
  La3+  La15  1  0.11166116  0.48292504  0.93640215  1
  La3+  La16  1  0.86683812  -0.02844696  0.91962020  1
  La3+  La17  1  0.86949551  0.77329250  0.41347721  1
  Ce3+  Ce18  1  0.85936761  0.23360918  0.93845739  1
  Ce3+  Ce19  1  0.24526040  0.88893857  0.55228059  1
  Ce3+  Ce20  1  -0.01599389  0.35693442  0.06354388  1
  Ce3+  Ce21  1  0.00042312  0.14118116  0.57340390  1
  Ce3+  Ce22  1  0.35809632  0.23500937  0.94101468  1
  Ce3+  Ce23  1  0.74748401  0.38822521  0.56892848  1
  Ce3+  Ce24  1  0.74928994  0.64469119  0.56041291  1
  Ce3+  Ce25  1  0.62598832  0.51494796  0.45054192  1
  Ce3+  Ce26  1  0.60834285  -0.02296540  0.92177830  1
  Ce3+  Ce27  1  0.73333218  0.10578004  0.04501171  1
  Ce3+  Ce28  1  0.48923783  0.85886871  0.05680228  1
  Ce3+  Ce29  1  0.36069590  -0.01888709  0.94234328  1
  Ce3+  Ce30  1  0.48403308  0.61014105  0.05388923  1
  Ce3+  Ce31  1  0.48914047  0.10970418  0.05336000  1
  Ce3+  Ce32  1  0.62619123  0.76147282  0.43955361  1
  Ce3+  Ce33  1  0.23435641  0.86015730  0.06097280  1
  Ce3+  Ce34  1  0.23755622  0.10438424  0.06793992  1
  Ce3+  Ce35  1  0.87027703  0.01525854  0.44620480  1
  Ce3+  Ce36  1  0.87252122  0.26676718  0.44991875  1
  Ce3+  Ce37  1  0.86368901  0.73387019  0.95382726  1
  Pr3+  Pr38  1  0.37686234  0.01710772  0.43000861  1
  Pr3+  Pr39  1  0.23915554  0.35254064  0.07443264  1
  Pr3+  Pr40  1  0.24803263  0.39085923  0.56071176  1
  Pr3+  Pr41  1  0.49465616  0.14407257  0.56770684  1
  Pr3+  Pr42  1  0.61003057  0.48939775  0.93514378  1
  Pr3+  Pr43  1  0.37543562  0.76494191  0.43528497  1
  Pr3+  Pr44  1  -0.00460522  0.64276275  0.54727730  1
  Pr3+  Pr45  1  0.11101972  -0.01744584  0.93986701  1
  Pr3+  Pr46  1  -0.01123285  0.60054862  0.07494758  1
  Pr3+  Pr47  1  0.48253890  0.36454304  0.07106091  1
  Pr3+  Pr48  1  0.60606645  0.23613689  0.93236407  1
  Pr3+  Pr49  1  0.11214909  0.73366111  0.94107997  1
  Nd3+  Nd50  1  0.49424208  0.64123385  0.56160262  1
  Nd3+  Nd51  1  0.11799778  0.01317663  0.43105173  1
  Nd3+  Nd52  1  0.49635664  0.39044972  0.55440575  1
  Nd3+  Nd53  1  -0.01966545  0.10785468  0.06198747  1
  Nd3+  Nd54  1  0.12767732  0.76543043  0.42435353  1
  Nd3+  Nd55  1  0.73345938  0.35903410  0.05926100  1
  Nd3+  Nd56  1  0.36744443  0.51654027  0.44041998  1
  Nd3+  Nd57  1  0.11634043  0.26831262  0.43533779  1
  Sm3+  Sm58  1  0.35324535  0.48493308  0.93227032  1
  Sm3+  Sm59  1  0.74701565  0.88609936  0.56796390  1
  Sm3+  Sm60  1  0.72696688  0.86475656  0.06575320  1
  Sm3+  Sm61  1  0.11101742  0.23199508  0.95339557  1
  Sm3+  Sm62  1  0.86464706  0.48483012  0.93688609  1
  Sm3+  Sm63  1  0.62451366  0.26777892  0.44477982  1
  Bi2+  Bi64  1  0.05675629  0.11274037  0.30687505  1
  Bi2+  Bi65  1  0.03898014  0.11765951  0.79470660  1
  Bi2+  Bi66  1  0.00765175  0.30749898  0.30941320  1
  Bi2+  Bi67  1  0.07912821  0.38489282  0.80410867  1
  Bi2+  Bi68  1  0.01113323  0.60240670  0.27520668  1
  Bi2+  Bi69  1  -0.00652572  0.64776025  0.80112489  1
  Bi2+  Bi70  1  -0.01467061  0.89917839  0.28377540  1
  Bi2+  Bi71  1  0.08302921  0.82948968  0.80945360  1
  Bi2+  Bi72  1  0.27817076  0.09451887  0.28276566  1
  Bi2+  Bi73  1  0.23157204  0.10502086  0.80816738  1
  Bi2+  Bi74  1  0.25865947  0.38195433  0.28143203  1
  Bi2+  Bi75  1  0.29924208  0.29756187  0.76014892  1
  Bi2+  Bi76  1  0.25470829  0.63268198  0.28716642  1
  Bi2+  Bi77  1  0.25352939  0.57517476  0.78511273  1
  Bi2+  Bi78  1  0.24506172  0.90539198  0.29677369  1
  Bi2+  Bi79  1  0.25030718  0.91784642  0.76879693  1
  Bi2+  Bi80  1  0.55317096  0.13569859  0.28688885  1
  Bi2+  Bi81  1  0.42500967  0.13741099  0.78195717  1
  Bi2+  Bi82  1  0.55084521  0.40916064  0.29364593  1
  Bi2+  Bi83  1  0.61664201  0.42692064  0.80665708  1
  Bi2+  Bi84  1  0.50635135  0.70661562  0.32675434  1
  Bi2+  Bi85  1  0.51621087  0.60678462  0.77934028  1
  Bi2+  Bi86  1  0.44078779  0.89139370  0.31937176  1
  Bi2+  Bi87  1  0.49803197  0.89709077  0.78691095  1
  Bi2+  Bi88  1  0.86483923  0.14945285  0.27519194  1
  Bi2+  Bi89  1  0.74226831  0.16559330  0.79211037  1
  Bi2+  Bi90  1  0.74438916  0.32029437  0.27775925  1
  Bi2+  Bi91  1  0.81249638  0.43176178  0.80040661  1
  Bi2+  Bi92  1  0.69241137  0.61355492  0.29051656  1
  Bi2+  Bi93  1  0.79403631  0.62888298  0.81624019  1
  Bi2+  Bi94  1  0.72539460  0.89881430  0.29227531  1
  Bi2+  Bi95  1  0.75851776  0.84692840  0.79082870  1
  Bi2+  Bi96  1  0.13155508  0.06338298  0.20435288  1
  Bi2+  Bi97  1  0.11663895  0.01039993  0.71045023  1
  Bi2+  Bi98  1  0.11307918  0.26568264  0.21149484  1
  Bi2+  Bi99  1  0.13840048  0.27317954  0.69663119  1
  Bi2+  Bi100  1  0.15448823  0.45560557  0.19881758  1
  Bi2+  Bi101  1  0.08717980  0.52429287  0.72115525  1
  Bi2+  Bi102  1  0.18591321  0.77613963  0.20208552  1
  Bi2+  Bi103  1  0.11729683  0.74683848  0.70411665  1
  Bi2+  Bi104  1  0.39248387  -0.02624576  0.21409140  1
  Bi2+  Bi105  1  0.38419502  -0.01478769  0.68684142  1
  Bi2+  Bi106  1  0.40749911  0.24602545  0.19565516  1
  Bi2+  Bi107  1  0.34820217  0.16956440  0.67399625  1
  Bi2+  Bi108  1  0.44157101  0.56438568  0.25509289  1
  Bi2+  Bi109  1  0.44610274  0.42707854  0.74733229  1
  Bi2+  Bi110  1  0.40820876  0.76794891  0.22542663  1
  Bi2+  Bi111  1  0.37771009  0.73676775  0.69000205  1
  Bi2+  Bi112  1  0.59586599  0.00347765  0.20893277  1
  Bi2+  Bi113  1  0.62989708  0.03638453  0.72945590  1
  Bi2+  Bi114  1  0.72174369  0.23770880  0.17790668  1
  Bi2+  Bi115  1  0.56914660  0.29395922  0.70373626  1
  Bi2+  Bi116  1  0.60079547  0.47610798  0.19317413  1
  Bi2+  Bi117  1  0.70082682  0.46977571  0.69622536  1
  Bi2+  Bi118  1  0.60585231  0.77209082  0.22121525  1
  Bi2+  Bi119  1  0.66505876  0.66179691  0.71141651  1
  Bi2+  Bi120  1  0.84391137  -0.00036600  0.20736919  1
  Bi2+  Bi121  1  0.86962562  -0.01224284  0.72068988  1
  Bi2+  Bi122  1  0.92476801  0.23425399  0.17223382  1
  Bi2+  Bi123  1  0.94611842  0.27883107  0.74536497  1
  Bi2+  Bi124  1  0.87414550  0.41053557  0.20859924  1
  Bi2+  Bi125  1  0.89252693  0.52085890  0.70718991  1
  Bi2+  Bi126  1  0.85423411  0.74145533  0.21767236  1
  Bi2+  Bi127  1  0.87396780  0.72421317  0.71580496  1
  S2-  S128  1  -0.00966017  0.02250701  0.14872764  1
  S2-  S129  1  -0.01860335  0.01648898  0.64474855  1
  S2-  S130  1  -0.00049055  0.45724330  0.14316181  1
  S2-  S131  1  -0.01357682  0.26799873  0.64657996  1
  S2-  S132  1  -0.04502777  0.64419503  0.17420503  1
  S2-  S133  1  0.08684303  0.63096136  0.63550022  1
  S2-  S134  1  0.03784429  0.83117712  0.18903673  1
  S2-  S135  1  -0.01550573  0.80805419  0.65669836  1
  S2-  S136  1  0.25808774  0.19007276  0.15177613  1
  S2-  S137  1  0.15839005  0.12772675  0.64092064  1
  S2-  S138  1  0.35701668  0.37542159  0.15026123  1
  S2-  S139  1  0.14690286  0.41414237  0.64181738  1
  S2-  S140  1  0.21428165  0.60496890  0.16683606  1
  S2-  S141  1  0.29574204  0.60217892  0.67791459  1
  S2-  S142  1  0.24051110  0.92195298  0.15277016  1
  S2-  S143  1  0.24266121  0.80527179  0.63822986  1
  S2-  S144  1  0.47500739  0.10102051  0.15232772  1
  S2-  S145  1  0.58323063  0.13401087  0.65751833  1
  S2-  S146  1  0.56108288  0.30833365  0.15718570  1
  S2-  S147  1  0.44812758  0.37464210  0.64939714  1
  S2-  S148  1  0.48056982  0.56476250  0.14840638  1
  S2-  S149  1  0.50795139  0.63702437  0.66099861  1
  S2-  S150  1  0.59452541  0.87522997  0.13545962  1
  S2-  S151  1  0.50346746  0.86685724  0.66990985  1
  S2-  S152  1  0.71746467  0.07146447  0.14162938  1
  S2-  S153  1  0.82859306  0.14078418  0.70103082  1
  S2-  S154  1  0.75366882  0.46219671  0.14123620  1
  S2-  S155  1  0.72564742  0.30767946  0.65529014  1
  S2-  S156  1  0.71622073  0.67251136  0.17226840  1
  S2-  S157  1  0.74679867  0.75338153  0.63897512  1
  S2-  S158  1  0.82591132  0.86532314  0.14874850  1
  S2-  S159  1  0.73634911  0.97126258  0.65748788  1
  S2-  S160  1  0.10200082  -0.10359145  0.35469706  1
  S2-  S161  1  0.01448489  -0.02392899  0.85549670  1
  S2-  S162  1  0.21315395  0.27739554  0.35069483  1
  S2-  S163  1  0.13009733  0.23724349  0.85542802  1
  S2-  S164  1  0.02165791  0.47048789  0.34114404  1
  S2-  S165  1  0.22335154  0.46539289  0.85609522  1
  S2-  S166  1  0.11348532  0.64959067  0.34483048  1
  S2-  S167  1  0.20028285  0.71181346  0.84990830  1
  S2-  S168  1  0.40607101  0.12127034  0.34846946  1
  S2-  S169  1  0.36121320  -0.09071353  0.85310604  1
  S2-  S170  1  0.41361713  0.33469789  0.31734421  1
  S2-  S171  1  0.39876075  0.26808202  0.84782385  1
  S2-  S172  1  0.27276290  0.50979172  0.35545200  1
  S2-  S173  1  0.38623967  0.57313008  0.84733189  1
  S2-  S174  1  0.27368030  0.75966136  0.35311049  1
  S2-  S175  1  0.42474374  0.74873909  0.79304736  1
  S2-  S176  1  0.62856623  0.00966093  0.34272125  1
  S2-  S177  1  0.56243818  0.04392274  0.83013459  1
  S2-  S178  1  0.62091699  0.24793639  0.34512097  1
  S2-  S179  1  0.62960143  0.25785531  0.83307001  1
  S2-  S180  1  0.67466441  0.49314171  0.35749536  1
  S2-  S181  1  0.63076120  0.61032595  0.85913195  1
  S2-  S182  1  0.71823942  0.76138618  0.35515073  1
  S2-  S183  1  0.61588275  0.84122154  0.85280747  1
  S2-  S184  1  0.86195045  -0.06067157  0.35677900  1
  S2-  S185  1  0.79621584  0.00356806  0.82503483  1
  S2-  S186  1  0.85521738  0.33571138  0.35875503  1
  S2-  S187  1  0.86805673  0.25052983  0.84158955  1
  S2-  S188  1  0.84358937  0.56145453  0.29979309  1
  S2-  S189  1  0.98489807  0.49200888  0.86250362  1
  S2-  S190  1  0.93639989  0.75037903  0.31440970  1
  S2-  S191  1  0.86019676  0.80657922  0.86423998  1
  S2-  S192  1  -0.00314006  0.13974105  0.45394976  1
  S2-  S193  1  -0.01518721  0.11097753  0.95470930  1
  S2-  S194  1  -0.00682387  0.39248917  0.45935821  1
  S2-  S195  1  -0.01457906  0.35332023  0.95722082  1
  S2-  S196  1  -0.01612455  0.63884349  0.44195926  1
  S2-  S197  1  -0.01212394  0.61037866  0.96432413  1
  S2-  S198  1  -0.00720232  0.89006901  0.45584175  1
  S2-  S199  1  -0.00964777  0.85646108  0.96475558  1
  S2-  S200  1  0.24423360  0.13652175  0.44565511  1
  S2-  S201  1  0.23564624  0.10799042  0.95884296  1
  S2-  S202  1  0.24931657  0.38689099  0.45524005  1
  S2-  S203  1  0.23598985  0.35401793  0.96303355  1
  S2-  S204  1  0.24981949  0.64295748  0.46019882  1
  S2-  S205  1  0.24031278  0.61284446  0.95782380  1
  S2-  S206  1  0.25180779  0.89631280  0.44931722  1
  S2-  S207  1  0.23710569  0.85630788  0.95430229  1
  S2-  S208  1  0.49790647  0.14721381  0.45807706  1
  S2-  S209  1  0.48348225  0.10834137  0.94641181  1
  S2-  S210  1  0.49564700  0.39025398  0.44715599  1
  S2-  S211  1  0.48375570  0.36546237  0.95321285  1
  S2-  S212  1  0.49795901  0.63627893  0.45487393  1
  S2-  S213  1  0.47717974  0.61379509  0.95104719  1
  S2-  S214  1  0.49916486  0.88967722  0.45615073  1
  S2-  S215  1  0.47911860  0.85138011  0.95271328  1
  S2-  S216  1  0.74759768  0.14405835  0.44306282  1
  S2-  S217  1  0.73322774  0.10726964  0.93977931  1
  S2-  S218  1  0.74818131  0.39156582  0.46272412  1
  S2-  S219  1  0.73652769  0.36335910  0.94938222  1
  S2-  S220  1  0.75342136  0.63400540  0.45438798  1
  S2-  S221  1  0.74354072  0.60489152  0.96273335  1
  S2-  S222  1  0.74391540  0.89039914  0.46136611  1
  S2-  S223  1  0.73619987  0.85952154  0.95953256  1
  S2-  S224  1  0.11017798  -0.01492656  0.04669813  1
  S2-  S225  1  0.12143758  0.01210369  0.53707243  1
  S2-  S226  1  0.11020591  0.23053638  0.05689995  1
  S2-  S227  1  0.12246982  0.26581940  0.53990655  1
  S2-  S228  1  0.11798139  0.47922868  0.04498104  1
  S2-  S229  1  0.12290017  0.51664200  0.53353440  1
  S2-  S230  1  0.10767262  0.73540896  0.05484745  1
  S2-  S231  1  0.11943331  0.76932369  0.53312713  1
  S2-  S232  1  0.36342740  -0.01661077  0.04821678  1
  S2-  S233  1  0.37357158  0.01477872  0.54096174  1
  S2-  S234  1  0.36493494  0.23283860  0.04529381  1
  S2-  S235  1  0.37216878  0.26652631  0.54045230  1
  S2-  S236  1  0.35873023  0.48339287  0.04088017  1
  S2-  S237  1  0.37078206  0.51736280  0.54781545  1
  S2-  S238  1  0.36212236  0.73752571  0.06375180  1
  S2-  S239  1  0.37413429  0.76570187  0.54347112  1
  S2-  S240  1  0.60783356  -0.01482497  0.03086769  1
  S2-  S241  1  0.62183954  0.01695076  0.55208395  1
  S2-  S242  1  0.61035608  0.23584668  0.03896457  1
  S2-  S243  1  0.62070619  0.26529624  0.54822325  1
  S2-  S244  1  0.60830076  0.48347977  0.04185298  1
  S2-  S245  1  0.62124997  0.51637926  0.55652294  1
  S2-  S246  1  0.61294716  0.73017462  0.04512531  1
  S2-  S247  1  0.61698942  0.76540554  0.54551126  1
  S2-  S248  1  0.85830091  -0.01515764  0.04001370  1
  S2-  S249  1  0.86005788  0.02076075  0.54980145  1
  S2-  S250  1  0.85624745  0.23372865  0.04389764  1
  S2-  S251  1  0.86441214  0.25838533  0.55319070  1
  S2-  S252  1  0.86452667  0.48091294  0.04020665  1
  S2-  S253  1  0.87196014  0.51597540  0.56421546  1
  S2-  S254  1  0.86065131  0.73141576  0.05700507  1
  S2-  S255  1  0.87035907  0.76764000  0.53863904  1
