# generated using pymatgen
data_La9Ce10Pr6Nd4Sm3(BiS2)32
_symmetry_space_group_name_H-M   'P 1'
_cell_length_a   16.16006263
_cell_length_b   16.10338369
_cell_length_c   27.40774810
_cell_angle_alpha   90.17336867
_cell_angle_beta   90.08633239
_cell_angle_gamma   89.92483244
_symmetry_Int_Tables_number   1
_chemical_formula_structural   La9Ce10Pr6Nd4Sm3(BiS2)32
_chemical_formula_sum   'La18 Ce20 Pr12 Nd8 Sm6 Bi64 S128'
_cell_volume   7132.31773735
_cell_formula_units_Z   2
loop_
 _symmetry_equiv_pos_site_id
 _symmetry_equiv_pos_as_xyz
  1  'x, y, z'
loop_
 _atom_type_symbol
 _atom_type_oxidation_number
  La3+  3.0
  Ce3+  3.0
  Pr3+  3.0
  Nd3+  3.0
  Sm3+  3.0
  Bi2+  2.0
  S2-  -2.0
loop_
 _atom_site_type_symbol
 _atom_site_label
 _atom_site_symmetry_multiplicity
 _atom_site_fract_x
 _atom_site_fract_y
 _atom_site_fract_z
 _atom_site_occupancy
  La3+  La0  1  0.51343966  0.60638767  0.57625966  1
  La3+  La1  1  0.12206706  -0.02283305  0.44631229  1
  La3+  La2  1  0.00173056  0.35854800  0.55682194  1
  La3+  La3  1  0.87044145  0.49251391  0.38609035  1
  La3+  La4  1  0.37670299  -0.02447638  0.43496264  1
  La3+  La5  1  0.61967881  0.22478603  0.42264414  1
  La3+  La6  1  0.88016688  0.02085822  0.91847445  1
  La3+  La7  1  0.25384694  0.10074466  0.57360633  1
  La3+  La8  1  0.00695783  0.60305902  0.57659517  1
  La3+  La9  1  0.00102407  0.10903339  0.59012627  1
  La3+  La10  1  0.75076760  0.11343166  0.56893600  1
  La3+  La11  1  -0.00036994  0.65009268  0.06620451  1
  La3+  La12  1  0.61794541  0.26515683  0.92366691  1
  La3+  La13  1  0.25580496  0.86835516  0.11979899  1
  La3+  La14  1  0.12021694  0.77418608  0.93974427  1
  La3+  La15  1  0.74841646  0.15039047  0.06345297  1
  La3+  La16  1  0.88464447  0.22037669  0.41534977  1
  La3+  La17  1  0.51151099  0.35838159  0.57205741  1
  Ce3+  Ce18  1  0.62419535  0.76950148  0.94129276  1
  Ce3+  Ce19  1  0.38216875  0.47655356  0.43861757  1
  Ce3+  Ce20  1  0.37764814  0.22116306  0.43784729  1
  Ce3+  Ce21  1  0.00279181  0.85312123  0.58035260  1
  Ce3+  Ce22  1  0.37157207  0.02190704  0.94512207  1
  Ce3+  Ce23  1  0.25752972  0.35418913  0.55412464  1
  Ce3+  Ce24  1  0.63134699  0.72553829  0.43928796  1
  Ce3+  Ce25  1  0.87070572  0.51966119  0.94504162  1
  Ce3+  Ce26  1  0.12385530  0.72474727  0.44658574  1
  Ce3+  Ce27  1  0.74674843  0.39499204  0.06470279  1
  Ce3+  Ce28  1  0.86177939  0.27140776  0.93016278  1
  Ce3+  Ce29  1  0.49352332  0.89700636  0.05583636  1
  Ce3+  Ce30  1  0.24813478  0.13741629  0.06783737  1
  Ce3+  Ce31  1  0.25358367  0.85364002  0.56301464  1
  Ce3+  Ce32  1  0.62914426  -0.01775527  0.44491121  1
  Ce3+  Ce33  1  -0.00402758  0.39417344  0.05655182  1
  Ce3+  Ce34  1  -0.00537171  0.89858672  0.06850898  1
  Ce3+  Ce35  1  0.74873138  0.90338675  0.06718999  1
  Ce3+  Ce36  1  0.62329860  0.01914343  0.94168447  1
  Ce3+  Ce37  1  0.25805961  0.60421543  0.55269077  1
  Pr3+  Pr38  1  0.88818752  0.72771259  0.43808369  1
  Pr3+  Pr39  1  0.24738390  0.39504199  0.06024597  1
  Pr3+  Pr40  1  0.36890010  0.26483303  0.91641226  1
  Pr3+  Pr41  1  0.62272710  0.52596995  0.92888930  1
  Pr3+  Pr42  1  0.38053283  0.73069764  0.43213060  1
  Pr3+  Pr43  1  0.49698193  0.40122507  0.05889991  1
  Pr3+  Pr44  1  0.12653480  0.47773209  0.43250002  1
  Pr3+  Pr45  1  0.87909262  -0.01733659  0.45106268  1
  Pr3+  Pr46  1  0.12064965  0.26825274  0.94495092  1
  Pr3+  Pr47  1  0.87082366  0.76982504  0.94310825  1
  Pr3+  Pr48  1  0.50040903  0.15553190  0.06603360  1
  Pr3+  Pr49  1  0.49314015  0.65041142  0.06345173  1
  Nd3+  Nd50  1  0.50377377  0.85331436  0.56153864  1
  Nd3+  Nd51  1  0.62144951  0.47804285  0.42937965  1
  Nd3+  Nd52  1  0.50605261  0.10987176  0.57195640  1
  Nd3+  Nd53  1  0.37449154  0.51971989  0.93021729  1
  Nd3+  Nd54  1  0.74217008  0.64265828  0.06948380  1
  Nd3+  Nd55  1  0.75363107  0.35618514  0.53950466  1
  Nd3+  Nd56  1  0.37350038  0.76708167  0.92864983  1
  Nd3+  Nd57  1  0.75761995  0.85577820  0.55855345  1
  Sm3+  Sm58  1  -0.00563795  0.14506713  0.05908474  1
  Sm3+  Sm59  1  0.12623008  0.22758700  0.44409793  1
  Sm3+  Sm60  1  0.12322255  0.02039601  0.94634900  1
  Sm3+  Sm61  1  0.12047391  0.51796282  0.94285360  1
  Sm3+  Sm62  1  0.75575601  0.60345075  0.55140830  1
  Sm3+  Sm63  1  0.24740457  0.64739245  0.05053818  1
  Bi2+  Bi64  1  0.01279629  0.06532227  0.30123516  1
  Bi2+  Bi65  1  0.01557035  0.13246368  0.78737646  1
  Bi2+  Bi66  1  0.08351292  0.32534684  0.28630092  1
  Bi2+  Bi67  1  0.00189010  0.34523260  0.78674653  1
  Bi2+  Bi68  1  -0.00797318  0.65724241  0.29837368  1
  Bi2+  Bi69  1  -0.02443192  0.61763514  0.81514409  1
  Bi2+  Bi70  1  -0.01314381  0.88683809  0.24921606  1
  Bi2+  Bi71  1  0.00230288  0.86302510  0.79566157  1
  Bi2+  Bi72  1  0.24720726  0.22751801  0.31217672  1
  Bi2+  Bi73  1  0.26381179  0.18776146  0.79384383  1
  Bi2+  Bi74  1  0.25836299  0.43085284  0.32505502  1
  Bi2+  Bi75  1  0.26166132  0.38479625  0.76493338  1
  Bi2+  Bi76  1  0.23998510  0.62461689  0.30102753  1
  Bi2+  Bi77  1  0.25266894  0.71223590  0.78969017  1
  Bi2+  Bi78  1  0.20818941  0.82531193  0.32061438  1
  Bi2+  Bi79  1  0.28949435  0.91783384  0.78059029  1
  Bi2+  Bi80  1  0.49369017  0.12997395  0.29831474  1
  Bi2+  Bi81  1  0.49351366  0.11757501  0.78408208  1
  Bi2+  Bi82  1  0.46431171  0.38705525  0.27949961  1
  Bi2+  Bi83  1  0.46646445  0.37629341  0.78019975  1
  Bi2+  Bi84  1  0.43728704  0.63913434  0.31086990  1
  Bi2+  Bi85  1  0.51760561  0.61653269  0.79741227  1
  Bi2+  Bi86  1  0.51227810  0.88196914  0.29191578  1
  Bi2+  Bi87  1  0.47215348  0.84937223  0.81024776  1
  Bi2+  Bi88  1  0.74903482  0.12701686  0.29690844  1
  Bi2+  Bi89  1  0.74902246  0.13682623  0.80066185  1
  Bi2+  Bi90  1  0.74092252  0.37124460  0.26869399  1
  Bi2+  Bi91  1  0.80950299  0.39750456  0.78300428  1
  Bi2+  Bi92  1  0.65588426  0.60491913  0.27132779  1
  Bi2+  Bi93  1  0.75760537  0.62185078  0.73124356  1
  Bi2+  Bi94  1  0.70953779  0.87378782  0.27632189  1
  Bi2+  Bi95  1  0.66787744  0.87539413  0.81539268  1
  Bi2+  Bi96  1  0.13214149  0.02419762  0.21866402  1
  Bi2+  Bi97  1  0.12331302  -0.00400061  0.73365160  1
  Bi2+  Bi98  1  0.18348330  0.27860919  0.19271792  1
  Bi2+  Bi99  1  0.11606438  0.32071246  0.68991662  1
  Bi2+  Bi100  1  0.15109090  0.47891131  0.22996225  1
  Bi2+  Bi101  1  0.16206276  0.55817274  0.74527320  1
  Bi2+  Bi102  1  0.13864321  0.72984629  0.20771793  1
  Bi2+  Bi103  1  0.18668036  0.82084179  0.69269470  1
  Bi2+  Bi104  1  0.32088499  0.06920732  0.25576995  1
  Bi2+  Bi105  1  0.40790363  0.01699596  0.69552016  1
  Bi2+  Bi106  1  0.36861486  0.25061750  0.21788944  1
  Bi2+  Bi107  1  0.32771801  0.19832043  0.69225241  1
  Bi2+  Bi108  1  0.37387804  0.53226514  0.21803489  1
  Bi2+  Bi109  1  0.34249061  0.53028610  0.69892590  1
  Bi2+  Bi110  1  0.46708667  0.74493653  0.21433490  1
  Bi2+  Bi111  1  0.37714016  0.77483498  0.70619389  1
  Bi2+  Bi112  1  0.59932376  -0.03529826  0.20108236  1
  Bi2+  Bi113  1  0.59084094  -0.02892171  0.72432779  1
  Bi2+  Bi114  1  0.62535023  0.20148943  0.19140116  1
  Bi2+  Bi115  1  0.61918371  0.23370138  0.70301451  1
  Bi2+  Bi116  1  0.59141215  0.46456892  0.20294360  1
  Bi2+  Bi117  1  0.63813037  0.47122960  0.70138572  1
  Bi2+  Bi118  1  0.65478428  0.72939796  0.18256735  1
  Bi2+  Bi119  1  0.60162502  0.76009489  0.73135795  1
  Bi2+  Bi120  1  0.85301789  0.01400451  0.20854637  1
  Bi2+  Bi121  1  0.86301389  -0.02138684  0.71622482  1
  Bi2+  Bi122  1  0.89965082  0.25388889  0.20633467  1
  Bi2+  Bi123  1  0.87419500  0.24357678  0.72072567  1
  Bi2+  Bi124  1  0.88400136  0.51529518  0.19156700  1
  Bi2+  Bi125  1  0.92452284  0.51471321  0.71693256  1
  Bi2+  Bi126  1  0.83855149  0.76563672  0.21700889  1
  Bi2+  Bi127  1  0.87861644  0.77337288  0.71601829  1
  S2-  S128  1  -0.03811470  0.13170276  0.15701338  1
  S2-  S129  1  -0.01670207  0.26030370  0.64220461  1
  S2-  S130  1  -0.02384310  0.38367845  0.15370079  1
  S2-  S131  1  0.02928288  0.46905466  0.64363094  1
  S2-  S132  1  -0.00676524  0.64146310  0.16666713  1
  S2-  S133  1  -0.00120138  0.72895534  0.65102849  1
  S2-  S134  1  0.08417609  0.88854172  0.15428209  1
  S2-  S135  1  0.00663406  0.97022913  0.65883911  1
  S2-  S136  1  0.25486557  0.04185538  0.15197221  1
  S2-  S137  1  0.17045270  0.15860710  0.65907974  1
  S2-  S138  1  0.26169532  0.43473437  0.15776199  1
  S2-  S139  1  0.27459579  0.38075147  0.65014986  1
  S2-  S140  1  0.25775648  0.69118414  0.14431523  1
  S2-  S141  1  0.22162948  0.61091603  0.64881665  1
  S2-  S142  1  0.25215629  0.84489672  0.23004687  1
  S2-  S143  1  0.26547317  0.95529862  0.64223133  1
  S2-  S144  1  0.50680567  0.08903933  0.16204735  1
  S2-  S145  1  0.63147628  0.09872264  0.64833084  1
  S2-  S146  1  0.52939418  0.29460398  0.14059184  1
  S2-  S147  1  0.48602192  0.24040841  0.64697277  1
  S2-  S148  1  0.48038617  0.52893130  0.13657404  1
  S2-  S149  1  0.49297783  0.48199559  0.65092074  1
  S2-  S150  1  0.42822003  0.86352049  0.14386516  1
  S2-  S151  1  0.50299610  0.74708448  0.64180019  1
  S2-  S152  1  0.72972796  0.03434696  0.14217139  1
  S2-  S153  1  0.84772684  0.10585417  0.65604615  1
  S2-  S154  1  0.76180182  0.27387893  0.14298995  1
  S2-  S155  1  0.69285007  0.34867949  0.63621153  1
  S2-  S156  1  0.73257126  0.51319650  0.13945688  1
  S2-  S157  1  0.67515491  0.60036343  0.63863915  1
  S2-  S158  1  0.86815419  0.88234082  0.14064718  1
  S2-  S159  1  0.76704294  0.86615873  0.65837364  1
  S2-  S160  1  0.15247565  -0.01897835  0.34726605  1
  S2-  S161  1  0.04176704  -0.00056613  0.85999574  1
  S2-  S162  1  0.04297442  0.20489928  0.35844729  1
  S2-  S163  1  0.12065585  0.24000371  0.84557604  1
  S2-  S164  1  0.03561899  0.52989110  0.35250901  1
  S2-  S165  1  0.10599778  0.52099142  0.84529766  1
  S2-  S166  1  0.03462686  0.76913798  0.36697920  1
  S2-  S167  1  0.10427050  0.75472535  0.84018438  1
  S2-  S168  1  0.36160120  0.09173544  0.36007050  1
  S2-  S169  1  0.36084982  0.10637639  0.86004707  1
  S2-  S170  1  0.47334982  0.25966215  0.35926431  1
  S2-  S171  1  0.49941599  0.26422277  0.84490261  1
  S2-  S172  1  0.48782362  0.48823932  0.36099177  1
  S2-  S173  1  0.34818762  0.40784160  0.85389712  1
  S2-  S174  1  0.37499634  0.85448885  0.35608030  1
  S2-  S175  1  0.37649714  0.64214012  0.85511787  1
  S2-  S176  1  0.62084094  0.06462739  0.35947285  1
  S2-  S177  1  0.61763062  0.09968737  0.85498767  1
  S2-  S178  1  0.65842638  0.26410413  0.32065546  1
  S2-  S179  1  0.73863918  0.28922942  0.85166859  1
  S2-  S180  1  0.70705873  0.48815763  0.34077643  1
  S2-  S181  1  0.57483038  0.46901675  0.83341390  1
  S2-  S182  1  0.59365635  0.70710519  0.34492797  1
  S2-  S183  1  0.63330309  0.66911346  0.86193682  1
  S2-  S184  1  0.87204623  0.05483446  0.35933237  1
  S2-  S185  1  0.80554444  -0.02356870  0.82528524  1
  S2-  S186  1  0.85363247  0.25556925  0.31055157  1
  S2-  S187  1  0.89419123  0.16396179  0.85475093  1
  S2-  S188  1  0.88687538  0.46298884  0.27932512  1
  S2-  S189  1  0.83931076  0.53585806  0.85017297  1
  S2-  S190  1  0.85271585  0.66006925  0.34578958  1
  S2-  S191  1  0.88525359  0.76616285  0.84263845  1
  S2-  S192  1  0.00400375  0.10516288  0.46450699  1
  S2-  S193  1  -0.00088149  0.14422274  0.95704970  1
  S2-  S194  1  -0.00077948  0.35638234  0.44592955  1
  S2-  S195  1  -0.00400941  0.39414453  0.94926202  1
  S2-  S196  1  0.00170345  0.60143542  0.46498767  1
  S2-  S197  1  -0.00134393  0.64332878  0.95743762  1
  S2-  S198  1  -0.00038603  0.85585157  0.47202217  1
  S2-  S199  1  -0.00540792  0.89529617  0.96072137  1
  S2-  S200  1  0.24596053  0.10260130  0.46269359  1
  S2-  S201  1  0.24440890  0.14507169  0.96065366  1
  S2-  S202  1  0.25406710  0.34953473  0.44884117  1
  S2-  S203  1  0.24309321  0.39495171  0.95466963  1
  S2-  S204  1  0.25527347  0.60515305  0.44611312  1
  S2-  S205  1  0.24141274  0.64285965  0.94781141  1
  S2-  S206  1  0.24943388  0.84998935  0.45887937  1
  S2-  S207  1  0.24765904  0.89715574  0.93608970  1
  S2-  S208  1  0.50166328  0.09903607  0.46360726  1
  S2-  S209  1  0.49341623  0.14583331  0.95879563  1
  S2-  S210  1  0.50152940  0.35504998  0.46207779  1
  S2-  S211  1  0.49301006  0.39497100  0.95288799  1
  S2-  S212  1  0.50368563  0.60994738  0.46113082  1
  S2-  S213  1  0.49644406  0.64836404  0.95803816  1
  S2-  S214  1  0.50924071  0.85243157  0.45589719  1
  S2-  S215  1  0.49633093  0.89347060  0.94913278  1
  S2-  S216  1  0.75177602  0.10657384  0.45873116  1
  S2-  S217  1  0.74987086  0.13987883  0.95501131  1
  S2-  S218  1  0.75686446  0.35381524  0.43587396  1
  S2-  S219  1  0.74370399  0.40171478  0.95629646  1
  S2-  S220  1  0.75667090  0.60013983  0.44983860  1
  S2-  S221  1  0.74968048  0.64570593  0.96372377  1
  S2-  S222  1  0.75634968  0.85359743  0.44991902  1
  S2-  S223  1  0.74884932  0.89654724  0.95626211  1
  S2-  S224  1  0.11757847  0.02348048  0.04820118  1
  S2-  S225  1  0.12482967  -0.02085796  0.55306351  1
  S2-  S226  1  0.12127188  0.26727213  0.05186928  1
  S2-  S227  1  0.12998376  0.23197299  0.54540932  1
  S2-  S228  1  0.12281301  0.52189344  0.04913960  1
  S2-  S229  1  0.13667666  0.47977891  0.53843440  1
  S2-  S230  1  0.12644133  0.77423428  0.04727037  1
  S2-  S231  1  0.13132896  0.72968750  0.54948345  1
  S2-  S232  1  0.37617139  0.02318333  0.04771484  1
  S2-  S233  1  0.38491537  -0.02099814  0.54440435  1
  S2-  S234  1  0.36692435  0.27005767  0.05133927  1
  S2-  S235  1  0.37668368  0.22709037  0.54483115  1
  S2-  S236  1  0.36637735  0.52456822  0.03736325  1
  S2-  S237  1  0.38069638  0.48147025  0.54346356  1
  S2-  S238  1  0.36721514  0.77142569  0.03561109  1
  S2-  S239  1  0.37779651  0.73114820  0.54162090  1
  S2-  S240  1  0.61681540  0.02129550  0.04371190  1
  S2-  S241  1  0.62842687  -0.02359553  0.54941662  1
  S2-  S242  1  0.62527155  0.27466572  0.03411693  1
  S2-  S243  1  0.62622775  0.23072086  0.53585133  1
  S2-  S244  1  0.61861045  0.52581663  0.03753376  1
  S2-  S245  1  0.63035705  0.48311638  0.53538413  1
  S2-  S246  1  0.62307438  0.77236277  0.04784851  1
  S2-  S247  1  0.63464677  0.73380750  0.54293262  1
  S2-  S248  1  0.87445376  0.02372604  0.04163948  1
  S2-  S249  1  0.87814091  -0.01775500  0.55441436  1
  S2-  S250  1  0.87672030  0.27188181  0.03783222  1
  S2-  S251  1  0.87495202  0.23204782  0.53827464  1
  S2-  S252  1  0.87536798  0.52182270  0.04879016  1
  S2-  S253  1  0.87186993  0.48180728  0.55584761  1
  S2-  S254  1  0.86830612  0.76503064  0.04837173  1
  S2-  S255  1  0.87537149  0.72800199  0.54733703  1
