# generated using pymatgen
data_La9Ce10Pr6Nd4Sm3(BiS2)32
_symmetry_space_group_name_H-M   'P 1'
_cell_length_a   16.20465502
_cell_length_b   16.20954631
_cell_length_c   27.14669094
_cell_angle_alpha   89.89860316
_cell_angle_beta   89.94729420
_cell_angle_gamma   89.92408008
_symmetry_Int_Tables_number   1
_chemical_formula_structural   La9Ce10Pr6Nd4Sm3(BiS2)32
_chemical_formula_sum   'La18 Ce20 Pr12 Nd8 Sm6 Bi64 S128'
_cell_volume   7130.60375988
_cell_formula_units_Z   2
loop_
 _symmetry_equiv_pos_site_id
 _symmetry_equiv_pos_as_xyz
  1  'x, y, z'
loop_
 _atom_type_symbol
 _atom_type_oxidation_number
  La3+  3.0
  Ce3+  3.0
  Pr3+  3.0
  Nd3+  3.0
  Sm3+  3.0
  Bi2+  2.0
  S2-  -2.0
loop_
 _atom_site_type_symbol
 _atom_site_label
 _atom_site_symmetry_multiplicity
 _atom_site_fract_x
 _atom_site_fract_y
 _atom_site_fract_z
 _atom_site_occupancy
  La3+  La0  1  0.01233471  0.11102947  0.56515436  1
  La3+  La1  1  0.73866000  0.37446184  0.07484318  1
  La3+  La2  1  0.11144127  -0.00800534  0.93412864  1
  La3+  La3  1  0.12852746  0.24270687  0.42961515  1
  La3+  La4  1  0.37545002  0.48726225  0.91198985  1
  La3+  La5  1  0.22855191  0.12450352  0.07208294  1
  La3+  La6  1  0.13508747  -0.00738149  0.41591145  1
  La3+  La7  1  0.75091267  0.35457975  0.57560426  1
  La3+  La8  1  0.62939058  -0.00445622  0.41965389  1
  La3+  La9  1  0.48062273  0.62109071  0.07554857  1
  La3+  La10  1  0.00670000  0.35746158  0.57279934  1
  La3+  La11  1  0.01259978  0.86643379  0.56409221  1
  La3+  La12  1  0.49511179  0.11868192  0.08429034  1
  La3+  La13  1  0.49717457  0.61552292  0.60218223  1
  La3+  La14  1  0.38344284  0.74065594  0.38849166  1
  La3+  La15  1  0.23471240  0.61679707  0.07219697  1
  La3+  La16  1  0.60520067  0.00542096  0.92863698  1
  La3+  La17  1  0.10497569  0.24147079  0.91812302  1
  Ce3+  Ce18  1  0.00466954  0.61752776  0.56466151  1
  Ce3+  Ce19  1  0.75029150  0.61720271  0.56351078  1
  Ce3+  Ce20  1  0.11482296  0.49514080  0.93620536  1
  Ce3+  Ce21  1  0.87884629  0.23526225  0.44556827  1
  Ce3+  Ce22  1  0.73401964  0.87249632  0.05836932  1
  Ce3+  Ce23  1  0.87958015  -0.01266109  0.44192142  1
  Ce3+  Ce24  1  0.86388345  0.49531126  0.94688536  1
  Ce3+  Ce25  1  0.24801777  0.61659218  0.55811788  1
  Ce3+  Ce26  1  0.87753430  0.48479423  0.45574181  1
  Ce3+  Ce27  1  0.86285085  0.24312964  0.94540133  1
  Ce3+  Ce28  1  0.36742615  -0.00272368  0.95395945  1
  Ce3+  Ce29  1  -0.01227581  0.11834384  0.06575536  1
  Ce3+  Ce30  1  0.61398273  0.49670394  0.94854220  1
  Ce3+  Ce31  1  0.62755205  0.73389185  0.43334141  1
  Ce3+  Ce32  1  0.25618393  0.11094781  0.55218262  1
  Ce3+  Ce33  1  0.61399649  0.24437194  0.95137013  1
  Ce3+  Ce34  1  0.23380549  0.87040684  0.06835534  1
  Ce3+  Ce35  1  0.74847460  0.86573331  0.55813674  1
  Ce3+  Ce36  1  0.36581453  0.24635736  0.94906360  1
  Ce3+  Ce37  1  0.38155971  0.24105914  0.44034253  1
  Pr3+  Pr38  1  0.23714042  0.37067758  0.05197806  1
  Pr3+  Pr39  1  0.86096334  0.74517728  0.94223913  1
  Pr3+  Pr40  1  0.48000612  0.86969482  0.07580445  1
  Pr3+  Pr41  1  0.36697710  0.74454894  0.94090179  1
  Pr3+  Pr42  1  0.87979292  0.73853385  0.43858891  1
  Pr3+  Pr43  1  0.12464143  0.73042209  0.42138636  1
  Pr3+  Pr44  1  -0.00558595  0.36751207  0.06380203  1
  Pr3+  Pr45  1  0.73675829  0.62386351  0.08039968  1
  Pr3+  Pr46  1  0.25701356  0.36747096  0.55536545  1
  Pr3+  Pr47  1  0.48493543  0.37395992  0.06877455  1
  Pr3+  Pr48  1  0.11567373  0.74506037  0.93427606  1
  Pr3+  Pr49  1  0.74326241  0.12535009  0.07585305  1
  Nd3+  Nd50  1  0.63241442  0.48537922  0.43816914  1
  Nd3+  Nd51  1  0.50374220  0.36781331  0.56036559  1
  Nd3+  Nd52  1  0.61072470  0.74579447  0.94650235  1
  Nd3+  Nd53  1  0.50152704  0.86012556  0.54825763  1
  Nd3+  Nd54  1  0.12744046  0.48906260  0.43826687  1
  Nd3+  Nd55  1  -0.00822524  0.62142977  0.06334224  1
  Nd3+  Nd56  1  0.38263401  -0.00980177  0.42408190  1
  Nd3+  Nd57  1  0.38213253  0.49553865  0.43234085  1
  Sm3+  Sm58  1  0.50247060  0.10950768  0.55256484  1
  Sm3+  Sm59  1  0.86170970  -0.00558101  0.94835844  1
  Sm3+  Sm60  1  0.25940811  0.85748850  0.54234633  1
  Sm3+  Sm61  1  -0.00836212  0.86928548  0.06754984  1
  Sm3+  Sm62  1  0.63274381  0.24377475  0.43653913  1
  Sm3+  Sm63  1  0.74886061  0.10450444  0.56367383  1
  Bi2+  Bi64  1  0.00801986  0.05797179  0.28117476  1
  Bi2+  Bi65  1  -0.01892051  0.12816398  0.79276421  1
  Bi2+  Bi66  1  -0.04671517  0.36900726  0.29593122  1
  Bi2+  Bi67  1  -0.00313750  0.40248961  0.81007221  1
  Bi2+  Bi68  1  -0.01259134  0.60304659  0.29202356  1
  Bi2+  Bi69  1  -0.00491040  0.67982058  0.79827272  1
  Bi2+  Bi70  1  -0.07454257  0.82487885  0.26676862  1
  Bi2+  Bi71  1  -0.00417582  0.93536701  0.80727634  1
  Bi2+  Bi72  1  0.25063430  0.13343720  0.28789718  1
  Bi2+  Bi73  1  0.30051344  0.12210132  0.76674902  1
  Bi2+  Bi74  1  0.14341731  0.37629242  0.32015571  1
  Bi2+  Bi75  1  0.27648633  0.37858272  0.78786460  1
  Bi2+  Bi76  1  0.24050279  0.60440960  0.27905261  1
  Bi2+  Bi77  1  0.17939462  0.73476199  0.78191779  1
  Bi2+  Bi78  1  0.21846059  0.87809836  0.27612636  1
  Bi2+  Bi79  1  0.25081423  0.91497353  0.74470721  1
  Bi2+  Bi80  1  0.51648969  0.12487134  0.28146754  1
  Bi2+  Bi81  1  0.48512613  0.13374135  0.80855829  1
  Bi2+  Bi82  1  0.47102514  0.45242749  0.30491592  1
  Bi2+  Bi83  1  0.53526841  0.35368554  0.79924905  1
  Bi2+  Bi84  1  0.62986364  0.58182056  0.31624690  1
  Bi2+  Bi85  1  0.47750631  0.63702549  0.80189924  1
  Bi2+  Bi86  1  0.56708734  0.87666562  0.28228210  1
  Bi2+  Bi87  1  0.51311335  0.86199888  0.80620655  1
  Bi2+  Bi88  1  0.76829022  0.15198886  0.28765688  1
  Bi2+  Bi89  1  0.75737099  0.16111785  0.74850044  1
  Bi2+  Bi90  1  0.75105838  0.42734170  0.29628231  1
  Bi2+  Bi91  1  0.75976032  0.39131832  0.78209994  1
  Bi2+  Bi92  1  0.77890115  0.71014448  0.32197182  1
  Bi2+  Bi93  1  0.72668246  0.66155491  0.73980943  1
  Bi2+  Bi94  1  0.75272336  0.90610424  0.31745681  1
  Bi2+  Bi95  1  0.77583447  0.87750344  0.78333996  1
  Bi2+  Bi96  1  0.11579949  0.01933989  0.18978375  1
  Bi2+  Bi97  1  0.13179485  0.05490304  0.71296216  1
  Bi2+  Bi98  1  0.07119363  0.27557401  0.22110730  1
  Bi2+  Bi99  1  0.11900198  0.29720997  0.69798852  1
  Bi2+  Bi100  1  0.11843582  0.47412374  0.20716420  1
  Bi2+  Bi101  1  0.11428223  0.56600484  0.73328213  1
  Bi2+  Bi102  1  0.07494556  0.73925048  0.21435972  1
  Bi2+  Bi103  1  0.07444295  0.77162866  0.68429991  1
  Bi2+  Bi104  1  0.39620175  -0.00055788  0.20354016  1
  Bi2+  Bi105  1  0.40690973  0.00707395  0.69784457  1
  Bi2+  Bi106  1  0.31989503  0.33076632  0.28226956  1
  Bi2+  Bi107  1  0.39474148  0.27271939  0.71605378  1
  Bi2+  Bi108  1  0.36127593  0.47420559  0.20659275  1
  Bi2+  Bi109  1  0.36267111  0.48492976  0.71087147  1
  Bi2+  Bi110  1  0.42739080  0.75168154  0.20627559  1
  Bi2+  Bi111  1  0.35101391  0.76485982  0.69040867  1
  Bi2+  Bi112  1  0.73152977  -0.00027092  0.21467375  1
  Bi2+  Bi113  1  0.64043501  0.01277800  0.72300656  1
  Bi2+  Bi114  1  0.62742004  0.23444457  0.21428457  1
  Bi2+  Bi115  1  0.58447859  0.23128374  0.71263083  1
  Bi2+  Bi116  1  0.58863469  0.49420963  0.21242710  1
  Bi2+  Bi117  1  0.61847030  0.48129130  0.72522341  1
  Bi2+  Bi118  1  0.70553920  0.71145126  0.21442364  1
  Bi2+  Bi119  1  0.67992996  0.83033658  0.68658760  1
  Bi2+  Bi120  1  0.92289169  -0.01410550  0.17750672  1
  Bi2+  Bi121  1  0.91888288  -0.09794679  0.70409816  1
  Bi2+  Bi122  1  0.88817337  0.17341402  0.19585655  1
  Bi2+  Bi123  1  0.86978461  0.29828883  0.70323387  1
  Bi2+  Bi124  1  0.84841036  0.56124560  0.21645946  1
  Bi2+  Bi125  1  0.89028372  0.55976151  0.73211831  1
  Bi2+  Bi126  1  0.89315497  0.72771831  0.16345975  1
  Bi2+  Bi127  1  0.88002214  0.71744704  0.66288313  1
  S2-  S128  1  0.09029225  0.17451669  0.13838095  1
  S2-  S129  1  0.00119795  0.21775727  0.64774423  1
  S2-  S130  1  -0.01556202  0.39742308  0.16403213  1
  S2-  S131  1  0.01917907  0.41527917  0.67125147  1
  S2-  S132  1  0.10377681  0.61232579  0.14272587  1
  S2-  S133  1  0.12026054  0.61862237  0.63780053  1
  S2-  S134  1  0.11216443  0.85934897  0.14091497  1
  S2-  S135  1  0.02215269  0.98965460  0.63969672  1
  S2-  S136  1  0.26716143  0.09207579  0.17366727  1
  S2-  S137  1  0.21493107  0.14336183  0.64556016  1
  S2-  S138  1  0.24106056  0.38722602  0.15336658  1
  S2-  S139  1  0.24304551  0.38950201  0.65597989  1
  S2-  S140  1  0.34835287  0.61922315  0.15308770  1
  S2-  S141  1  0.33194653  0.60997056  0.64536045  1
  S2-  S142  1  0.33451326  0.85804030  0.15034730  1
  S2-  S143  1  0.21664795  0.85524720  0.63971253  1
  S2-  S144  1  0.45370203  0.15064439  0.18523019  1
  S2-  S145  1  0.53015073  0.09482389  0.65011522  1
  S2-  S146  1  0.54044918  0.35530760  0.16504795  1
  S2-  S147  1  0.49637580  0.45444672  0.64801846  1
  S2-  S148  1  0.56465199  0.65511796  0.16376117  1
  S2-  S149  1  0.48662317  0.68278322  0.70522571  1
  S2-  S150  1  0.52505071  0.88898178  0.17571005  1
  S2-  S151  1  0.46679011  0.87403476  0.64750253  1
  S2-  S152  1  0.63481990  0.09320977  0.15173445  1
  S2-  S153  1  0.75850815  0.20814183  0.64327520  1
  S2-  S154  1  0.76293423  0.26479994  0.15372061  1
  S2-  S155  1  0.75157526  0.41685141  0.67245155  1
  S2-  S156  1  0.73652940  0.49466816  0.15162317  1
  S2-  S157  1  0.66122425  0.61367455  0.64747784  1
  S2-  S158  1  0.73731030  0.84973810  0.15542856  1
  S2-  S159  1  0.73359826  0.97540266  0.63541598  1
  S2-  S160  1  0.08545364  -0.07976190  0.32512890  1
  S2-  S161  1  0.10870594  0.10127185  0.85393522  1
  S2-  S162  1  0.11866539  0.14279242  0.34621126  1
  S2-  S163  1  0.13665253  0.31050269  0.82219615  1
  S2-  S164  1  0.12396996  0.57929196  0.35243483  1
  S2-  S165  1  0.09749261  0.52307814  0.83925969  1
  S2-  S166  1  0.22664358  0.74844516  0.33739290  1
  S2-  S167  1  0.12082082  0.86335764  0.85950336  1
  S2-  S168  1  0.27522082  0.00045997  0.34185351  1
  S2-  S169  1  0.44658938  -0.00734687  0.86579763  1
  S2-  S170  1  0.38845862  0.19940436  0.34392005  1
  S2-  S171  1  0.38679006  0.32244463  0.86073927  1
  S2-  S172  1  0.36332813  0.58097007  0.34137812  1
  S2-  S173  1  0.33581244  0.54178591  0.81586863  1
  S2-  S174  1  0.38901154  0.82687727  0.29001217  1
  S2-  S175  1  0.38542671  0.76517234  0.83996862  1
  S2-  S176  1  0.50254627  -0.01093858  0.34536050  1
  S2-  S177  1  0.64903261  -0.05388149  0.83520172  1
  S2-  S178  1  0.63926411  0.14384643  0.35485475  1
  S2-  S179  1  0.61701489  0.16055600  0.86593925  1
  S2-  S180  1  0.64960706  0.36440302  0.36206261  1
  S2-  S181  1  0.53685282  0.49937335  0.86020716  1
  S2-  S182  1  0.54894737  0.73731042  0.34356155  1
  S2-  S183  1  0.60067971  0.73298538  0.84602025  1
  S2-  S184  1  0.87196811  0.02699728  0.34570353  1
  S2-  S185  1  0.86850360  0.03088455  0.85175293  1
  S2-  S186  1  0.87367920  0.25130798  0.34782521  1
  S2-  S187  1  0.93947210  0.25484031  0.85731937  1
  S2-  S188  1  0.88289151  0.49712722  0.35722382  1
  S2-  S189  1  0.85525265  0.49250206  0.84800145  1
  S2-  S190  1  0.98214191  0.73708772  0.35572374  1
  S2-  S191  1  0.87545494  0.77239619  0.84335129  1
  S2-  S192  1  0.00490352  0.11254655  0.45378286  1
  S2-  S193  1  -0.01716834  0.11672020  0.96024464  1
  S2-  S194  1  0.00309303  0.36275194  0.45807867  1
  S2-  S195  1  -0.01169928  0.37422793  0.95560239  1
  S2-  S196  1  -0.00060375  0.60912643  0.46012131  1
  S2-  S197  1  -0.01132995  0.62215257  0.95401811  1
  S2-  S198  1  0.00555725  0.86771163  0.45289828  1
  S2-  S199  1  -0.01612906  0.86881081  0.96126131  1
  S2-  S200  1  0.25834097  0.11828119  0.44845045  1
  S2-  S201  1  0.24320808  0.12091862  0.95611771  1
  S2-  S202  1  0.25797495  0.36736594  0.44701291  1
  S2-  S203  1  0.23905538  0.37237056  0.94587163  1
  S2-  S204  1  0.25544100  0.61313613  0.45120382  1
  S2-  S205  1  0.24196698  0.61815134  0.94622995  1
  S2-  S206  1  0.26184405  0.86020924  0.43957645  1
  S2-  S207  1  0.24430245  0.87105867  0.95924845  1
  S2-  S208  1  0.50387008  0.11828143  0.45042608  1
  S2-  S209  1  0.48642832  0.12559482  0.97133427  1
  S2-  S210  1  0.50334457  0.36404355  0.45407132  1
  S2-  S211  1  0.49283153  0.36996970  0.96328331  1
  S2-  S212  1  0.50834788  0.61005402  0.44312027  1
  S2-  S213  1  0.48846600  0.61971194  0.96106265  1
  S2-  S214  1  0.50108516  0.85899584  0.44333156  1
  S2-  S215  1  0.48924659  0.86879841  0.96547338  1
  S2-  S216  1  0.75423701  0.11380662  0.45826923  1
  S2-  S217  1  0.74180602  0.11884911  0.96615305  1
  S2-  S218  1  0.75723681  0.35939311  0.46611626  1
  S2-  S219  1  0.73889424  0.37043832  0.95927789  1
  S2-  S220  1  0.75491639  0.61157711  0.45606965  1
  S2-  S221  1  0.73764423  0.62104259  0.96163938  1
  S2-  S222  1  0.75108300  0.86423112  0.45109786  1
  S2-  S223  1  0.73647135  0.87214568  0.95137324  1
  S2-  S224  1  0.10947602  -0.00427631  0.04415369  1
  S2-  S225  1  0.13995623  -0.01402803  0.53216714  1
  S2-  S226  1  0.11349731  0.24793429  0.03127070  1
  S2-  S227  1  0.13532962  0.24060825  0.53856942  1
  S2-  S228  1  0.11262137  0.49434677  0.04189975  1
  S2-  S229  1  0.12639219  0.48533103  0.54344341  1
  S2-  S230  1  0.11299060  0.74406069  0.03960204  1
  S2-  S231  1  0.12937034  0.74166705  0.53212313  1
  S2-  S232  1  0.36079749  0.00114930  0.05772581  1
  S2-  S233  1  0.37885371  -0.01274962  0.53607874  1
  S2-  S234  1  0.36277262  0.24503456  0.05888233  1
  S2-  S235  1  0.38219124  0.23873097  0.54947312  1
  S2-  S236  1  0.36105373  0.49418244  0.04570966  1
  S2-  S237  1  0.38183151  0.49127195  0.53942335  1
  S2-  S238  1  0.35828969  0.74316689  0.04733333  1
  S2-  S239  1  0.38203221  0.73487408  0.54745644  1
  S2-  S240  1  0.60997940  -0.00838489  0.04727584  1
  S2-  S241  1  0.62216873  -0.01093209  0.53244812  1
  S2-  S242  1  0.61373578  0.24901775  0.05542457  1
  S2-  S243  1  0.62179120  0.23444540  0.54529078  1
  S2-  S244  1  0.61020656  0.50019097  0.05311690  1
  S2-  S245  1  0.63061101  0.48548782  0.54482692  1
  S2-  S246  1  0.61249118  0.74576795  0.05304540  1
  S2-  S247  1  0.62567176  0.73842753  0.54354588  1
  S2-  S248  1  0.86301629  -0.00811061  0.05369706  1
  S2-  S249  1  0.87852183  -0.01118469  0.54580835  1
  S2-  S250  1  0.86870277  0.24738166  0.04967938  1
  S2-  S251  1  0.87955153  0.23406550  0.54785058  1
  S2-  S252  1  0.86814703  0.49812931  0.05287490  1
  S2-  S253  1  0.87854063  0.49012703  0.56189503  1
  S2-  S254  1  0.86303701  0.74627382  0.04862458  1
  S2-  S255  1  0.87781806  0.74528395  0.54550765  1
