# generated using pymatgen
data_La9Ce10Pr6Nd4Sm3(BiS2)32
_symmetry_space_group_name_H-M   'P 1'
_cell_length_a   16.17668387
_cell_length_b   16.14732004
_cell_length_c   27.41759758
_cell_angle_alpha   89.61714222
_cell_angle_beta   90.28476219
_cell_angle_gamma   90.00744270
_symmetry_Int_Tables_number   1
_chemical_formula_structural   La9Ce10Pr6Nd4Sm3(BiS2)32
_chemical_formula_sum   'La18 Ce20 Pr12 Nd8 Sm6 Bi64 S128'
_cell_volume   7161.50480731
_cell_formula_units_Z   2
loop_
 _symmetry_equiv_pos_site_id
 _symmetry_equiv_pos_as_xyz
  1  'x, y, z'
loop_
 _atom_type_symbol
 _atom_type_oxidation_number
  La3+  3.0
  Ce3+  3.0
  Pr3+  3.0
  Nd3+  3.0
  Sm3+  3.0
  Bi2+  2.0
  S2-  -2.0
loop_
 _atom_site_type_symbol
 _atom_site_label
 _atom_site_symmetry_multiplicity
 _atom_site_fract_x
 _atom_site_fract_y
 _atom_site_fract_z
 _atom_site_occupancy
  La3+  La0  1  0.38238536  0.74922830  0.44047098  1
  La3+  La1  1  0.36237806  0.24688844  0.91994513  1
  La3+  La2  1  0.87923352  0.76107116  0.42538156  1
  La3+  La3  1  0.25468152  0.86120864  0.09412174  1
  La3+  La4  1  -0.00597153  0.11040597  0.07044322  1
  La3+  La5  1  0.88551021  0.01001765  0.88548919  1
  La3+  La6  1  0.75928819  0.87123530  0.57275614  1
  La3+  La7  1  0.61802836  -0.01620507  0.92042220  1
  La3+  La8  1  0.38362920  0.25204845  0.43633250  1
  La3+  La9  1  0.36584557  0.53116154  0.88467767  1
  La3+  La10  1  0.61407371  0.48517168  0.93018460  1
  La3+  La11  1  0.74191361  0.10869902  0.05173076  1
  La3+  La12  1  0.88642475  0.25568369  0.42563784  1
  La3+  La13  1  0.73813085  0.61679463  0.08119922  1
  La3+  La14  1  0.26236985  0.87202708  0.57133434  1
  La3+  La15  1  0.00974805  0.86836704  0.59256665  1
  La3+  La16  1  0.13122601  0.74810205  0.39765754  1
  La3+  La17  1  0.10588442  0.22987185  0.93356108  1
  Ce3+  Ce18  1  0.12478575  0.49007730  0.94479159  1
  Ce3+  Ce19  1  0.24838309  0.11140393  0.04900388  1
  Ce3+  Ce20  1  0.51581830  0.61554951  0.57302327  1
  Ce3+  Ce21  1  0.38495816  0.50039555  0.44844085  1
  Ce3+  Ce22  1  0.51051631  0.12836048  0.56664964  1
  Ce3+  Ce23  1  0.11606572  -0.01736479  0.95181770  1
  Ce3+  Ce24  1  0.25783990  0.37156379  0.56455678  1
  Ce3+  Ce25  1  0.36903661  -0.01472673  0.92765971  1
  Ce3+  Ce26  1  0.00770340  0.36875420  0.57116351  1
  Ce3+  Ce27  1  0.86637516  0.74213426  0.93647566  1
  Ce3+  Ce28  1  0.01066125  0.62888320  0.55495465  1
  Ce3+  Ce29  1  0.86581983  0.49177948  0.93719709  1
  Ce3+  Ce30  1  0.61572480  0.24290604  0.93777353  1
  Ce3+  Ce31  1  0.13242525  -0.00728846  0.44535087  1
  Ce3+  Ce32  1  0.25884666  0.12265683  0.55696611  1
  Ce3+  Ce33  1  0.76362454  0.12435108  0.55317215  1
  Ce3+  Ce34  1  0.38291170  -0.00171262  0.44346214  1
  Ce3+  Ce35  1  0.49314351  0.60699246  0.06324448  1
  Ce3+  Ce36  1  0.76292396  0.62349482  0.55517306  1
  Ce3+  Ce37  1  0.23593747  0.60970868  0.07873085  1
  Pr3+  Pr38  1  0.63305787  0.00013618  0.44325852  1
  Pr3+  Pr39  1  -0.01070920  0.60918361  0.06853407  1
  Pr3+  Pr40  1  0.88738976  0.50107806  0.43901936  1
  Pr3+  Pr41  1  0.86547766  0.24769577  0.93636731  1
  Pr3+  Pr42  1  -0.00800808  0.85842010  0.06617157  1
  Pr3+  Pr43  1  0.74097374  0.36107673  0.06459954  1
  Pr3+  Pr44  1  0.12060491  0.73615195  0.94697178  1
  Pr3+  Pr45  1  0.25779653  0.62324465  0.56121833  1
  Pr3+  Pr46  1  0.74186553  0.86158213  0.05802886  1
  Pr3+  Pr47  1  0.63165522  0.75069302  0.44095391  1
  Pr3+  Pr48  1  -0.00707020  0.36115448  0.05933854  1
  Pr3+  Pr49  1  0.13253840  0.25014897  0.44081194  1
  Nd3+  Nd50  1  0.36672409  0.73996500  0.95565309  1
  Nd3+  Nd51  1  0.01047000  0.12354448  0.57066043  1
  Nd3+  Nd52  1  0.88907308  -0.00077883  0.44366140  1
  Nd3+  Nd53  1  0.24534318  0.35757702  0.05814806  1
  Nd3+  Nd54  1  0.50804110  0.36820424  0.57126954  1
  Nd3+  Nd55  1  0.13335913  0.49578215  0.44050209  1
  Nd3+  Nd56  1  0.51146001  0.87168187  0.57131764  1
  Nd3+  Nd57  1  0.63243226  0.49911067  0.44335890  1
  Sm3+  Sm58  1  0.49073530  0.11094266  0.04428962  1
  Sm3+  Sm59  1  0.76360872  0.37130352  0.55573675  1
  Sm3+  Sm60  1  0.63415358  0.24981406  0.44376338  1
  Sm3+  Sm61  1  0.49336212  0.86791487  0.06106265  1
  Sm3+  Sm62  1  0.48939445  0.36290325  0.05208565  1
  Sm3+  Sm63  1  0.61456274  0.73472312  0.94458512  1
  Bi2+  Bi64  1  0.05953217  0.12648279  0.34124500  1
  Bi2+  Bi65  1  0.04183964  0.13163449  0.79204097  1
  Bi2+  Bi66  1  -0.01130016  0.29257907  0.29809544  1
  Bi2+  Bi67  1  -0.03463510  0.38171706  0.78356257  1
  Bi2+  Bi68  1  0.02566588  0.59640702  0.27788347  1
  Bi2+  Bi69  1  0.00322584  0.58100804  0.79123476  1
  Bi2+  Bi70  1  -0.03076365  0.84848224  0.29012336  1
  Bi2+  Bi71  1  0.00845812  0.86728928  0.79251844  1
  Bi2+  Bi72  1  0.21782740  0.14183522  0.27459956  1
  Bi2+  Bi73  1  0.28835981  0.16469838  0.79892129  1
  Bi2+  Bi74  1  0.28483377  0.31232766  0.31341382  1
  Bi2+  Bi75  1  0.22206725  0.39168952  0.78536191  1
  Bi2+  Bi76  1  0.29619728  0.57962140  0.28552208  1
  Bi2+  Bi77  1  0.22385281  0.66962193  0.79946650  1
  Bi2+  Bi78  1  0.25056282  0.88328530  0.29203556  1
  Bi2+  Bi79  1  0.27553095  0.97265302  0.79932296  1
  Bi2+  Bi80  1  0.49569265  0.10817477  0.24729068  1
  Bi2+  Bi81  1  0.48313074  0.17667564  0.80184842  1
  Bi2+  Bi82  1  0.48329134  0.37486596  0.29537231  1
  Bi2+  Bi83  1  0.51630544  0.38163335  0.79019517  1
  Bi2+  Bi84  1  0.50967114  0.74050973  0.33020521  1
  Bi2+  Bi85  1  0.49585429  0.67045920  0.79105005  1
  Bi2+  Bi86  1  0.49732641  0.93120621  0.30573444  1
  Bi2+  Bi87  1  0.53539662  0.90736716  0.76805072  1
  Bi2+  Bi88  1  0.68250950  0.13615494  0.27768691  1
  Bi2+  Bi89  1  0.67106829  0.14581142  0.77501244  1
  Bi2+  Bi90  1  0.74715387  0.38568465  0.29859918  1
  Bi2+  Bi91  1  0.77035657  0.45246807  0.77652294  1
  Bi2+  Bi92  1  0.66752680  0.64712644  0.28610017  1
  Bi2+  Bi93  1  0.82071430  0.61931573  0.82313659  1
  Bi2+  Bi94  1  0.70679086  0.86361511  0.28101337  1
  Bi2+  Bi95  1  0.72327688  0.85864354  0.79355933  1
  Bi2+  Bi96  1  0.06271895  0.03118802  0.24422103  1
  Bi2+  Bi97  1  0.13886025  0.01617282  0.71362220  1
  Bi2+  Bi98  1  0.11188429  0.25993584  0.19276037  1
  Bi2+  Bi99  1  0.10225940  0.34187000  0.69871981  1
  Bi2+  Bi100  1  0.15432693  0.44764830  0.27446851  1
  Bi2+  Bi101  1  0.14878532  0.53372937  0.70328698  1
  Bi2+  Bi102  1  0.11220759  0.74814214  0.18559225  1
  Bi2+  Bi103  1  0.12864715  0.74510111  0.71321182  1
  Bi2+  Bi104  1  0.34019476  0.02408420  0.19407324  1
  Bi2+  Bi105  1  0.34477212  0.03388143  0.68590035  1
  Bi2+  Bi106  1  0.33701653  0.27532929  0.19495255  1
  Bi2+  Bi107  1  0.37519869  0.25184792  0.70822328  1
  Bi2+  Bi108  1  0.41755489  0.49848826  0.21329379  1
  Bi2+  Bi109  1  0.39340761  0.53926012  0.68440438  1
  Bi2+  Bi110  1  0.42989405  0.69299062  0.23088729  1
  Bi2+  Bi111  1  0.35981323  0.83724679  0.73965498  1
  Bi2+  Bi112  1  0.62196097  0.01369930  0.16376697  1
  Bi2+  Bi113  1  0.53573841  0.06842217  0.70273521  1
  Bi2+  Bi114  1  0.60503353  0.28852208  0.21476543  1
  Bi2+  Bi115  1  0.64263623  0.30664386  0.71435632  1
  Bi2+  Bi116  1  0.61685059  0.49324880  0.21634617  1
  Bi2+  Bi117  1  0.63872835  0.55791798  0.71566589  1
  Bi2+  Bi118  1  0.55503962  0.84254107  0.20181626  1
  Bi2+  Bi119  1  0.66559953  0.75375773  0.70710435  1
  Bi2+  Bi120  1  0.78810134  0.00319563  0.22074568  1
  Bi2+  Bi121  1  0.84329768  -0.00408072  0.69427876  1
  Bi2+  Bi122  1  0.86772050  0.25241432  0.19726486  1
  Bi2+  Bi123  1  0.84469867  0.24405066  0.70532475  1
  Bi2+  Bi124  1  0.82402848  0.54546462  0.24496523  1
  Bi2+  Bi125  1  0.95963591  0.48701959  0.68628412  1
  Bi2+  Bi126  1  0.86206640  0.72703748  0.20240827  1
  Bi2+  Bi127  1  0.88583397  0.68711161  0.72127049  1
  S2-  S128  1  -0.00266160  0.12359874  0.17115038  1
  S2-  S129  1  -0.00111060  0.02068663  0.65320341  1
  S2-  S130  1  -0.01476511  0.35710887  0.16035529  1
  S2-  S131  1  -0.01304787  0.24690822  0.64265106  1
  S2-  S132  1  0.09837185  0.59884009  0.14931203  1
  S2-  S133  1  0.00573517  0.70116094  0.64497642  1
  S2-  S134  1  -0.03091316  0.85125029  0.16692487  1
  S2-  S135  1  -0.13435770  0.85334948  0.65486394  1
  S2-  S136  1  0.24327204  0.14773997  0.14401515  1
  S2-  S137  1  0.21940033  0.13823201  0.65181438  1
  S2-  S138  1  0.22422355  0.37757398  0.15746740  1
  S2-  S139  1  0.32713740  0.38242879  0.65529226  1
  S2-  S140  1  0.26397402  0.71394160  0.15566457  1
  S2-  S141  1  0.26227447  0.65059360  0.66100921  1
  S2-  S142  1  0.20156424  0.91790123  0.18916208  1
  S2-  S143  1  0.15681016  0.87490249  0.65494220  1
  S2-  S144  1  0.47713630  0.10677574  0.14172371  1
  S2-  S145  1  0.51404645  0.23976816  0.64379413  1
  S2-  S146  1  0.47840869  0.33691059  0.15010973  1
  S2-  S147  1  0.53804649  0.47690521  0.64690887  1
  S2-  S148  1  0.59435832  0.60076978  0.14264868  1
  S2-  S149  1  0.50677571  0.67234933  0.66812691  1
  S2-  S150  1  0.40780614  0.88933951  0.14644318  1
  S2-  S151  1  0.39080561  0.87112444  0.64507177  1
  S2-  S152  1  0.76933371  0.13441441  0.15015491  1
  S2-  S153  1  0.75686270  0.13175892  0.65005002  1
  S2-  S154  1  0.75386500  0.35432254  0.16531203  1
  S2-  S155  1  0.76977548  0.36530158  0.65452594  1
  S2-  S156  1  0.87041184  0.58253471  0.14607902  1
  S2-  S157  1  0.76146070  0.62609692  0.65335710  1
  S2-  S158  1  0.74311089  0.76678015  0.14377396  1
  S2-  S159  1  0.63325473  0.87784973  0.64593050  1
  S2-  S160  1  0.13130200  -0.08513449  0.35712838  1
  S2-  S161  1  0.06475892  -0.00503162  0.85857128  1
  S2-  S162  1  0.12756951  0.36736752  0.36409801  1
  S2-  S163  1  0.14588872  0.25434613  0.83662497  1
  S2-  S164  1  0.14202374  0.58328402  0.35341094  1
  S2-  S165  1  0.19238639  0.51380702  0.85526032  1
  S2-  S166  1  0.11397038  0.75052769  0.28559129  1
  S2-  S167  1  0.11312954  0.76078858  0.84672931  1
  S2-  S168  1  0.35034624  -0.00723144  0.34681804  1
  S2-  S169  1  0.48075750  -0.03204705  0.85396087  1
  S2-  S170  1  0.43441406  0.23206892  0.34127130  1
  S2-  S171  1  0.36108660  0.36919994  0.84454366  1
  S2-  S172  1  0.40201175  0.50237015  0.35195055  1
  S2-  S173  1  0.36436303  0.55883654  0.77609008  1
  S2-  S174  1  0.29212083  0.76292258  0.35357139  1
  S2-  S175  1  0.36748566  0.70833378  0.85782988  1
  S2-  S176  1  0.65238176  -0.00175276  0.34366156  1
  S2-  S177  1  0.72216241  0.01032860  0.83969857  1
  S2-  S178  1  0.66658388  0.26338494  0.34785244  1
  S2-  S179  1  0.62537570  0.34207231  0.85783284  1
  S2-  S180  1  0.65202516  0.49905249  0.34499758  1
  S2-  S181  1  0.53351887  0.53496485  0.84352630  1
  S2-  S182  1  0.73116183  0.75697965  0.35830711  1
  S2-  S183  1  0.61134490  0.75603905  0.84609502  1
  S2-  S184  1  0.88467905  -0.08725580  0.35808105  1
  S2-  S185  1  0.91477824  0.01187511  0.77865493  1
  S2-  S186  1  0.89049325  0.16750300  0.33848878  1
  S2-  S187  1  0.92855855  0.17580187  0.85368584  1
  S2-  S188  1  0.89598779  0.40033377  0.35710883  1
  S2-  S189  1  0.85279676  0.38184411  0.86058590  1
  S2-  S190  1  0.93407485  0.69374563  0.33500198  1
  S2-  S191  1  0.87946515  0.83727134  0.85207211  1
  S2-  S192  1  0.00921761  0.12476856  0.46220702  1
  S2-  S193  1  -0.01354943  0.10407351  0.96280341  1
  S2-  S194  1  0.00885560  0.37516266  0.46479652  1
  S2-  S195  1  -0.00345245  0.36794048  0.95280937  1
  S2-  S196  1  0.01126855  0.62698026  0.45055008  1
  S2-  S197  1  -0.00653341  0.61273257  0.95520854  1
  S2-  S198  1  0.01238961  0.87022764  0.45561278  1
  S2-  S199  1  -0.00594583  0.85962071  0.96026270  1
  S2-  S200  1  0.25747128  0.12441010  0.44986976  1
  S2-  S201  1  0.24236402  0.11018936  0.94309404  1
  S2-  S202  1  0.26157956  0.37642102  0.45980919  1
  S2-  S203  1  0.23327539  0.35459699  0.95294886  1
  S2-  S204  1  0.25749956  0.62292374  0.45585577  1
  S2-  S205  1  0.24719365  0.61221937  0.96455188  1
  S2-  S206  1  0.26135592  0.87599301  0.46282631  1
  S2-  S207  1  0.24436265  0.86389964  0.94977565  1
  S2-  S208  1  0.51024457  0.12684528  0.45582593  1
  S2-  S209  1  0.49087871  0.11909326  0.94172025  1
  S2-  S210  1  0.51179841  0.37297282  0.45843733  1
  S2-  S211  1  0.48715619  0.36417761  0.95083778  1
  S2-  S212  1  0.51057429  0.62238036  0.46050758  1
  S2-  S213  1  0.48871802  0.61202365  0.95739126  1
  S2-  S214  1  0.50865515  0.87620817  0.46025864  1
  S2-  S215  1  0.49319161  0.85942472  0.95721465  1
  S2-  S216  1  0.75952855  0.12539855  0.44819128  1
  S2-  S217  1  0.74378727  0.11812284  0.94499231  1
  S2-  S218  1  0.75686591  0.37510103  0.45353129  1
  S2-  S219  1  0.73994499  0.36575893  0.96074124  1
  S2-  S220  1  0.75992210  0.62114296  0.45074713  1
  S2-  S221  1  0.73867527  0.61350323  0.95494742  1
  S2-  S222  1  0.75538852  0.87933463  0.46345254  1
  S2-  S223  1  0.73692255  0.85799638  0.95248440  1
  S2-  S224  1  0.12376272  -0.01683725  0.05824177  1
  S2-  S225  1  0.13346391  -0.00045509  0.54942630  1
  S2-  S226  1  0.11746223  0.23445675  0.04337412  1
  S2-  S227  1  0.13560853  0.24925331  0.54639065  1
  S2-  S228  1  0.11878488  0.48255166  0.04855035  1
  S2-  S229  1  0.13236532  0.49637637  0.55063337  1
  S2-  S230  1  0.12304756  0.74091368  0.05213073  1
  S2-  S231  1  0.13600771  0.74788825  0.55125817  1
  S2-  S232  1  0.36822417  -0.01374684  0.03593155  1
  S2-  S233  1  0.38916781  0.00463389  0.54803300  1
  S2-  S234  1  0.37033115  0.23659832  0.03444234  1
  S2-  S235  1  0.38158425  0.24825594  0.54440248  1
  S2-  S236  1  0.36605883  0.48532308  0.06060778  1
  S2-  S237  1  0.38559220  0.49613520  0.55113459  1
  S2-  S238  1  0.37455184  0.73744119  0.05675937  1
  S2-  S239  1  0.38932798  0.74195869  0.54810904  1
  S2-  S240  1  0.61422239  -0.01297627  0.03319582  1
  S2-  S241  1  0.63199481  0.00566268  0.54869954  1
  S2-  S242  1  0.61313213  0.23665613  0.04532297  1
  S2-  S243  1  0.63945895  0.25090215  0.54644774  1
  S2-  S244  1  0.61630277  0.48242997  0.04265704  1
  S2-  S245  1  0.64151680  0.49381057  0.54715359  1
  S2-  S246  1  0.61003597  0.74056949  0.04643390  1
  S2-  S247  1  0.63331573  0.74298003  0.54731108  1
  S2-  S248  1  0.86777805  -0.01536142  0.06129138  1
  S2-  S249  1  0.88531495  -0.00203220  0.54815816  1
  S2-  S250  1  0.86839799  0.23773587  0.04478261  1
  S2-  S251  1  0.88258747  0.24950659  0.53777193  1
  S2-  S252  1  0.86532536  0.48392340  0.04345690  1
  S2-  S253  1  0.88574379  0.49706758  0.54613619  1
  S2-  S254  1  0.86827457  0.73537951  0.04294805  1
  S2-  S255  1  0.88287818  0.74766280  0.54064319  1
