# generated using pymatgen
data_La9Ce10Pr6Nd4Sm3(BiS2)32
_symmetry_space_group_name_H-M   'P 1'
_cell_length_a   16.24024642
_cell_length_b   16.23580893
_cell_length_c   27.11724046
_cell_angle_alpha   89.82350029
_cell_angle_beta   89.87092604
_cell_angle_gamma   89.96108065
_symmetry_Int_Tables_number   1
_chemical_formula_structural   La9Ce10Pr6Nd4Sm3(BiS2)32
_chemical_formula_sum   'La18 Ce20 Pr12 Nd8 Sm6 Bi64 S128'
_cell_volume   7150.04504364
_cell_formula_units_Z   2
loop_
 _symmetry_equiv_pos_site_id
 _symmetry_equiv_pos_as_xyz
  1  'x, y, z'
loop_
 _atom_type_symbol
 _atom_type_oxidation_number
  La3+  3.0
  Ce3+  3.0
  Pr3+  3.0
  Nd3+  3.0
  Sm3+  3.0
  Bi2+  2.0
  S2-  -2.0
loop_
 _atom_site_type_symbol
 _atom_site_label
 _atom_site_symmetry_multiplicity
 _atom_site_fract_x
 _atom_site_fract_y
 _atom_site_fract_z
 _atom_site_occupancy
  La3+  La0  1  0.48635319  0.36518725  0.59537600  1
  La3+  La1  1  0.86600258  0.24908825  0.91855079  1
  La3+  La2  1  0.12059251  0.74455966  0.93104429  1
  La3+  La3  1  0.37323892  0.24826264  0.42813638  1
  La3+  La4  1  0.13094592  0.01013078  0.91912479  1
  La3+  La5  1  0.61840138  0.51431219  0.92437999  1
  La3+  La6  1  0.62409767  0.49232237  0.44379635  1
  La3+  La7  1  0.37260800  0.51711631  0.93458749  1
  La3+  La8  1  0.49127408  0.12276912  0.10185053  1
  La3+  La9  1  0.74771444  0.87201931  0.56035753  1
  La3+  La10  1  0.87803499  0.51749234  0.92374983  1
  La3+  La11  1  0.11693217  0.74155658  0.40827918  1
  La3+  La12  1  0.37415283  0.50208826  0.42482849  1
  La3+  La13  1  0.38006349  0.74715317  0.42359771  1
  La3+  La14  1  0.37121392  -0.00760693  0.43761624  1
  La3+  La15  1  -0.00068879  0.11720267  0.57685534  1
  La3+  La16  1  0.87979277  -0.00386650  0.43932106  1
  La3+  La17  1  -0.01022298  0.61994742  0.08069319  1
  Ce3+  Ce18  1  -0.00127735  0.88257804  0.05185516  1
  Ce3+  Ce19  1  0.49452915  0.88112684  0.06144105  1
  Ce3+  Ce20  1  0.62229658  0.74727609  0.44602254  1
  Ce3+  Ce21  1  0.87727526  0.74665425  0.44588036  1
  Ce3+  Ce22  1  0.24344955  0.88303454  0.05829772  1
  Ce3+  Ce23  1  -0.00361967  0.12922589  0.04959614  1
  Ce3+  Ce24  1  0.37217522  0.00589193  0.93783672  1
  Ce3+  Ce25  1  0.74692725  0.88249077  0.05741752  1
  Ce3+  Ce26  1  0.87216494  0.75782668  0.94373745  1
  Ce3+  Ce27  1  0.12125924  0.49850244  0.44085108  1
  Ce3+  Ce28  1  0.00950499  0.86864713  0.57458059  1
  Ce3+  Ce29  1  0.87628514  0.24538087  0.44612761  1
  Ce3+  Ce30  1  0.74624111  0.62699201  0.05710015  1
  Ce3+  Ce31  1  0.24825721  0.13025603  0.06051283  1
  Ce3+  Ce32  1  0.74582364  0.12261434  0.56023228  1
  Ce3+  Ce33  1  0.62276768  -0.00397149  0.43776203  1
  Ce3+  Ce34  1  0.74861365  0.12657130  0.05843881  1
  Ce3+  Ce35  1  0.61795985  0.00621779  0.94878238  1
  Ce3+  Ce36  1  0.12298797  0.25532671  0.93816090  1
  Ce3+  Ce37  1  0.61986173  0.75481246  0.94398950  1
  Pr3+  Pr38  1  0.61775327  0.25527931  0.93674814  1
  Pr3+  Pr39  1  0.12162348  0.50483258  0.94559329  1
  Pr3+  Pr40  1  -0.00214038  0.37099891  0.56486386  1
  Pr3+  Pr41  1  0.25063365  0.37643850  0.05564069  1
  Pr3+  Pr42  1  0.23965105  0.62995387  0.07636561  1
  Pr3+  Pr43  1  0.49563406  0.61721896  0.56338714  1
  Pr3+  Pr44  1  0.49848353  0.12063446  0.56327996  1
  Pr3+  Pr45  1  0.25156687  0.86524614  0.56171080  1
  Pr3+  Pr46  1  0.49007998  0.62803843  0.07885320  1
  Pr3+  Pr47  1  0.62317993  0.24558774  0.44248102  1
  Pr3+  Pr48  1  0.74315458  0.37579728  0.04939256  1
  Pr3+  Pr49  1  0.49393003  0.86874706  0.56655335  1
  Nd3+  Nd50  1  0.49916220  0.38136394  0.06442228  1
  Nd3+  Nd51  1  0.37612243  0.25640940  0.93710328  1
  Nd3+  Nd52  1  0.25080039  0.37157617  0.55183743  1
  Nd3+  Nd53  1  0.87382798  0.49603931  0.44547872  1
  Nd3+  Nd54  1  0.25163605  0.61817748  0.55509477  1
  Nd3+  Nd55  1  0.25170365  0.12368808  0.55551658  1
  Nd3+  Nd56  1  -0.00088943  0.62158528  0.56293846  1
  Nd3+  Nd57  1  0.74907180  0.36930584  0.57089015  1
  Sm3+  Sm58  1  0.87794379  0.00248672  0.92721598  1
  Sm3+  Sm59  1  0.37071611  0.75470961  0.95253531  1
  Sm3+  Sm60  1  0.74677941  0.61893113  0.55809817  1
  Sm3+  Sm61  1  0.12060878  0.24555065  0.44889694  1
  Sm3+  Sm62  1  0.12280514  -0.00553338  0.44567166  1
  Sm3+  Sm63  1  -0.00832694  0.37780747  0.04916685  1
  Bi2+  Bi64  1  -0.01258975  0.10627799  0.31724361  1
  Bi2+  Bi65  1  -0.01675353  0.12987118  0.79772418  1
  Bi2+  Bi66  1  0.01777101  0.36376678  0.29432793  1
  Bi2+  Bi67  1  0.06531786  0.39724524  0.79050407  1
  Bi2+  Bi68  1  -0.05803379  0.61509003  0.29419414  1
  Bi2+  Bi69  1  -0.00292272  0.57741658  0.80055507  1
  Bi2+  Bi70  1  -0.01775098  0.88536909  0.29176942  1
  Bi2+  Bi71  1  -0.03199869  0.85928682  0.78461176  1
  Bi2+  Bi72  1  0.23420742  0.18613510  0.29051266  1
  Bi2+  Bi73  1  0.22585692  0.11943454  0.77615078  1
  Bi2+  Bi74  1  0.20041227  0.38617104  0.25242732  1
  Bi2+  Bi75  1  0.25898190  0.39596285  0.78025137  1
  Bi2+  Bi76  1  0.22585575  0.62851057  0.28215393  1
  Bi2+  Bi77  1  0.24393167  0.66363601  0.79295369  1
  Bi2+  Bi78  1  0.35046830  0.86711079  0.30828974  1
  Bi2+  Bi79  1  0.28299912  0.88462703  0.78276546  1
  Bi2+  Bi80  1  0.51295675  0.12760699  0.29967641  1
  Bi2+  Bi81  1  0.47208858  0.08868988  0.79114763  1
  Bi2+  Bi82  1  0.50867532  0.37420500  0.30293149  1
  Bi2+  Bi83  1  0.51321790  0.34201448  0.79621798  1
  Bi2+  Bi84  1  0.49990140  0.62342239  0.29043895  1
  Bi2+  Bi85  1  0.48364698  0.60614215  0.80317805  1
  Bi2+  Bi86  1  0.54442143  0.88239584  0.29637500  1
  Bi2+  Bi87  1  0.49543126  0.88370819  0.80576148  1
  Bi2+  Bi88  1  0.81193957  0.15433517  0.25057326  1
  Bi2+  Bi89  1  0.72952967  0.04578598  0.78225061  1
  Bi2+  Bi90  1  0.82127526  0.35120303  0.28425101  1
  Bi2+  Bi91  1  0.75322364  0.36081540  0.79177416  1
  Bi2+  Bi92  1  0.74503694  0.62566617  0.28560697  1
  Bi2+  Bi93  1  0.77309161  0.68254214  0.75879160  1
  Bi2+  Bi94  1  0.73252111  0.81886865  0.28121550  1
  Bi2+  Bi95  1  0.77798542  0.84971449  0.81637134  1
  Bi2+  Bi96  1  0.13260738  0.03822626  0.24684040  1
  Bi2+  Bi97  1  0.13033896  -0.00190277  0.70654613  1
  Bi2+  Bi98  1  0.14300985  0.21030233  0.18792473  1
  Bi2+  Bi99  1  0.14372438  0.27286117  0.71492313  1
  Bi2+  Bi100  1  0.06582272  0.52409108  0.22326590  1
  Bi2+  Bi101  1  0.15547291  0.52128960  0.71378294  1
  Bi2+  Bi102  1  0.13314677  0.79101317  0.20823398  1
  Bi2+  Bi103  1  0.12123960  0.76735128  0.73069433  1
  Bi2+  Bi104  1  0.35202877  -0.01532665  0.21344779  1
  Bi2+  Bi105  1  0.41214541  -0.02221110  0.70330703  1
  Bi2+  Bi106  1  0.35024656  0.26767032  0.20367304  1
  Bi2+  Bi107  1  0.33507246  0.23596519  0.70441113  1
  Bi2+  Bi108  1  0.37836735  0.51171430  0.21498183  1
  Bi2+  Bi109  1  0.37477348  0.51539696  0.70098305  1
  Bi2+  Bi110  1  0.41482050  0.76793045  0.21566341  1
  Bi2+  Bi111  1  0.41412901  0.76441788  0.72851945  1
  Bi2+  Bi112  1  0.68760754  -0.00354526  0.23281308  1
  Bi2+  Bi113  1  0.59773120  -0.02830647  0.66416580  1
  Bi2+  Bi114  1  0.63887978  0.25963006  0.20320103  1
  Bi2+  Bi115  1  0.60927809  0.14811227  0.71221704  1
  Bi2+  Bi116  1  0.63642283  0.52971778  0.20671883  1
  Bi2+  Bi117  1  0.62731135  0.52430717  0.70975098  1
  Bi2+  Bi118  1  0.60334331  0.72121074  0.19948474  1
  Bi2+  Bi119  1  0.63215604  0.81270590  0.73115429  1
  Bi2+  Bi120  1  0.91478540  -0.02106534  0.19954604  1
  Bi2+  Bi121  1  0.85899932  -0.02642396  0.71625740  1
  Bi2+  Bi122  1  0.95604992  0.26131436  0.20117632  1
  Bi2+  Bi123  1  0.87288280  0.24957489  0.71226708  1
  Bi2+  Bi124  1  0.84492657  0.46924948  0.19417101  1
  Bi2+  Bi125  1  0.86221289  0.50412415  0.69726684  1
  Bi2+  Bi126  1  0.87121314  0.73675530  0.21598049  1
  Bi2+  Bi127  1  0.93459017  0.73469243  0.69862529  1
  S2-  S128  1  -0.02611269  0.10924650  0.14598418  1
  S2-  S129  1  0.00508344  0.18843764  0.67219340  1
  S2-  S130  1  -0.01501376  0.45419099  0.13759075  1
  S2-  S131  1  -0.05779880  0.38102304  0.66088597  1
  S2-  S132  1  0.11719255  0.64631613  0.15089954  1
  S2-  S133  1  0.00588747  0.58771568  0.66148378  1
  S2-  S134  1  0.01068780  0.86472132  0.15037133  1
  S2-  S135  1  -0.01314907  0.98663665  0.64765607  1
  S2-  S136  1  0.33298799  0.12160510  0.14859044  1
  S2-  S137  1  0.23921435  0.10183646  0.65438269  1
  S2-  S138  1  0.27327491  0.40948646  0.15447899  1
  S2-  S139  1  0.32576793  0.37479805  0.64139183  1
  S2-  S140  1  0.35459601  0.63967977  0.15502467  1
  S2-  S141  1  0.27190018  0.61534362  0.65585216  1
  S2-  S142  1  0.23538348  0.88548332  0.15868747  1
  S2-  S143  1  0.14586935  0.86099972  0.64482259  1
  S2-  S144  1  0.56378124  0.10836020  0.19892486  1
  S2-  S145  1  0.47897413  0.21170136  0.64876455  1
  S2-  S146  1  0.49145993  0.28167784  0.14915509  1
  S2-  S147  1  0.52104550  0.40598494  0.69572616  1
  S2-  S148  1  0.49992486  0.49406452  0.14487389  1
  S2-  S149  1  0.50804703  0.61589054  0.66475220  1
  S2-  S150  1  0.46873470  0.94395142  0.15097665  1
  S2-  S151  1  0.37111457  0.84320812  0.63937450  1
  S2-  S152  1  0.75092763  0.18301174  0.15103087  1
  S2-  S153  1  0.76172922  0.15789549  0.65585773  1
  S2-  S154  1  0.70489064  0.39553739  0.14816691  1
  S2-  S155  1  0.73080680  0.39847012  0.67006942  1
  S2-  S156  1  0.83985346  0.62187322  0.14139036  1
  S2-  S157  1  0.74691162  0.62507577  0.65663300  1
  S2-  S158  1  0.76235117  0.93623282  0.15028722  1
  S2-  S159  1  0.75812388  0.87090551  0.66100951  1
  S2-  S160  1  0.10549027  -0.01945830  0.34756655  1
  S2-  S161  1  0.00560204  -0.00689331  0.84907456  1
  S2-  S162  1  0.09644768  0.23643367  0.35172121  1
  S2-  S163  1  0.12396264  0.17698187  0.85127253  1
  S2-  S164  1  0.12369406  0.57896977  0.35435603  1
  S2-  S165  1  0.13726370  0.60098140  0.86264529  1
  S2-  S166  1  0.18123981  0.77602568  0.31237766  1
  S2-  S167  1  0.16153923  0.81201087  0.83864694  1
  S2-  S168  1  0.38276931  0.02699275  0.33873582  1
  S2-  S169  1  0.27570788  0.01246433  0.85555021  1
  S2-  S170  1  0.39613087  0.23279079  0.32773671  1
  S2-  S171  1  0.40850017  0.22889108  0.83833996  1
  S2-  S172  1  0.37050642  0.43074855  0.33158627  1
  S2-  S173  1  0.41276656  0.45978961  0.83994657  1
  S2-  S174  1  0.35924187  0.63068847  0.34884600  1
  S2-  S175  1  0.36599272  0.66557746  0.86776326  1
  S2-  S176  1  0.63277362  0.02042671  0.34033752  1
  S2-  S177  1  0.59941006  0.00871360  0.85045117  1
  S2-  S178  1  0.61258668  0.24451678  0.34036469  1
  S2-  S179  1  0.64612375  0.25208445  0.83601844  1
  S2-  S180  1  0.59344751  0.49712147  0.34378430  1
  S2-  S181  1  0.63026898  0.45895871  0.82452103  1
  S2-  S182  1  0.53737475  0.74844767  0.36070783  1
  S2-  S183  1  0.60146459  0.66239938  0.86165118  1
  S2-  S184  1  0.87091898  -0.02063603  0.33864618  1
  S2-  S185  1  0.83972282  0.10870216  0.85133208  1
  S2-  S186  1  0.85512711  0.20926022  0.35131013  1
  S2-  S187  1  0.91080734  0.28631035  0.81934738  1
  S2-  S188  1  0.85196847  0.49101452  0.34711157  1
  S2-  S189  1  0.84506741  0.49033564  0.82365777  1
  S2-  S190  1  0.96050195  0.75658388  0.35940800  1
  S2-  S191  1  0.92542117  0.67514339  0.86594385  1
  S2-  S192  1  0.00256710  0.12065497  0.46302777  1
  S2-  S193  1  -0.00418224  0.13137711  0.94719843  1
  S2-  S194  1  -0.00121279  0.37180056  0.45602185  1
  S2-  S195  1  -0.00450129  0.37994030  0.94350385  1
  S2-  S196  1  -0.00328898  0.61980330  0.45717355  1
  S2-  S197  1  -0.00045799  0.62752102  0.97143613  1
  S2-  S198  1  0.00366880  0.87030609  0.46303710  1
  S2-  S199  1  -0.00020883  0.87728073  0.94763466  1
  S2-  S200  1  0.24453871  0.12202523  0.44829580  1
  S2-  S201  1  0.25064328  0.13587760  0.95516259  1
  S2-  S202  1  0.24319616  0.37096062  0.44453696  1
  S2-  S203  1  0.24929632  0.38083353  0.94652747  1
  S2-  S204  1  0.24410700  0.62495077  0.45120628  1
  S2-  S205  1  0.24664210  0.63182143  0.96884008  1
  S2-  S206  1  0.24345294  0.86701936  0.44877269  1
  S2-  S207  1  0.24893472  0.87670663  0.95299660  1
  S2-  S208  1  0.49764189  0.12085802  0.45348520  1
  S2-  S209  1  0.49436377  0.12891607  0.94887740  1
  S2-  S210  1  0.49735002  0.37014618  0.44732280  1
  S2-  S211  1  0.49803730  0.38350670  0.95334085  1
  S2-  S212  1  0.50242898  0.61853139  0.45657499  1
  S2-  S213  1  0.49633369  0.63604716  0.96978441  1
  S2-  S214  1  0.50030679  0.87421320  0.45847963  1
  S2-  S215  1  0.49407313  0.87737191  0.95466886  1
  S2-  S216  1  0.74885972  0.11984879  0.45345945  1
  S2-  S217  1  0.74132365  0.12785764  0.95331150  1
  S2-  S218  1  0.75146585  0.36939423  0.45878272  1
  S2-  S219  1  0.74666754  0.38256191  0.94133184  1
  S2-  S220  1  0.74929779  0.62224147  0.45231551  1
  S2-  S221  1  0.74824532  0.63446296  0.95174587  1
  S2-  S222  1  0.74927492  0.87052462  0.45037742  1
  S2-  S223  1  0.74590504  0.88340147  0.95116809  1
  S2-  S224  1  0.12335972  0.00892762  0.04040987  1
  S2-  S225  1  0.13035554  -0.00177289  0.54778649  1
  S2-  S226  1  0.11898177  0.25719963  0.04494326  1
  S2-  S227  1  0.12538918  0.24799452  0.55413874  1
  S2-  S228  1  0.12320918  0.49715756  0.05003846  1
  S2-  S229  1  0.12399492  0.49484658  0.54919481  1
  S2-  S230  1  0.12209245  0.75971849  0.04441286  1
  S2-  S231  1  0.12573840  0.73718430  0.54871889  1
  S2-  S232  1  0.37100940  0.00549654  0.04299080  1
  S2-  S233  1  0.37313706  -0.00188479  0.54582329  1
  S2-  S234  1  0.37430040  0.25211654  0.04396671  1
  S2-  S235  1  0.37369506  0.24700309  0.53793999  1
  S2-  S236  1  0.36998187  0.50411612  0.04435464  1
  S2-  S237  1  0.37674252  0.49259142  0.53921641  1
  S2-  S238  1  0.36940539  0.75943550  0.05526719  1
  S2-  S239  1  0.37518552  0.74013884  0.53564662  1
  S2-  S240  1  0.61810317  0.00781168  0.05484929  1
  S2-  S241  1  0.62171672  -0.00304967  0.54375579  1
  S2-  S242  1  0.61901037  0.24830791  0.04450105  1
  S2-  S243  1  0.62085187  0.25176672  0.55110679  1
  S2-  S244  1  0.62340533  0.50657746  0.03861629  1
  S2-  S245  1  0.62255431  0.49187087  0.55378370  1
  S2-  S246  1  0.62242894  0.75628199  0.05255030  1
  S2-  S247  1  0.62216390  0.74353286  0.55386170  1
  S2-  S248  1  0.87258593  0.00459845  0.03514402  1
  S2-  S249  1  0.86986376  -0.00254729  0.54764894  1
  S2-  S250  1  0.87198265  0.25444538  0.03620674  1
  S2-  S251  1  0.87355953  0.24601101  0.55229988  1
  S2-  S252  1  0.86664815  0.49903028  0.03424189  1
  S2-  S253  1  0.87061374  0.49724372  0.55153966  1
  S2-  S254  1  0.87049727  0.75980303  0.04856008  1
  S2-  S255  1  0.87284387  0.74361355  0.55254370  1
