# generated using pymatgen
data_La9Ce10Pr6Nd4Sm3(BiS2)32
_symmetry_space_group_name_H-M   'P 1'
_cell_length_a   16.25159532
_cell_length_b   16.25260980
_cell_length_c   27.08248927
_cell_angle_alpha   89.98791434
_cell_angle_beta   89.98907558
_cell_angle_gamma   89.94767401
_symmetry_Int_Tables_number   1
_chemical_formula_structural   La9Ce10Pr6Nd4Sm3(BiS2)32
_chemical_formula_sum   'La18 Ce20 Pr12 Nd8 Sm6 Bi64 S128'
_cell_volume   7153.31729891
_cell_formula_units_Z   2
loop_
 _symmetry_equiv_pos_site_id
 _symmetry_equiv_pos_as_xyz
  1  'x, y, z'
loop_
 _atom_type_symbol
 _atom_type_oxidation_number
  La3+  3.0
  Ce3+  3.0
  Pr3+  3.0
  Nd3+  3.0
  Sm3+  3.0
  Bi2+  2.0
  S2-  -2.0
loop_
 _atom_site_type_symbol
 _atom_site_label
 _atom_site_symmetry_multiplicity
 _atom_site_fract_x
 _atom_site_fract_y
 _atom_site_fract_z
 _atom_site_occupancy
  La3+  La0  1  -0.00553274  0.12324733  0.06450386  1
  La3+  La1  1  0.88920203  0.74917984  0.44509185  1
  La3+  La2  1  0.51599215  0.37258276  0.58164296  1
  La3+  La3  1  0.49540924  0.38093614  0.06545474  1
  La3+  La4  1  0.49207272  0.13458700  0.07542658  1
  La3+  La5  1  0.49409175  0.87748065  0.06687777  1
  La3+  La6  1  0.01922431  0.87441667  0.59340248  1
  La3+  La7  1  0.11559715  0.50658602  0.90746389  1
  La3+  La8  1  0.38502089  0.49554572  0.43844540  1
  La3+  La9  1  0.13741365  0.74471117  0.41021428  1
  La3+  La10  1  0.75923850  0.87574897  0.56262096  1
  La3+  La11  1  0.37423490  0.24294911  0.92816799  1
  La3+  La12  1  0.75443873  0.12322738  0.55879980  1
  La3+  La13  1  0.00255684  0.87291735  0.07573299  1
  La3+  La14  1  0.88479230  0.49564600  0.43561373  1
  La3+  La15  1  -0.00396964  0.37786038  0.06430821  1
  La3+  La16  1  0.85951480  0.23298283  0.38633955  1
  La3+  La17  1  0.73785513  0.11823462  0.08952079  1
  Ce3+  Ce18  1  0.74537886  0.62404015  0.06002305  1
  Ce3+  Ce19  1  0.49754716  0.62140373  0.05824996  1
  Ce3+  Ce20  1  0.50870821  0.62039236  0.56726089  1
  Ce3+  Ce21  1  0.86811976  0.25105172  0.94939294  1
  Ce3+  Ce22  1  0.63361544  -0.00144201  0.43707054  1
  Ce3+  Ce23  1  0.38293076  0.24957432  0.43897847  1
  Ce3+  Ce24  1  0.62448933  0.25063976  0.94588195  1
  Ce3+  Ce25  1  0.37115405  -0.00093177  0.94249638  1
  Ce3+  Ce26  1  0.12064530  -0.00480637  0.94000730  1
  Ce3+  Ce27  1  0.74586805  0.87581846  0.05635850  1
  Ce3+  Ce28  1  0.87215935  0.75189454  0.94547711  1
  Ce3+  Ce29  1  0.12816900  0.24746092  0.43755931  1
  Ce3+  Ce30  1  0.24965064  0.86471371  0.07596593  1
  Ce3+  Ce31  1  0.26061580  0.12421910  0.55968618  1
  Ce3+  Ce32  1  -0.00259019  0.62587081  0.05825992  1
  Ce3+  Ce33  1  0.63290356  0.74815827  0.44479980  1
  Ce3+  Ce34  1  0.26012909  0.37089436  0.55911999  1
  Ce3+  Ce35  1  0.11827398  0.25406283  0.94230184  1
  Ce3+  Ce36  1  0.50728054  0.87030848  0.55639370  1
  Ce3+  Ce37  1  0.37201875  0.49741683  0.93346733  1
  Pr3+  Pr38  1  0.25558614  0.62215423  0.56267632  1
  Pr3+  Pr39  1  0.89118100  -0.00441251  0.43384995  1
  Pr3+  Pr40  1  0.00627096  0.61592159  0.56951240  1
  Pr3+  Pr41  1  0.00792816  0.12139645  0.56318849  1
  Pr3+  Pr42  1  0.75978467  0.62296410  0.55885498  1
  Pr3+  Pr43  1  0.24523629  0.38014885  0.05670704  1
  Pr3+  Pr44  1  0.25667494  0.86919031  0.55942364  1
  Pr3+  Pr45  1  0.00897556  0.36913427  0.55882538  1
  Pr3+  Pr46  1  0.75709747  0.36891116  0.55103618  1
  Pr3+  Pr47  1  0.24194964  0.62020227  0.06025111  1
  Pr3+  Pr48  1  0.87153822  0.00102272  0.94077099  1
  Pr3+  Pr49  1  0.38498802  0.74253442  0.43392152  1
  Nd3+  Nd50  1  0.74716605  0.38198951  0.07286968  1
  Nd3+  Nd51  1  0.24553737  0.12518264  0.05566977  1
  Nd3+  Nd52  1  0.38150437  -0.00245718  0.44108141  1
  Nd3+  Nd53  1  0.62132995  0.50080657  0.93492599  1
  Nd3+  Nd54  1  0.13201970  -0.00116723  0.44174127  1
  Nd3+  Nd55  1  0.63293881  0.49680096  0.43941236  1
  Nd3+  Nd56  1  0.62019199  0.75130459  0.94409790  1
  Nd3+  Nd57  1  0.12366138  0.75713496  0.93574974  1
  Sm3+  Sm58  1  0.13443518  0.50147790  0.44111221  1
  Sm3+  Sm59  1  0.61857836  0.00390749  0.94031319  1
  Sm3+  Sm60  1  0.87134368  0.50180388  0.93785528  1
  Sm3+  Sm61  1  0.37094455  0.74977662  0.94250481  1
  Sm3+  Sm62  1  0.62072500  0.25174752  0.43176585  1
  Sm3+  Sm63  1  0.50421819  0.12111318  0.55624735  1
  Bi2+  Bi64  1  0.05080932  0.12659480  0.28049939  1
  Bi2+  Bi65  1  0.02294806  0.09184494  0.80096276  1
  Bi2+  Bi66  1  0.02007648  0.38598767  0.29115760  1
  Bi2+  Bi67  1  0.00689589  0.33699551  0.79400822  1
  Bi2+  Bi68  1  -0.01371731  0.64639261  0.30463844  1
  Bi2+  Bi69  1  -0.04332994  0.62932245  0.79931648  1
  Bi2+  Bi70  1  -0.04196178  0.89599687  0.29587548  1
  Bi2+  Bi71  1  -0.02467414  0.88639084  0.79867177  1
  Bi2+  Bi72  1  0.23556580  0.17515808  0.31707802  1
  Bi2+  Bi73  1  0.21932103  0.11681687  0.78783223  1
  Bi2+  Bi74  1  0.26607919  0.36957740  0.31264900  1
  Bi2+  Bi75  1  0.27313221  0.38061325  0.78963918  1
  Bi2+  Bi76  1  0.27047257  0.62597173  0.28965567  1
  Bi2+  Bi77  1  0.25777367  0.64083328  0.80487145  1
  Bi2+  Bi78  1  0.29973377  0.88094221  0.27306193  1
  Bi2+  Bi79  1  0.25187034  0.91829560  0.80076131  1
  Bi2+  Bi80  1  0.42229315  0.13085003  0.30383592  1
  Bi2+  Bi81  1  0.50937653  0.10587513  0.79320860  1
  Bi2+  Bi82  1  0.45385511  0.42285948  0.30446462  1
  Bi2+  Bi83  1  0.52804618  0.34689427  0.77692603  1
  Bi2+  Bi84  1  0.51509013  0.67192987  0.27810333  1
  Bi2+  Bi85  1  0.53142289  0.61140747  0.78887995  1
  Bi2+  Bi86  1  0.53573807  0.88823654  0.29654063  1
  Bi2+  Bi87  1  0.51424612  0.90390123  0.79622505  1
  Bi2+  Bi88  1  0.74708599  0.06278218  0.27520443  1
  Bi2+  Bi89  1  0.75625094  0.20329414  0.78761126  1
  Bi2+  Bi90  1  0.69739012  0.34339375  0.27085039  1
  Bi2+  Bi91  1  0.74663925  0.39887267  0.76936347  1
  Bi2+  Bi92  1  0.73013469  0.59988162  0.28577765  1
  Bi2+  Bi93  1  0.75558124  0.58726687  0.80074265  1
  Bi2+  Bi94  1  0.73024396  0.87106291  0.24399172  1
  Bi2+  Bi95  1  0.68808593  0.78206532  0.77701333  1
  Bi2+  Bi96  1  0.18010338  0.00645594  0.22812562  1
  Bi2+  Bi97  1  0.12612512  0.00916237  0.71085153  1
  Bi2+  Bi98  1  0.14581382  0.29404658  0.22231149  1
  Bi2+  Bi99  1  0.11615912  0.21768005  0.70432737  1
  Bi2+  Bi100  1  0.16296589  0.49326726  0.23325772  1
  Bi2+  Bi101  1  0.13709267  0.51103803  0.69849279  1
  Bi2+  Bi102  1  0.11155993  0.75656633  0.20551928  1
  Bi2+  Bi103  1  0.12589080  0.75384650  0.71576856  1
  Bi2+  Bi104  1  0.39252912  0.03345652  0.20155161  1
  Bi2+  Bi105  1  0.38278701  -0.00523180  0.72755572  1
  Bi2+  Bi106  1  0.33566705  0.25405332  0.20641194  1
  Bi2+  Bi107  1  0.31560672  0.25116723  0.70136989  1
  Bi2+  Bi108  1  0.35920905  0.46510508  0.20744937  1
  Bi2+  Bi109  1  0.38850579  0.58812735  0.71045509  1
  Bi2+  Bi110  1  0.37364244  0.73370960  0.21039504  1
  Bi2+  Bi111  1  0.38509505  0.78428532  0.73546272  1
  Bi2+  Bi112  1  0.56768135  -0.05975967  0.18981961  1
  Bi2+  Bi113  1  0.64087771  -0.00376595  0.69601714  1
  Bi2+  Bi114  1  0.54115645  0.20797111  0.23037365  1
  Bi2+  Bi115  1  0.63701851  0.24799504  0.69925898  1
  Bi2+  Bi116  1  0.60093087  0.51565130  0.21438921  1
  Bi2+  Bi117  1  0.65287539  0.55210198  0.69811697  1
  Bi2+  Bi118  1  0.64743948  0.70797786  0.19023644  1
  Bi2+  Bi119  1  0.55952877  0.72534120  0.68844098  1
  Bi2+  Bi120  1  0.94843934  0.01088452  0.20296983  1
  Bi2+  Bi121  1  0.86314751  -0.00210543  0.71588659  1
  Bi2+  Bi122  1  0.88969232  0.26747183  0.19150664  1
  Bi2+  Bi123  1  0.92410702  0.21243111  0.72323352  1
  Bi2+  Bi124  1  0.86340363  0.52065888  0.21207684  1
  Bi2+  Bi125  1  0.89860795  0.48884263  0.72434147  1
  Bi2+  Bi126  1  0.84526259  0.71437832  0.21166764  1
  Bi2+  Bi127  1  0.83474546  0.73453316  0.71537051  1
  S2-  S128  1  0.01987280  0.16022613  0.16217540  1
  S2-  S129  1  -0.01104993  0.02347052  0.64728305  1
  S2-  S130  1  -0.03267101  0.42075311  0.16142143  1
  S2-  S131  1  0.00218939  0.44214371  0.65007863  1
  S2-  S132  1  0.02740887  0.65215952  0.15491281  1
  S2-  S133  1  0.04132444  0.64115621  0.66879385  1
  S2-  S134  1  -0.07131586  0.85796911  0.16968528  1
  S2-  S135  1  -0.02361113  0.82365625  0.69118044  1
  S2-  S136  1  0.25458228  0.11246171  0.15615029  1
  S2-  S137  1  0.32335051  0.10541796  0.65093322  1
  S2-  S138  1  0.23599463  0.49119657  0.13570274  1
  S2-  S139  1  0.25049987  0.40115994  0.65650366  1
  S2-  S140  1  0.23991183  0.71938668  0.14586544  1
  S2-  S141  1  0.24353995  0.64074901  0.66422329  1
  S2-  S142  1  0.13290746  0.89907642  0.14907541  1
  S2-  S143  1  0.17695718  0.87133293  0.64981044  1
  S2-  S144  1  0.59958889  0.10873554  0.15491182  1
  S2-  S145  1  0.56005566  0.11094011  0.64990287  1
  S2-  S146  1  0.47602964  0.27460032  0.14560452  1
  S2-  S147  1  0.47311443  0.30794527  0.67526119  1
  S2-  S148  1  0.48805710  0.51587286  0.13770055  1
  S2-  S149  1  0.50526965  0.51278127  0.64531630  1
  S2-  S150  1  0.37774353  0.88340993  0.14452464  1
  S2-  S151  1  0.53496212  0.89372611  0.65184920  1
  S2-  S152  1  0.81378720  0.12267956  0.18171268  1
  S2-  S153  1  0.77443337  0.08964688  0.65800438  1
  S2-  S154  1  0.73518557  0.31257306  0.16674495  1
  S2-  S155  1  0.70030388  0.36734176  0.64630178  1
  S2-  S156  1  0.74432586  0.51981706  0.13933981  1
  S2-  S157  1  0.81175708  0.59939903  0.65431036  1
  S2-  S158  1  0.72874564  0.93884417  0.14527497  1
  S2-  S159  1  0.76760947  0.87677637  0.66414561  1
  S2-  S160  1  0.06496072  -0.00090472  0.34924231  1
  S2-  S161  1  0.11760596  -0.11436345  0.86261160  1
  S2-  S162  1  0.02773193  0.25251403  0.35550706  1
  S2-  S163  1  0.14114597  0.30020566  0.84829779  1
  S2-  S164  1  0.12776867  0.59219443  0.35620074  1
  S2-  S165  1  0.15663383  0.50032393  0.80079866  1
  S2-  S166  1  0.08209965  0.79518561  0.31085802  1
  S2-  S167  1  0.10778916  0.66591261  0.85108009  1
  S2-  S168  1  0.39228747  -0.03598706  0.34298274  1
  S2-  S169  1  0.39434506  0.09596976  0.86209680  1
  S2-  S170  1  0.48674559  0.28712347  0.36319698  1
  S2-  S171  1  0.39445589  0.30972858  0.83455522  1
  S2-  S172  1  0.40574790  0.58206196  0.35077708  1
  S2-  S173  1  0.35464127  0.51491794  0.83608053  1
  S2-  S174  1  0.28435476  0.76048209  0.35172782  1
  S2-  S175  1  0.33746624  0.77958051  0.84667399  1
  S2-  S176  1  0.62673229  0.01344170  0.33898117  1
  S2-  S177  1  0.62796619  0.00510283  0.84026307  1
  S2-  S178  1  0.69609875  0.23131522  0.34266550  1
  S2-  S179  1  0.60932219  0.23576807  0.84678348  1
  S2-  S180  1  0.66017911  0.47311500  0.34069018  1
  S2-  S181  1  0.57640329  0.47050599  0.83996392  1
  S2-  S182  1  0.61382271  0.75404825  0.34792678  1
  S2-  S183  1  0.57228348  0.75431142  0.84891392  1
  S2-  S184  1  0.86079742  0.07108981  0.34204500  1
  S2-  S185  1  0.87622579  0.00387150  0.83805734  1
  S2-  S186  1  0.86149992  0.31418531  0.28994842  1
  S2-  S187  1  0.87654133  0.26269958  0.85159700  1
  S2-  S188  1  0.91780854  0.50953347  0.33684533  1
  S2-  S189  1  0.96288572  0.48722744  0.85437243  1
  S2-  S190  1  0.87782575  0.76883479  0.34416807  1
  S2-  S191  1  0.88738643  0.77411312  0.84774419  1
  S2-  S192  1  0.00651672  0.12361942  0.45632442  1
  S2-  S193  1  -0.00417551  0.12602607  0.95478333  1
  S2-  S194  1  0.01345560  0.37972587  0.45298993  1
  S2-  S195  1  -0.00710997  0.37454706  0.95594042  1
  S2-  S196  1  0.00996230  0.62187040  0.45934323  1
  S2-  S197  1  -0.00745537  0.62710996  0.95287637  1
  S2-  S198  1  0.01564162  0.86928890  0.45039464  1
  S2-  S199  1  -0.00744105  0.87644932  0.96340747  1
  S2-  S200  1  0.25792378  0.12296266  0.45256075  1
  S2-  S201  1  0.23962174  0.12454450  0.94962755  1
  S2-  S202  1  0.25492863  0.37327651  0.45146150  1
  S2-  S203  1  0.24462269  0.37785986  0.94907143  1
  S2-  S204  1  0.25853030  0.62327588  0.45605131  1
  S2-  S205  1  0.24824926  0.62532636  0.94948261  1
  S2-  S206  1  0.25629011  0.87371170  0.45282248  1
  S2-  S207  1  0.25233037  0.87492207  0.96347169  1
  S2-  S208  1  0.50616393  0.12095324  0.45077731  1
  S2-  S209  1  0.50237347  0.12648142  0.96397213  1
  S2-  S210  1  0.51088023  0.37868082  0.46654336  1
  S2-  S211  1  0.49811524  0.37504253  0.95402856  1
  S2-  S212  1  0.51200974  0.62259522  0.45835324  1
  S2-  S213  1  0.49597219  0.62581729  0.95015581  1
  S2-  S214  1  0.50552741  0.87227335  0.45020562  1
  S2-  S215  1  0.49556849  0.87562291  0.95581627  1
  S2-  S216  1  0.75608186  0.12469001  0.45103375  1
  S2-  S217  1  0.74498528  0.12275280  0.95423866  1
  S2-  S218  1  0.76015006  0.36594757  0.44403712  1
  S2-  S219  1  0.74772581  0.38029967  0.95358755  1
  S2-  S220  1  0.75837052  0.62293563  0.44992014  1
  S2-  S221  1  0.74583999  0.62546413  0.94982467  1
  S2-  S222  1  0.75940332  0.87477123  0.45211718  1
  S2-  S223  1  0.74218224  0.87779741  0.94799385  1
  S2-  S224  1  0.12201971  0.00324587  0.04571978  1
  S2-  S225  1  0.13611635  -0.00072413  0.54790275  1
  S2-  S226  1  0.12242690  0.25226160  0.05086719  1
  S2-  S227  1  0.13408386  0.24606793  0.54777734  1
  S2-  S228  1  0.11531665  0.50059225  0.03536094  1
  S2-  S229  1  0.13434066  0.49643024  0.54574709  1
  S2-  S230  1  0.11999561  0.74849522  0.04191632  1
  S2-  S231  1  0.12993343  0.74547545  0.55114712  1
  S2-  S232  1  0.37257024  0.00702605  0.04662465  1
  S2-  S233  1  0.38344278  -0.00476243  0.54732074  1
  S2-  S234  1  0.36468779  0.25305261  0.03964486  1
  S2-  S235  1  0.38573153  0.24812116  0.54709644  1
  S2-  S236  1  0.37020918  0.50191249  0.03732348  1
  S2-  S237  1  0.37999744  0.49700113  0.54683602  1
  S2-  S238  1  0.37644511  0.74291332  0.04604225  1
  S2-  S239  1  0.38301702  0.74550093  0.54836623  1
  S2-  S240  1  0.61858946  0.00004793  0.04428372  1
  S2-  S241  1  0.62928642  -0.00311871  0.54363995  1
  S2-  S242  1  0.62726213  0.25567406  0.05178103  1
  S2-  S243  1  0.62772526  0.24411164  0.54055162  1
  S2-  S244  1  0.62339886  0.50227172  0.03984752  1
  S2-  S245  1  0.63779956  0.49978785  0.54519905  1
  S2-  S246  1  0.62034225  0.75010574  0.05022170  1
  S2-  S247  1  0.63488145  0.74706022  0.55162137  1
  S2-  S248  1  0.86972482  0.00054613  0.05005117  1
  S2-  S249  1  0.88487860  -0.00544411  0.54229703  1
  S2-  S250  1  0.86649253  0.25041560  0.05621408  1
  S2-  S251  1  0.88329436  0.24689493  0.55978204  1
  S2-  S252  1  0.87270866  0.50293801  0.04164690  1
  S2-  S253  1  0.88057042  0.49414566  0.54353842  1
  S2-  S254  1  0.86880735  0.74923757  0.05208534  1
  S2-  S255  1  0.88807463  0.75073978  0.55480378  1
