# generated using pymatgen
data_La9Ce10Pr6Nd4Sm3(BiS2)32
_symmetry_space_group_name_H-M   'P 1'
_cell_length_a   16.10898630
_cell_length_b   16.12168088
_cell_length_c   27.22090745
_cell_angle_alpha   89.63940494
_cell_angle_beta   89.77541327
_cell_angle_gamma   89.98946170
_symmetry_Int_Tables_number   1
_chemical_formula_structural   La9Ce10Pr6Nd4Sm3(BiS2)32
_chemical_formula_sum   'La18 Ce20 Pr12 Nd8 Sm6 Bi64 S128'
_cell_volume   7069.18241348
_cell_formula_units_Z   2
loop_
 _symmetry_equiv_pos_site_id
 _symmetry_equiv_pos_as_xyz
  1  'x, y, z'
loop_
 _atom_type_symbol
 _atom_type_oxidation_number
  La3+  3.0
  Ce3+  3.0
  Pr3+  3.0
  Nd3+  3.0
  Sm3+  3.0
  Bi2+  2.0
  S2-  -2.0
loop_
 _atom_site_type_symbol
 _atom_site_label
 _atom_site_symmetry_multiplicity
 _atom_site_fract_x
 _atom_site_fract_y
 _atom_site_fract_z
 _atom_site_occupancy
  La3+  La0  1  0.36750717  0.74760254  0.43837312  1
  La3+  La1  1  0.48239248  0.37247707  0.58942939  1
  La3+  La2  1  0.24520540  0.87395298  0.06936774  1
  La3+  La3  1  0.61087002  0.00906795  0.39549815  1
  La3+  La4  1  0.86332426  0.73212271  0.89430007  1
  La3+  La5  1  0.10761538  0.74961385  0.42380648  1
  La3+  La6  1  0.36890233  0.25835959  0.91317388  1
  La3+  La7  1  0.63168306  0.25948369  0.91752665  1
  La3+  La8  1  0.37338107  0.50883480  0.92457642  1
  La3+  La9  1  0.11885515  0.50414358  0.38510700  1
  La3+  La10  1  0.23969743  0.37097500  0.56335064  1
  La3+  La11  1  -0.01161717  0.61497670  0.57634986  1
  La3+  La12  1  0.50120861  0.12455717  0.06072959  1
  La3+  La13  1  0.48096580  0.11210432  0.58673104  1
  La3+  La14  1  0.37658497  0.24111366  0.43821820  1
  La3+  La15  1  0.49856411  0.36916020  0.06176780  1
  La3+  La16  1  0.00038734  0.36730482  0.08006877  1
  La3+  La17  1  0.75068673  0.12983671  0.59648378  1
  Ce3+  Ce18  1  0.37474556  0.75101033  0.94152290  1
  Ce3+  Ce19  1  -0.00935497  0.86566663  0.56431965  1
  Ce3+  Ce20  1  0.48683675  0.62176379  0.56664185  1
  Ce3+  Ce21  1  0.87678207  -0.00556964  0.93429465  1
  Ce3+  Ce22  1  0.85731383  -0.00326398  0.44304769  1
  Ce3+  Ce23  1  0.62665976  0.75451884  0.94678417  1
  Ce3+  Ce24  1  0.49141713  0.86996044  0.56193230  1
  Ce3+  Ce25  1  -0.00115655  0.87473159  0.05950531  1
  Ce3+  Ce26  1  0.86685394  0.49681178  0.43925912  1
  Ce3+  Ce27  1  0.23576268  0.11111289  0.56744808  1
  Ce3+  Ce28  1  0.49743061  0.62316700  0.05679040  1
  Ce3+  Ce29  1  -0.01120571  0.11607249  0.55523145  1
  Ce3+  Ce30  1  0.12071980  0.75135870  0.94169894  1
  Ce3+  Ce31  1  0.12340105  0.25238499  0.93876199  1
  Ce3+  Ce32  1  0.24964479  0.62219731  0.05925133  1
  Ce3+  Ce33  1  0.11924929  0.50170897  0.94689880  1
  Ce3+  Ce34  1  0.61149912  0.49645694  0.44748958  1
  Ce3+  Ce35  1  0.23333982  0.61817738  0.54993878  1
  Ce3+  Ce36  1  0.25139413  0.12659391  0.05290029  1
  Ce3+  Ce37  1  0.37190196  -0.00000125  0.93361066  1
  Pr3+  Pr38  1  0.12801764  -0.00169233  0.93519020  1
  Pr3+  Pr39  1  0.36986175  0.49173708  0.43641906  1
  Pr3+  Pr40  1  0.74335846  0.62682934  0.07042354  1
  Pr3+  Pr41  1  0.61796956  0.74691380  0.43399093  1
  Pr3+  Pr42  1  0.86106631  0.24486483  0.43260282  1
  Pr3+  Pr43  1  0.73898871  0.87264991  0.56465164  1
  Pr3+  Pr44  1  0.23326525  0.86646984  0.56266723  1
  Pr3+  Pr45  1  0.61674785  -0.00280856  0.92791113  1
  Pr3+  Pr46  1  -0.01327367  0.36736210  0.56262451  1
  Pr3+  Pr47  1  0.25744000  0.37588912  0.06527567  1
  Pr3+  Pr48  1  0.11704414  0.24839033  0.44062335  1
  Pr3+  Pr49  1  0.73898965  0.62040463  0.57318131  1
  Nd3+  Nd50  1  0.63178232  0.50187376  0.94026082  1
  Nd3+  Nd51  1  0.73681317  0.37018546  0.56103915  1
  Nd3+  Nd52  1  0.49415046  0.87788044  0.07668279  1
  Nd3+  Nd53  1  0.88048994  0.24930623  0.93606367  1
  Nd3+  Nd54  1  0.86260326  0.74512967  0.44314056  1
  Nd3+  Nd55  1  -0.00592268  0.62624033  0.06416472  1
  Nd3+  Nd56  1  0.61121399  0.24250013  0.45959282  1
  Nd3+  Nd57  1  0.74802566  0.12240692  0.04915299  1
  Sm3+  Sm58  1  0.87429588  0.50183877  0.95410932  1
  Sm3+  Sm59  1  0.11462005  -0.00419564  0.43350636  1
  Sm3+  Sm60  1  0.36836450  -0.00344202  0.44751862  1
  Sm3+  Sm61  1  0.74854569  0.36905805  0.05823997  1
  Sm3+  Sm62  1  0.74835425  0.87686899  0.05846784  1
  Sm3+  Sm63  1  -0.00030368  0.12319685  0.06591236  1
  Bi2+  Bi64  1  0.04062480  0.11169338  0.32623297  1
  Bi2+  Bi65  1  0.01593424  0.11504618  0.85092891  1
  Bi2+  Bi66  1  -0.01978594  0.37765157  0.28204166  1
  Bi2+  Bi67  1  0.01547248  0.30568631  0.81835310  1
  Bi2+  Bi68  1  -0.03370833  0.64947265  0.28846383  1
  Bi2+  Bi69  1  0.05778367  0.62566928  0.77523280  1
  Bi2+  Bi70  1  0.00301870  0.92732696  0.28190047  1
  Bi2+  Bi71  1  0.12257570  0.89694192  0.78503654  1
  Bi2+  Bi72  1  0.23294549  0.09658782  0.29227852  1
  Bi2+  Bi73  1  0.19502112  0.08612892  0.78211856  1
  Bi2+  Bi74  1  0.23454520  0.35478039  0.28650912  1
  Bi2+  Bi75  1  0.22582221  0.39122185  0.79208897  1
  Bi2+  Bi76  1  0.31605950  0.70930206  0.24794341  1
  Bi2+  Bi77  1  0.24556004  0.64087932  0.79097944  1
  Bi2+  Bi78  1  0.20147983  0.90841464  0.26235687  1
  Bi2+  Bi79  1  0.34520540  0.81132050  0.79340774  1
  Bi2+  Bi80  1  0.46006490  0.14758918  0.29504297  1
  Bi2+  Bi81  1  0.52321606  0.06653103  0.79140525  1
  Bi2+  Bi82  1  0.50817435  0.35769396  0.29072557  1
  Bi2+  Bi83  1  0.50606488  0.33770288  0.79275648  1
  Bi2+  Bi84  1  0.53523656  0.63062615  0.31688064  1
  Bi2+  Bi85  1  0.55829381  0.59251936  0.76921720  1
  Bi2+  Bi86  1  0.46111721  0.87445016  0.29447784  1
  Bi2+  Bi87  1  0.53646037  0.79266937  0.76841362  1
  Bi2+  Bi88  1  0.84729297  0.14747893  0.30084392  1
  Bi2+  Bi89  1  0.87092213  0.17153362  0.78348871  1
  Bi2+  Bi90  1  0.70041606  0.42750405  0.29024001  1
  Bi2+  Bi91  1  0.76519110  0.41989094  0.79461216  1
  Bi2+  Bi92  1  0.72387553  0.59965315  0.34897689  1
  Bi2+  Bi93  1  0.75854666  0.63093167  0.78080409  1
  Bi2+  Bi94  1  0.76447346  0.85335420  0.30046984  1
  Bi2+  Bi95  1  0.73789047  0.87665427  0.78825637  1
  Bi2+  Bi96  1  0.06219369  0.01895450  0.18303382  1
  Bi2+  Bi97  1  0.06065405  0.06802511  0.68384504  1
  Bi2+  Bi98  1  0.10158019  0.19189266  0.22598183  1
  Bi2+  Bi99  1  0.12187283  0.24878931  0.71822725  1
  Bi2+  Bi100  1  0.11860900  0.51367793  0.17983922  1
  Bi2+  Bi101  1  0.15331136  0.44303943  0.69023870  1
  Bi2+  Bi102  1  0.11845703  0.74700918  0.21250817  1
  Bi2+  Bi103  1  0.22974013  0.81894096  0.69669595  1
  Bi2+  Bi104  1  0.35632014  0.01090786  0.20393128  1
  Bi2+  Bi105  1  0.32739335  -0.00766803  0.71469036  1
  Bi2+  Bi106  1  0.35642699  0.29074326  0.18713606  1
  Bi2+  Bi107  1  0.38660864  0.24727350  0.71400816  1
  Bi2+  Bi108  1  0.39049312  0.52901812  0.26225173  1
  Bi2+  Bi109  1  0.36667780  0.57136788  0.71170734  1
  Bi2+  Bi110  1  0.49522915  0.76422867  0.20767101  1
  Bi2+  Bi111  1  0.41850456  0.75688257  0.67455449  1
  Bi2+  Bi112  1  0.62035664  -0.00466097  0.20977352  1
  Bi2+  Bi113  1  0.62526584  -0.04739652  0.68978008  1
  Bi2+  Bi114  1  0.63434023  0.23738316  0.20620437  1
  Bi2+  Bi115  1  0.66197007  0.21768302  0.72007127  1
  Bi2+  Bi116  1  0.56850319  0.49251198  0.21486568  1
  Bi2+  Bi117  1  0.70880818  0.51801997  0.69553218  1
  Bi2+  Bi118  1  0.68816884  0.69808400  0.24769564  1
  Bi2+  Bi119  1  0.61322622  0.69384449  0.67599026  1
  Bi2+  Bi120  1  0.86644311  0.03884777  0.20146410  1
  Bi2+  Bi121  1  0.94731801  -0.01696773  0.76850871  1
  Bi2+  Bi122  1  0.84117946  0.23838756  0.20211750  1
  Bi2+  Bi123  1  0.92235851  0.29536121  0.69460688  1
  Bi2+  Bi124  1  0.84336846  0.52044063  0.23346170  1
  Bi2+  Bi125  1  0.96019484  0.46059526  0.75207376  1
  Bi2+  Bi126  1  0.84033741  0.84852404  0.19603731  1
  Bi2+  Bi127  1  0.90655021  0.77365269  0.69268447  1
  S2-  S128  1  -0.00651030  0.22571048  0.14540440  1
  S2-  S129  1  -0.08134991  0.14578940  0.64290887  1
  S2-  S130  1  -0.03039039  0.43385150  0.17464677  1
  S2-  S131  1  -0.00169214  0.47121458  0.64640141  1
  S2-  S132  1  0.00799818  0.65171299  0.16444158  1
  S2-  S133  1  0.03703151  0.74494385  0.64066154  1
  S2-  S134  1  0.10638816  0.86621576  0.13898008  1
  S2-  S135  1  -0.03814012  0.93197762  0.65559968  1
  S2-  S136  1  0.28493489  0.14270655  0.14892603  1
  S2-  S137  1  0.33411375  0.13314977  0.65029984  1
  S2-  S138  1  0.19297776  0.36158114  0.16159035  1
  S2-  S139  1  0.33130697  0.35862605  0.65128801  1
  S2-  S140  1  0.24321369  0.64196107  0.15741692  1
  S2-  S141  1  0.22368583  0.58352238  0.64760209  1
  S2-  S142  1  0.35759553  0.87413596  0.14773453  1
  S2-  S143  1  0.20482849  0.97624595  0.64112068  1
  S2-  S144  1  0.50683493  0.24397522  0.14045320  1
  S2-  S145  1  0.53892020  0.12334381  0.68714780  1
  S2-  S146  1  0.38674571  0.42285779  0.13642134  1
  S2-  S147  1  0.53962621  0.33014158  0.68832234  1
  S2-  S148  1  0.53841586  0.62792181  0.15168889  1
  S2-  S149  1  0.48025945  0.52493088  0.64740767  1
  S2-  S150  1  0.50294388  1.01397028  0.14354403  1
  S2-  S151  1  0.45849567  0.93338315  0.65215605  1
  S2-  S152  1  0.69030276  0.11726130  0.14531663  1
  S2-  S153  1  0.73944342  0.06594899  0.69307598  1
  S2-  S154  1  0.73935577  0.35214283  0.15616956  1
  S2-  S155  1  0.76299773  0.29395813  0.65008947  1
  S2-  S156  1  0.77246851  0.62351382  0.17016778  1
  S2-  S157  1  0.85003600  0.63064699  0.65259428  1
  S2-  S158  1  0.68373160  0.86984357  0.15098390  1
  S2-  S159  1  0.74705326  0.84470300  0.66687707  1
  S2-  S160  1  0.11737227  -0.11252051  0.35574907  1
  S2-  S161  1  0.24698418  -0.01477987  0.85724269  1
  S2-  S162  1  0.10071389  0.33076215  0.35074158  1
  S2-  S163  1  0.21456728  0.26475551  0.85501659  1
  S2-  S164  1  0.11850885  0.48177476  0.27336697  1
  S2-  S165  1  0.13490507  0.51380889  0.84920837  1
  S2-  S166  1  0.11068702  0.66158856  0.33560340  1
  S2-  S167  1  0.11224395  0.75510448  0.84330521  1
  S2-  S168  1  0.43647508  0.01110968  0.35626770  1
  S2-  S169  1  0.47966764  -0.03723245  0.86017367  1
  S2-  S170  1  0.31032311  0.23218279  0.34084454  1
  S2-  S171  1  0.40854963  0.19176572  0.81661683  1
  S2-  S172  1  0.28666948  0.48326464  0.34441408  1
  S2-  S173  1  0.37541993  0.40738534  0.84308755  1
  S2-  S174  1  0.34283526  0.77752121  0.33986509  1
  S2-  S175  1  0.37353218  0.65489475  0.85746993  1
  S2-  S176  1  0.60947497  0.08584843  0.29684212  1
  S2-  S177  1  0.67833041  0.00571170  0.82949520  1
  S2-  S178  1  0.52510025  0.23991559  0.37162667  1
  S2-  S179  1  0.60809801  0.20492732  0.82152291  1
  S2-  S180  1  0.50758657  0.47591060  0.36955198  1
  S2-  S181  1  0.62248185  0.41941712  0.85232404  1
  S2-  S182  1  0.60713968  0.85136077  0.34988101  1
  S2-  S183  1  0.69750846  0.74465382  0.85658553  1
  S2-  S184  1  0.78549235  -0.00421994  0.35296630  1
  S2-  S185  1  0.87257768  -0.10380220  0.85086478  1
  S2-  S186  1  0.84588363  0.30890884  0.33729597  1
  S2-  S187  1  0.79276881  0.27781677  0.85072416  1
  S2-  S188  1  0.94843206  0.50341494  0.35060958  1
  S2-  S189  1  0.83881599  0.54629773  0.86168183  1
  S2-  S190  1  0.90478807  0.76587021  0.34510581  1
  S2-  S191  1  0.91642404  0.71222013  0.79271933  1
  S2-  S192  1  -0.01190630  0.12034419  0.44992296  1
  S2-  S193  1  -0.00066453  0.12355286  0.96234160  1
  S2-  S194  1  -0.01472683  0.36702821  0.45626470  1
  S2-  S195  1  -0.00379372  0.37729677  0.96198058  1
  S2-  S196  1  -0.01408363  0.62127679  0.45468327  1
  S2-  S197  1  -0.00918444  0.63068607  0.95464673  1
  S2-  S198  1  -0.01676027  0.87584845  0.45532936  1
  S2-  S199  1  0.00004601  0.87521091  0.95361392  1
  S2-  S200  1  0.23900166  0.11633654  0.45471422  1
  S2-  S201  1  0.24923685  0.12889705  0.94940606  1
  S2-  S202  1  0.24580118  0.36544484  0.45534732  1
  S2-  S203  1  0.24552278  0.38241079  0.95691241  1
  S2-  S204  1  0.23991928  0.62010806  0.44336545  1
  S2-  S205  1  0.24328353  0.62793495  0.95454980  1
  S2-  S206  1  0.24274766  0.87534281  0.45439629  1
  S2-  S207  1  0.24945242  0.86891491  0.95935152  1
  S2-  S208  1  0.49647545  0.10877530  0.46847585  1
  S2-  S209  1  0.49838017  0.12982728  0.94640934  1
  S2-  S210  1  0.49159482  0.37031314  0.47570129  1
  S2-  S211  1  0.50114317  0.37896133  0.95157154  1
  S2-  S212  1  0.49216826  0.62544767  0.45943866  1
  S2-  S213  1  0.50766359  0.62630558  0.95137121  1
  S2-  S214  1  0.49266036  0.87346678  0.45652081  1
  S2-  S215  1  0.49744719  0.86902739  0.96434262  1
  S2-  S216  1  0.73123605  0.12151920  0.44683591  1
  S2-  S217  1  0.75350921  0.12208986  0.94402094  1
  S2-  S218  1  0.73524218  0.37031629  0.45403889  1
  S2-  S219  1  0.75612969  0.37833158  0.95612701  1
  S2-  S220  1  0.73919565  0.62069147  0.46464035  1
  S2-  S221  1  0.75091292  0.62863341  0.96375060  1
  S2-  S222  1  0.73656073  0.87167094  0.45771041  1
  S2-  S223  1  0.75278348  0.87369801  0.95523731  1
  S2-  S224  1  0.12306568  0.00401586  0.04212417  1
  S2-  S225  1  0.10893338  -0.00729866  0.53680958  1
  S2-  S226  1  0.12526568  0.24822751  0.04570509  1
  S2-  S227  1  0.11368838  0.24206323  0.55101616  1
  S2-  S228  1  0.12033701  0.49987372  0.05326049  1
  S2-  S229  1  0.11389061  0.49275810  0.54411849  1
  S2-  S230  1  0.12165064  0.74294592  0.04583531  1
  S2-  S231  1  0.11493818  0.74360922  0.53289529  1
  S2-  S232  1  0.37202995  -0.00086852  0.04073106  1
  S2-  S233  1  0.36083100  -0.01093662  0.54838909  1
  S2-  S234  1  0.37306504  0.24914079  0.03419710  1
  S2-  S235  1  0.36323726  0.23833776  0.54668856  1
  S2-  S236  1  0.37500755  0.50686540  0.03295636  1
  S2-  S237  1  0.36255724  0.50080399  0.54384856  1
  S2-  S238  1  0.37461454  0.74613208  0.04806667  1
  S2-  S239  1  0.36133592  0.74520747  0.54662418  1
  S2-  S240  1  0.62562892  -0.00370086  0.03649402  1
  S2-  S241  1  0.61908699  -0.00031288  0.56815793  1
  S2-  S242  1  0.63006877  0.24961649  0.03226334  1
  S2-  S243  1  0.61157663  0.24110157  0.56356947  1
  S2-  S244  1  0.62646689  0.49628998  0.04829286  1
  S2-  S245  1  0.61514450  0.49551959  0.55339978  1
  S2-  S246  1  0.62117064  0.75301728  0.05126891  1
  S2-  S247  1  0.61478800  0.74558510  0.54596666  1
  S2-  S248  1  0.87514887  -0.00010480  0.04727799  1
  S2-  S249  1  0.85846973  -0.00020756  0.54855995  1
  S2-  S250  1  0.87210368  0.24708404  0.04390628  1
  S2-  S251  1  0.86062932  0.24471277  0.53906996  1
  S2-  S252  1  0.87003177  0.49722891  0.05827212  1
  S2-  S253  1  0.85954788  0.49220614  0.54651819  1
  S2-  S254  1  0.87141916  0.75251031  0.06095245  1
  S2-  S255  1  0.86308539  0.74663682  0.54826356  1
