# generated using pymatgen
data_La9Ce10Pr6Nd4Sm3(BiS2)32
_symmetry_space_group_name_H-M   'P 1'
_cell_length_a   16.17876047
_cell_length_b   16.14985900
_cell_length_c   27.13973443
_cell_angle_alpha   89.94225528
_cell_angle_beta   89.98151939
_cell_angle_gamma   89.99925157
_symmetry_Int_Tables_number   1
_chemical_formula_structural   La9Ce10Pr6Nd4Sm3(BiS2)32
_chemical_formula_sum   'La18 Ce20 Pr12 Nd8 Sm6 Bi64 S128'
_cell_volume   7091.19341094
_cell_formula_units_Z   2
loop_
 _symmetry_equiv_pos_site_id
 _symmetry_equiv_pos_as_xyz
  1  'x, y, z'
loop_
 _atom_type_symbol
 _atom_type_oxidation_number
  La3+  3.0
  Ce3+  3.0
  Pr3+  3.0
  Nd3+  3.0
  Sm3+  3.0
  Bi2+  2.0
  S2-  -2.0
loop_
 _atom_site_type_symbol
 _atom_site_label
 _atom_site_symmetry_multiplicity
 _atom_site_fract_x
 _atom_site_fract_y
 _atom_site_fract_z
 _atom_site_occupancy
  La3+  La0  1  0.62473328  0.75976277  0.39827241  1
  La3+  La1  1  0.25989712  0.62409920  0.07003053  1
  La3+  La2  1  0.63522666  -0.00585247  0.90948379  1
  La3+  La3  1  0.00286929  0.12350229  0.09900321  1
  La3+  La4  1  0.85134652  0.00438194  0.42309852  1
  La3+  La5  1  0.12189730  0.01519342  0.41069946  1
  La3+  La6  1  0.88412557  0.25406559  0.92582645  1
  La3+  La7  1  0.10788876  0.26740736  0.41950923  1
  La3+  La8  1  0.12410817  0.74464854  0.88885005  1
  La3+  La9  1  0.74008434  0.39188616  0.58123900  1
  La3+  La10  1  0.35479506  0.75708960  0.41982530  1
  La3+  La11  1  0.48492299  0.14032787  0.57891798  1
  La3+  La12  1  0.00792271  0.62383500  0.06474822  1
  La3+  La13  1  0.36839295  0.01415509  0.43244343  1
  La3+  La14  1  0.26043412  0.12046219  0.09773491  1
  La3+  La15  1  0.23516453  0.13797448  0.56079732  1
  La3+  La16  1  0.23986859  0.39250565  0.56232837  1
  La3+  La17  1  0.85954061  0.26777311  0.43330037  1
  Ce3+  Ce18  1  0.36529099  0.26255768  0.43711156  1
  Ce3+  Ce19  1  0.00678149  0.36605079  0.06334098  1
  Ce3+  Ce20  1  0.63372873  0.75095656  0.93945479  1
  Ce3+  Ce21  1  0.36486502  0.51292122  0.43394540  1
  Ce3+  Ce22  1  0.50599355  0.12157449  0.05721491  1
  Ce3+  Ce23  1  0.48880943  0.38700941  0.55962292  1
  Ce3+  Ce24  1  0.13592783  0.24957991  0.94584261  1
  Ce3+  Ce25  1  0.50623728  0.87662737  0.06065001  1
  Ce3+  Ce26  1  0.01201683  0.88012535  0.05483517  1
  Ce3+  Ce27  1  0.38011870  -0.00097024  0.94189657  1
  Ce3+  Ce28  1  0.38147358  0.50078895  0.94189107  1
  Ce3+  Ce29  1  0.75987513  0.36831736  0.05832128  1
  Ce3+  Ce30  1  0.13563581  -0.00314579  0.94036655  1
  Ce3+  Ce31  1  -0.00931785  0.63701634  0.56802431  1
  Ce3+  Ce32  1  0.61384504  0.51574166  0.43963995  1
  Ce3+  Ce33  1  0.73672470  0.63721986  0.56816139  1
  Ce3+  Ce34  1  0.38344856  0.24750184  0.94265920  1
  Ce3+  Ce35  1  0.76142549  0.12300375  0.05654869  1
  Ce3+  Ce36  1  0.63313323  0.49938553  0.94292452  1
  Ce3+  Ce37  1  0.50872055  0.37089640  0.05886034  1
  Pr3+  Pr38  1  0.75991252  0.62310194  0.06247113  1
  Pr3+  Pr39  1  -0.00238235  0.37739457  0.57009233  1
  Pr3+  Pr40  1  0.25806918  0.37396335  0.07214055  1
  Pr3+  Pr41  1  0.51223436  0.62638228  0.05770118  1
  Pr3+  Pr42  1  -0.01022792  0.88931290  0.54874065  1
  Pr3+  Pr43  1  0.61375344  0.01087209  0.44419333  1
  Pr3+  Pr44  1  0.37830327  0.75319218  0.93592853  1
  Pr3+  Pr45  1  0.88506185  0.00073042  0.93324388  1
  Pr3+  Pr46  1  0.73912508  0.88690046  0.56985260  1
  Pr3+  Pr47  1  0.88335649  0.74897212  0.94142897  1
  Pr3+  Pr48  1  0.86298541  0.75733229  0.44354546  1
  Pr3+  Pr49  1  0.48813226  0.64133143  0.55349244  1
  Nd3+  Nd50  1  0.75983486  0.87826757  0.06407275  1
  Nd3+  Nd51  1  0.11219386  0.75985377  0.43760411  1
  Nd3+  Nd52  1  0.61588722  0.26297868  0.44157994  1
  Nd3+  Nd53  1  0.11162487  0.51380802  0.43774144  1
  Nd3+  Nd54  1  0.88403320  0.49777903  0.93898973  1
  Nd3+  Nd55  1  0.23887811  0.63828973  0.56917014  1
  Nd3+  Nd56  1  -0.01229410  0.13415235  0.54579535  1
  Nd3+  Nd57  1  0.86045810  0.51326511  0.45117078  1
  Sm3+  Sm58  1  0.73936900  0.13737461  0.56304919  1
  Sm3+  Sm59  1  0.13768185  0.49386218  0.93928610  1
  Sm3+  Sm60  1  0.48853740  0.88475287  0.55173883  1
  Sm3+  Sm61  1  0.25623970  0.87195667  0.06428688  1
  Sm3+  Sm62  1  0.24040691  0.88254387  0.55940373  1
  Sm3+  Sm63  1  0.63207513  0.24804394  0.94124800  1
  Bi2+  Bi64  1  0.01202542  0.12745752  0.28789785  1
  Bi2+  Bi65  1  0.01310723  0.15907421  0.78861533  1
  Bi2+  Bi66  1  -0.03436548  0.39074352  0.29275794  1
  Bi2+  Bi67  1  0.03066672  0.35994458  0.78604109  1
  Bi2+  Bi68  1  0.01833546  0.64348881  0.33890744  1
  Bi2+  Bi69  1  -0.00570588  0.61810735  0.78199566  1
  Bi2+  Bi70  1  -0.00244640  0.81390773  0.27817412  1
  Bi2+  Bi71  1  0.02216923  0.96673809  0.77487746  1
  Bi2+  Bi72  1  0.28534893  0.11546302  0.28567032  1
  Bi2+  Bi73  1  0.21189490  0.12863769  0.79919519  1
  Bi2+  Bi74  1  0.33346856  0.38272245  0.32034881  1
  Bi2+  Bi75  1  0.22664045  0.32806481  0.77758679  1
  Bi2+  Bi76  1  0.20172680  0.63150158  0.29317482  1
  Bi2+  Bi77  1  0.24687962  0.60165612  0.78700223  1
  Bi2+  Bi78  1  0.27282184  0.86144223  0.27771609  1
  Bi2+  Bi79  1  0.27135627  0.87277121  0.78832814  1
  Bi2+  Bi80  1  0.52599210  0.15799268  0.29289161  1
  Bi2+  Bi81  1  0.40971744  0.10009128  0.80172260  1
  Bi2+  Bi82  1  0.52832473  0.35382760  0.32917298  1
  Bi2+  Bi83  1  0.50021569  0.36430246  0.78297468  1
  Bi2+  Bi84  1  0.48639064  0.54022650  0.30379981  1
  Bi2+  Bi85  1  0.48629721  0.56295899  0.80058789  1
  Bi2+  Bi86  1  0.51148070  0.94936865  0.29447689  1
  Bi2+  Bi87  1  0.51643199  0.75953800  0.79162395  1
  Bi2+  Bi88  1  0.72663971  0.11082516  0.29444906  1
  Bi2+  Bi89  1  0.71871519  0.11261810  0.78613334  1
  Bi2+  Bi90  1  0.71390581  0.37042628  0.29093126  1
  Bi2+  Bi91  1  0.76577159  0.34678830  0.80038128  1
  Bi2+  Bi92  1  0.83740702  0.61426640  0.30145490  1
  Bi2+  Bi93  1  0.69681425  0.62413521  0.80935679  1
  Bi2+  Bi94  1  0.75449325  0.86648580  0.27376897  1
  Bi2+  Bi95  1  0.80324390  0.78905581  0.81105906  1
  Bi2+  Bi96  1  0.12680267  -0.03201423  0.21714219  1
  Bi2+  Bi97  1  0.13786069  -0.02789979  0.67821877  1
  Bi2+  Bi98  1  0.13120045  0.27272551  0.21744914  1
  Bi2+  Bi99  1  0.13531211  0.18074091  0.69397279  1
  Bi2+  Bi100  1  0.17135357  0.44673554  0.26228206  1
  Bi2+  Bi101  1  0.10629340  0.45620862  0.69659055  1
  Bi2+  Bi102  1  0.11682448  0.72563554  0.20201527  1
  Bi2+  Bi103  1  0.08777096  0.78104549  0.68250417  1
  Bi2+  Bi104  1  0.40579135  -0.01210287  0.20301139  1
  Bi2+  Bi105  1  0.32037196  0.01134454  0.71377054  1
  Bi2+  Bi106  1  0.39581348  0.29087736  0.22500834  1
  Bi2+  Bi107  1  0.36818976  0.28333285  0.70522704  1
  Bi2+  Bi108  1  0.37623704  0.49280328  0.21111693  1
  Bi2+  Bi109  1  0.39736397  0.48041988  0.69376413  1
  Bi2+  Bi110  1  0.38430577  0.74723836  0.21115388  1
  Bi2+  Bi111  1  0.38520170  0.75118895  0.70480440  1
  Bi2+  Bi112  1  0.60981785  0.04646686  0.20627459  1
  Bi2+  Bi113  1  0.56669257  -0.05584352  0.72288413  1
  Bi2+  Bi114  1  0.61309876  0.24476648  0.19573480  1
  Bi2+  Bi115  1  0.62128491  0.21053736  0.70472455  1
  Bi2+  Bi116  1  0.69931192  0.51109339  0.21251385  1
  Bi2+  Bi117  1  0.59513233  0.48663428  0.71384880  1
  Bi2+  Bi118  1  0.58995104  0.66835688  0.22460202  1
  Bi2+  Bi119  1  0.67006286  0.74819145  0.71430394  1
  Bi2+  Bi120  1  0.86931505  -0.01747295  0.20967029  1
  Bi2+  Bi121  1  0.83631235  -0.05050906  0.74845206  1
  Bi2+  Bi122  1  0.80775547  0.24822913  0.21742383  1
  Bi2+  Bi123  1  0.87643117  0.24234427  0.69349426  1
  Bi2+  Bi124  1  0.90771647  0.50933688  0.21039372  1
  Bi2+  Bi125  1  0.83511360  0.55241941  0.73431556  1
  Bi2+  Bi126  1  0.92247397  0.70276773  0.19254778  1
  Bi2+  Bi127  1  0.86878084  0.73566331  0.70319361  1
  S2-  S128  1  0.12668387  0.11754905  0.17202776  1
  S2-  S129  1  -0.01516860  0.14987660  0.64646104  1
  S2-  S130  1  0.00594530  0.28893381  0.15091728  1
  S2-  S131  1  -0.05191779  0.39993642  0.66772269  1
  S2-  S132  1  0.04570875  0.57810625  0.16135530  1
  S2-  S133  1  0.06499820  0.61800965  0.65542247  1
  S2-  S134  1  0.00003998  0.94870725  0.14558812  1
  S2-  S135  1  -0.02128443  0.91102420  0.64869726  1
  S2-  S136  1  0.26603994  0.27006009  0.15607876  1
  S2-  S137  1  0.33798340  0.13820690  0.64466665  1
  S2-  S138  1  0.25962657  0.50149740  0.14603008  1
  S2-  S139  1  0.14058533  0.32424691  0.63655023  1
  S2-  S140  1  0.26684739  0.75197561  0.14404420  1
  S2-  S141  1  0.25223853  0.51382011  0.64303247  1
  S2-  S142  1  0.25402719  0.96498486  0.15114569  1
  S2-  S143  1  0.25165982  0.76825389  0.63860708  1
  S2-  S144  1  0.42539194  0.12164917  0.14431363  1
  S2-  S145  1  0.54987042  0.07578859  0.66844702  1
  S2-  S146  1  0.51400863  0.37302055  0.15817734  1
  S2-  S147  1  0.50353574  0.29043919  0.64187941  1
  S2-  S148  1  0.46904504  0.62044570  0.15558752  1
  S2-  S149  1  0.46469212  0.63172769  0.65484190  1
  S2-  S150  1  0.49663294  0.84749632  0.15848841  1
  S2-  S151  1  0.46290510  0.87916568  0.65059580  1
  S2-  S152  1  0.84238084  0.12209194  0.14607815  1
  S2-  S153  1  0.76411812  0.13216294  0.66199248  1
  S2-  S154  1  0.78879813  0.38690360  0.15411816  1
  S2-  S155  1  0.73181189  0.33499425  0.67937702  1
  S2-  S156  1  0.71144121  0.66116191  0.15759978  1
  S2-  S157  1  0.72308073  0.53996363  0.65038090  1
  S2-  S158  1  0.75839857  0.88760634  0.16542905  1
  S2-  S159  1  0.71695748  0.90767964  0.67117844  1
  S2-  S160  1  0.05949534  -0.03802719  0.31740191  1
  S2-  S161  1  0.13446135  -0.08526361  0.85129082  1
  S2-  S162  1  0.15859584  0.17233004  0.33640768  1
  S2-  S163  1  0.14229703  0.35963959  0.86710616  1
  S2-  S164  1  0.10324244  0.41286740  0.35538727  1
  S2-  S165  1  0.11784103  0.57640692  0.85130978  1
  S2-  S166  1  0.20748882  0.77409114  0.35431147  1
  S2-  S167  1  0.12726677  0.73058064  0.77277569  1
  S2-  S168  1  0.26524077  -0.01084519  0.34946010  1
  S2-  S169  1  0.38269067  -0.06047337  0.84877666  1
  S2-  S170  1  0.39227629  0.15116431  0.36251167  1
  S2-  S171  1  0.40820185  0.26211231  0.84539667  1
  S2-  S172  1  0.34636283  0.61000229  0.35311080  1
  S2-  S173  1  0.33552506  0.50846680  0.84630278  1
  S2-  S174  1  0.41711199  0.82433310  0.33011109  1
  S2-  S175  1  0.28879909  0.73284138  0.84981088  1
  S2-  S176  1  0.70187368  -0.02212062  0.35841053  1
  S2-  S177  1  0.57058752  0.03810746  0.81583304  1
  S2-  S178  1  0.72924820  0.25106633  0.36332532  1
  S2-  S179  1  0.64849169  0.24504315  0.84257798  1
  S2-  S180  1  0.62811086  0.59938095  0.35339933  1
  S2-  S181  1  0.68908939  0.46656400  0.85140202  1
  S2-  S182  1  0.60995242  0.80159147  0.29478902  1
  S2-  S183  1  0.62508362  0.83760542  0.85455534  1
  S2-  S184  1  0.88154105  0.05932238  0.32568658  1
  S2-  S185  1  0.78557156  -0.00616496  0.84929059  1
  S2-  S186  1  0.96311018  0.25712307  0.34901920  1
  S2-  S187  1  0.85275685  0.19930856  0.82803328  1
  S2-  S188  1  0.84049152  0.46134192  0.35566990  1
  S2-  S189  1  0.90173879  0.39962226  0.85598410  1
  S2-  S190  1  0.78923776  0.76562993  0.35181473  1
  S2-  S191  1  0.95881371  0.74029357  0.84994836  1
  S2-  S192  1  -0.01507245  0.12632295  0.44201276  1
  S2-  S193  1  0.01127470  0.12543099  0.93467372  1
  S2-  S194  1  -0.01604068  0.39111165  0.46108620  1
  S2-  S195  1  0.00882456  0.37469494  0.96019867  1
  S2-  S196  1  -0.01256994  0.63536010  0.46184433  1
  S2-  S197  1  0.00709448  0.62065791  0.95603479  1
  S2-  S198  1  -0.01291844  0.88565118  0.44097977  1
  S2-  S199  1  0.00744083  0.87363603  0.95039300  1
  S2-  S200  1  0.23998532  0.13884239  0.45301199  1
  S2-  S201  1  0.25821909  0.12467587  0.94422364  1
  S2-  S202  1  0.24097293  0.39017952  0.45293159  1
  S2-  S203  1  0.26442650  0.37402850  0.96297992  1
  S2-  S204  1  0.23349988  0.63403740  0.46016403  1
  S2-  S205  1  0.25690214  0.62171875  0.96004285  1
  S2-  S206  1  0.23592450  0.88775337  0.45629747  1
  S2-  S207  1  0.25635285  0.87403030  0.95882457  1
  S2-  S208  1  0.49589282  0.13887052  0.46496300  1
  S2-  S209  1  0.51202126  0.12142154  0.94873706  1
  S2-  S210  1  0.49035860  0.38834453  0.45471913  1
  S2-  S211  1  0.51017648  0.37404294  0.95062207  1
  S2-  S212  1  0.49422864  0.64509413  0.44776584  1
  S2-  S213  1  0.50805089  0.62690021  0.94909655  1
  S2-  S214  1  0.49553721  0.88126662  0.44612964  1
  S2-  S215  1  0.50797631  0.87665210  0.95478837  1
  S2-  S216  1  0.73975264  0.13341058  0.45900230  1
  S2-  S217  1  0.75428311  0.12393541  0.95060278  1
  S2-  S218  1  0.73508459  0.39158349  0.46638834  1
  S2-  S219  1  0.75567553  0.37189658  0.95514595  1
  S2-  S220  1  0.73565926  0.63878792  0.46167301  1
  S2-  S221  1  0.75961879  0.62307917  0.95398936  1
  S2-  S222  1  0.73307247  0.87610627  0.46194910  1
  S2-  S223  1  0.75868536  0.87589490  0.95715462  1
  S2-  S224  1  0.13337907  0.00600425  0.04623872  1
  S2-  S225  1  0.11572431  0.01063056  0.53796685  1
  S2-  S226  1  0.13340701  0.24046230  0.04982292  1
  S2-  S227  1  0.11128723  0.25607914  0.52890192  1
  S2-  S228  1  0.12926157  0.49307719  0.04595524  1
  S2-  S229  1  0.11035744  0.51245942  0.54402125  1
  S2-  S230  1  0.12822512  0.75069334  0.05262508  1
  S2-  S231  1  0.11219320  0.76243010  0.54328923  1
  S2-  S232  1  0.38000700  -0.00250452  0.04606433  1
  S2-  S233  1  0.36294033  0.00576029  0.54340055  1
  S2-  S234  1  0.38357780  0.24817996  0.04683463  1
  S2-  S235  1  0.36164553  0.26621047  0.54265369  1
  S2-  S236  1  0.39022762  0.49806368  0.04692050  1
  S2-  S237  1  0.36838866  0.51445277  0.54023585  1
  S2-  S238  1  0.38705991  0.75009646  0.04262095  1
  S2-  S239  1  0.36434342  0.76472730  0.53488651  1
  S2-  S240  1  0.63374806  0.00012114  0.05341016  1
  S2-  S241  1  0.61406097  0.01015709  0.55085237  1
  S2-  S242  1  0.63321371  0.24551160  0.04749037  1
  S2-  S243  1  0.62184543  0.26199890  0.54775182  1
  S2-  S244  1  0.63511156  0.49793189  0.05083856  1
  S2-  S245  1  0.60977883  0.51202486  0.54788604  1
  S2-  S246  1  0.63570920  0.75317997  0.04687189  1
  S2-  S247  1  0.61369381  0.76390899  0.56173395  1
  S2-  S248  1  0.88523729  0.00165377  0.04009436  1
  S2-  S249  1  0.85979876  0.01153896  0.54081486  1
  S2-  S250  1  0.88421074  0.24539663  0.03879216  1
  S2-  S251  1  0.86203879  0.26087497  0.54751485  1
  S2-  S252  1  0.88236721  0.49594824  0.04692836  1
  S2-  S253  1  0.86786723  0.51301711  0.55691970  1
  S2-  S254  1  0.88235289  0.75286078  0.04974043  1
  S2-  S255  1  0.86395979  0.76152535  0.55258019  1
