# generated using pymatgen
data_La9Ce10Pr6Nd4Sm3(BiS2)32
_symmetry_space_group_name_H-M   'P 1'
_cell_length_a   16.25161300
_cell_length_b   16.23290698
_cell_length_c   27.02604820
_cell_angle_alpha   89.79482389
_cell_angle_beta   90.07411197
_cell_angle_gamma   89.98816065
_symmetry_Int_Tables_number   1
_chemical_formula_structural   La9Ce10Pr6Nd4Sm3(BiS2)32
_chemical_formula_sum   'La18 Ce20 Pr12 Nd8 Sm6 Bi64 S128'
_cell_volume   7129.71485712
_cell_formula_units_Z   2
loop_
 _symmetry_equiv_pos_site_id
 _symmetry_equiv_pos_as_xyz
  1  'x, y, z'
loop_
 _atom_type_symbol
 _atom_type_oxidation_number
  La3+  3.0
  Ce3+  3.0
  Pr3+  3.0
  Nd3+  3.0
  Sm3+  3.0
  Bi2+  2.0
  S2-  -2.0
loop_
 _atom_site_type_symbol
 _atom_site_label
 _atom_site_symmetry_multiplicity
 _atom_site_fract_x
 _atom_site_fract_y
 _atom_site_fract_z
 _atom_site_occupancy
  La3+  La0  1  0.13625084  0.74321361  0.92587177  1
  La3+  La1  1  0.00584366  0.62526083  0.59258122  1
  La3+  La2  1  0.51080003  0.61736253  0.06792872  1
  La3+  La3  1  0.37694532  0.24482156  0.90455147  1
  La3+  La4  1  0.14671410  0.48905254  0.92437165  1
  La3+  La5  1  0.86934654  0.51943075  0.42825957  1
  La3+  La6  1  0.26228619  0.61647357  0.06724517  1
  La3+  La7  1  0.74559008  0.62500507  0.58401981  1
  La3+  La8  1  0.62057671  0.01091825  0.42858723  1
  La3+  La9  1  0.86864009  0.00694393  0.41643752  1
  La3+  La10  1  0.01387423  0.61667586  0.05592355  1
  La3+  La11  1  0.88514248  0.27132772  0.40282695  1
  La3+  La12  1  0.76473603  0.61358919  0.07488283  1
  La3+  La13  1  0.13618693  0.26774360  0.42144310  1
  La3+  La14  1  0.75742373  0.11308310  0.10220307  1
  La3+  La15  1  0.62254126  0.26445047  0.42993514  1
  La3+  La16  1  0.75719953  0.89474457  0.57972393  1
  La3+  La17  1  0.12758958  0.51838644  0.43293875  1
  Ce3+  Ce18  1  0.63434197  0.49136153  0.94458003  1
  Ce3+  Ce19  1  -0.00249134  0.88428201  0.55592335  1
  Ce3+  Ce20  1  0.37523064  0.01030364  0.43176272  1
  Ce3+  Ce21  1  0.13441693  0.23910966  0.94333053  1
  Ce3+  Ce22  1  0.76007925  0.86270086  0.06925063  1
  Ce3+  Ce23  1  0.25889875  0.86800653  0.05411247  1
  Ce3+  Ce24  1  0.63545880  0.74174784  0.94198527  1
  Ce3+  Ce25  1  0.24992098  0.88536138  0.56079992  1
  Ce3+  Ce26  1  0.88182116  0.24053189  0.95283534  1
  Ce3+  Ce27  1  0.01041278  0.36712220  0.05114533  1
  Ce3+  Ce28  1  0.50296316  0.63658026  0.56978220  1
  Ce3+  Ce29  1  0.00786984  0.86724430  0.05478087  1
  Ce3+  Ce30  1  -0.00091486  0.38737978  0.55101039  1
  Ce3+  Ce31  1  0.49778997  0.38061420  0.56266298  1
  Ce3+  Ce32  1  0.12295134  0.75558964  0.44495109  1
  Ce3+  Ce33  1  0.63859008  -0.00398053  0.94375014  1
  Ce3+  Ce34  1  0.63549775  0.24128215  0.94672415  1
  Ce3+  Ce35  1  0.87338606  0.75428687  0.45290649  1
  Ce3+  Ce36  1  0.37154894  0.26149617  0.43892770  1
  Ce3+  Ce37  1  0.76148162  0.36820550  0.07480993  1
  Pr3+  Pr38  1  0.62763296  0.75945336  0.44647610  1
  Pr3+  Pr39  1  0.88249403  0.49148741  0.93497771  1
  Pr3+  Pr40  1  0.38540391  0.74267581  0.93060813  1
  Pr3+  Pr41  1  0.75283273  0.38318528  0.55583626  1
  Pr3+  Pr42  1  0.88314797  0.74319615  0.93216391  1
  Pr3+  Pr43  1  0.50795137  0.11846518  0.06557371  1
  Pr3+  Pr44  1  0.75538485  0.13737942  0.55065921  1
  Pr3+  Pr45  1  0.37416047  0.75985262  0.44672532  1
  Pr3+  Pr46  1  0.50950534  0.86854739  0.05743032  1
  Pr3+  Pr47  1  0.13265099  -0.00311723  0.94265600  1
  Pr3+  Pr48  1  0.38603057  -0.00270175  0.93473558  1
  Pr3+  Pr49  1  0.00064727  0.13808812  0.54151147  1
  Nd3+  Nd50  1  0.50917079  0.36458470  0.05805336  1
  Nd3+  Nd51  1  0.25723838  0.11710401  0.06833201  1
  Nd3+  Nd52  1  0.01017021  0.11708657  0.07871043  1
  Nd3+  Nd53  1  0.24812550  0.13555371  0.56167048  1
  Nd3+  Nd54  1  0.24681501  0.38871764  0.56819402  1
  Nd3+  Nd55  1  0.62145981  0.51274213  0.44122764  1
  Nd3+  Nd56  1  0.50139042  0.88961307  0.55922020  1
  Nd3+  Nd57  1  0.12564437  0.00849632  0.43432537  1
  Sm3+  Sm58  1  0.25178761  0.64007958  0.56918013  1
  Sm3+  Sm59  1  0.49730546  0.13521071  0.55558828  1
  Sm3+  Sm60  1  0.38375955  0.49120344  0.94558801  1
  Sm3+  Sm61  1  0.37488852  0.51265019  0.45368144  1
  Sm3+  Sm62  1  0.25874142  0.36627482  0.06361018  1
  Sm3+  Sm63  1  0.88084430  -0.00420485  0.94764100  1
  Bi2+  Bi64  1  0.00639472  0.13583175  0.27449051  1
  Bi2+  Bi65  1  0.00576763  0.16854481  0.81152837  1
  Bi2+  Bi66  1  0.03257444  0.40072347  0.28300898  1
  Bi2+  Bi67  1  0.00079295  0.32934604  0.74793979  1
  Bi2+  Bi68  1  -0.00787216  0.62656505  0.29345106  1
  Bi2+  Bi69  1  -0.00573047  0.64393351  0.78548174  1
  Bi2+  Bi70  1  0.00629841  0.81881131  0.28534826  1
  Bi2+  Bi71  1  -0.03329883  0.98619767  0.78300642  1
  Bi2+  Bi72  1  0.27819832  0.05720281  0.30846641  1
  Bi2+  Bi73  1  0.21715130  0.12323799  0.78378637  1
  Bi2+  Bi74  1  0.28053930  0.28507497  0.25552437  1
  Bi2+  Bi75  1  0.26949004  0.36558760  0.78293820  1
  Bi2+  Bi76  1  0.22051147  0.56509907  0.29422794  1
  Bi2+  Bi77  1  0.24232742  0.60441519  0.78937101  1
  Bi2+  Bi78  1  0.23568011  0.86087152  0.30590336  1
  Bi2+  Bi79  1  0.27405511  0.88939066  0.80499049  1
  Bi2+  Bi80  1  0.47263729  0.12437589  0.28270966  1
  Bi2+  Bi81  1  0.47697272  0.04150764  0.77961531  1
  Bi2+  Bi82  1  0.46399199  0.31409543  0.31995072  1
  Bi2+  Bi83  1  0.58415741  0.35605967  0.78855671  1
  Bi2+  Bi84  1  0.50299576  0.51628415  0.31765806  1
  Bi2+  Bi85  1  0.45411734  0.64909391  0.79948243  1
  Bi2+  Bi86  1  0.44195861  0.87137155  0.28494991  1
  Bi2+  Bi87  1  0.45615135  0.84870971  0.81191687  1
  Bi2+  Bi88  1  0.74406287  0.10723684  0.27964530  1
  Bi2+  Bi89  1  0.73799960  0.10717252  0.81758714  1
  Bi2+  Bi90  1  0.64059688  0.38107088  0.29887098  1
  Bi2+  Bi91  1  0.80077925  0.35573600  0.78566463  1
  Bi2+  Bi92  1  0.73836012  0.64942191  0.29861848  1
  Bi2+  Bi93  1  0.73936541  0.62793693  0.80484213  1
  Bi2+  Bi94  1  0.71254013  0.84063701  0.28617548  1
  Bi2+  Bi95  1  0.68063922  0.87961960  0.76688041  1
  Bi2+  Bi96  1  0.16466898  -0.02915482  0.21194846  1
  Bi2+  Bi97  1  0.11270034  -0.00916220  0.70432022  1
  Bi2+  Bi98  1  0.11609398  0.24900596  0.20486606  1
  Bi2+  Bi99  1  0.10401223  0.18398906  0.69696805  1
  Bi2+  Bi100  1  0.10139559  0.50511346  0.17922531  1
  Bi2+  Bi101  1  0.13922231  0.45449963  0.70450435  1
  Bi2+  Bi102  1  0.15312441  0.76903714  0.21504232  1
  Bi2+  Bi103  1  0.13735033  0.80718536  0.73618802  1
  Bi2+  Bi104  1  0.36243159  -0.00754922  0.20515365  1
  Bi2+  Bi105  1  0.32912610  -0.02867887  0.70036658  1
  Bi2+  Bi106  1  0.37977721  0.17807722  0.17390124  1
  Bi2+  Bi107  1  0.40468482  0.24508698  0.69813594  1
  Bi2+  Bi108  1  0.39098974  0.43722595  0.22517783  1
  Bi2+  Bi109  1  0.40974285  0.50616782  0.71982752  1
  Bi2+  Bi110  1  0.35719233  0.70888285  0.24631985  1
  Bi2+  Bi111  1  0.35468382  0.68587820  0.69728267  1
  Bi2+  Bi112  1  0.62384111  -0.02406309  0.21941189  1
  Bi2+  Bi113  1  0.61272873  0.02933192  0.70044110  1
  Bi2+  Bi114  1  0.55642635  0.24614784  0.20513153  1
  Bi2+  Bi115  1  0.68710305  0.24483673  0.71578739  1
  Bi2+  Bi116  1  0.58432151  0.53813654  0.21311392  1
  Bi2+  Bi117  1  0.60200250  0.53528182  0.73666976  1
  Bi2+  Bi118  1  0.59231227  0.72471283  0.19856280  1
  Bi2+  Bi119  1  0.53750549  0.77430024  0.71112182  1
  Bi2+  Bi120  1  0.90212265  -0.03863265  0.21146718  1
  Bi2+  Bi121  1  0.84563529  0.10303482  0.72055884  1
  Bi2+  Bi122  1  0.86531995  0.30829789  0.21053281  1
  Bi2+  Bi123  1  0.85288330  0.27874716  0.66180235  1
  Bi2+  Bi124  1  0.85700248  0.48920697  0.24167124  1
  Bi2+  Bi125  1  0.85987695  0.49136473  0.70591435  1
  Bi2+  Bi126  1  0.87766937  0.72784232  0.21675726  1
  Bi2+  Bi127  1  0.88332218  0.79534139  0.70619519  1
  S2-  S128  1  -0.08844206  0.10605103  0.16355733  1
  S2-  S129  1  -0.03903342  0.14363150  0.64019718  1
  S2-  S130  1  0.00759615  0.35960751  0.15056711  1
  S2-  S131  1  0.00053060  0.46383909  0.64144254  1
  S2-  S132  1  -0.02185166  0.61214592  0.15532491  1
  S2-  S133  1  0.03499615  0.72288539  0.68129554  1
  S2-  S134  1  0.01008707  0.86896438  0.15249925  1
  S2-  S135  1  -0.08348508  0.90807850  0.64116418  1
  S2-  S136  1  0.14296484  0.10832549  0.14806844  1
  S2-  S137  1  0.31707250  0.11830872  0.65424066  1
  S2-  S138  1  0.25595625  0.42278770  0.15787461  1
  S2-  S139  1  0.26173045  0.34004326  0.66584533  1
  S2-  S140  1  0.19986739  0.63023897  0.16142276  1
  S2-  S141  1  0.18263727  0.58222075  0.65182246  1
  S2-  S142  1  0.27033936  0.86253599  0.15200756  1
  S2-  S143  1  0.25892237  0.82367006  0.65355737  1
  S2-  S144  1  0.59910126  0.10043361  0.15395388  1
  S2-  S145  1  0.52176542  0.16446523  0.65303774  1
  S2-  S146  1  0.52329865  0.40110528  0.15664444  1
  S2-  S147  1  0.48607004  0.38144804  0.66168775  1
  S2-  S148  1  0.44423309  0.64382024  0.16006658  1
  S2-  S149  1  0.59999841  0.63602252  0.65143809  1
  S2-  S150  1  0.53247299  0.86426509  0.15832532  1
  S2-  S151  1  0.49022754  0.91912677  0.65826823  1
  S2-  S152  1  0.73973744  0.26379940  0.15914522  1
  S2-  S153  1  0.74120074  0.04231729  0.63644919  1
  S2-  S154  1  0.77663584  0.48812014  0.15066501  1
  S2-  S155  1  0.73785852  0.46655039  0.64531709  1
  S2-  S156  1  0.75235517  0.73608192  0.14703561  1
  S2-  S157  1  0.85998103  0.64048894  0.66144543  1
  S2-  S158  1  0.75974215  0.95589138  0.15384169  1
  S2-  S159  1  0.72577485  0.82186472  0.67570832  1
  S2-  S160  1  0.12020250  0.04747361  0.33539577  1
  S2-  S161  1  0.15882813  0.00252097  0.84208796  1
  S2-  S162  1  0.03573609  0.25450952  0.33908281  1
  S2-  S163  1  0.21363036  0.25756731  0.85526333  1
  S2-  S164  1  0.15685071  0.42729915  0.34652567  1
  S2-  S165  1  0.09110869  0.54075332  0.83026095  1
  S2-  S166  1  0.12852211  0.65587056  0.36248944  1
  S2-  S167  1  0.05807342  0.76608513  0.83322239  1
  S2-  S168  1  0.48943251  0.00127400  0.35416681  1
  S2-  S169  1  0.37827201  0.09709104  0.85058821  1
  S2-  S170  1  0.27586852  0.24660877  0.35691829  1
  S2-  S171  1  0.41472774  0.30988737  0.80923491  1
  S2-  S172  1  0.33859319  0.53503777  0.35737393  1
  S2-  S173  1  0.29392489  0.48340069  0.86010649  1
  S2-  S174  1  0.36812231  0.75358248  0.34515187  1
  S2-  S175  1  0.26512013  0.72579995  0.85517248  1
  S2-  S176  1  0.72399280  -0.01975137  0.35034602  1
  S2-  S177  1  0.61798764  -0.00697304  0.84435920  1
  S2-  S178  1  0.65529632  0.20969185  0.33347319  1
  S2-  S179  1  0.61378816  0.22357950  0.84881283  1
  S2-  S180  1  0.71349919  0.51782831  0.35647437  1
  S2-  S181  1  0.62145061  0.50587975  0.84589336  1
  S2-  S182  1  0.60997755  0.74426235  0.34473362  1
  S2-  S183  1  0.65207226  0.75317182  0.84340609  1
  S2-  S184  1  0.91145697  0.01549545  0.31482719  1
  S2-  S185  1  0.84256240  -0.02477821  0.85073762  1
  S2-  S186  1  0.85389830  0.21836048  0.30201567  1
  S2-  S187  1  0.85661496  0.22736816  0.85497336  1
  S2-  S188  1  0.89560738  0.42159208  0.34242085  1
  S2-  S189  1  0.85378146  0.50028463  0.83430824  1
  S2-  S190  1  0.87511340  0.66922752  0.36621696  1
  S2-  S191  1  0.86023586  0.72816642  0.82980527  1
  S2-  S192  1  0.00095228  0.13337563  0.43679234  1
  S2-  S193  1  0.00676965  0.11681319  0.96212427  1
  S2-  S194  1  0.00451800  0.38907934  0.44701035  1
  S2-  S195  1  0.01120078  0.36745768  0.94180952  1
  S2-  S196  1  0.00088515  0.63735828  0.46686163  1
  S2-  S197  1  0.00988085  0.61651534  0.94635438  1
  S2-  S198  1  -0.00028445  0.88265736  0.44560583  1
  S2-  S199  1  0.00584004  0.87204371  0.94675207  1
  S2-  S200  1  0.24869757  0.12920933  0.45552450  1
  S2-  S201  1  0.25966637  0.11872238  0.96030618  1
  S2-  S202  1  0.25628734  0.38965282  0.46037910  1
  S2-  S203  1  0.26591755  0.36135783  0.95920935  1
  S2-  S204  1  0.25392297  0.63743304  0.46527864  1
  S2-  S205  1  0.26348100  0.61570183  0.95883131  1
  S2-  S206  1  0.24881946  0.88445477  0.45231380  1
  S2-  S207  1  0.26102560  0.87265135  0.94881998  1
  S2-  S208  1  0.49574029  0.13979065  0.44982563  1
  S2-  S209  1  0.50766274  0.12068486  0.95679017  1
  S2-  S210  1  0.49608478  0.38790024  0.45480334  1
  S2-  S211  1  0.50409652  0.36582550  0.94946879  1
  S2-  S212  1  0.49845163  0.63564189  0.45993463  1
  S2-  S213  1  0.50623745  0.61577958  0.95538197  1
  S2-  S214  1  0.49865486  0.88190167  0.45365395  1
  S2-  S215  1  0.50979687  0.86920375  0.95005455  1
  S2-  S216  1  0.75305553  0.14048446  0.44252746  1
  S2-  S217  1  0.75964145  0.11729978  0.96111956  1
  S2-  S218  1  0.74936929  0.38288765  0.44807575  1
  S2-  S219  1  0.75862198  0.36804175  0.95830482  1
  S2-  S220  1  0.74380972  0.63429062  0.46848380  1
  S2-  S221  1  0.75929514  0.61682442  0.95636794  1
  S2-  S222  1  0.75146081  0.88137522  0.45870633  1
  S2-  S223  1  0.76026693  0.86752389  0.95704584  1
  S2-  S224  1  0.13334497  -0.00933901  0.04827831  1
  S2-  S225  1  0.12432229  0.00994400  0.54393424  1
  S2-  S226  1  0.13536965  0.24412855  0.04912587  1
  S2-  S227  1  0.12792369  0.26236375  0.54268755  1
  S2-  S228  1  0.13797446  0.48887194  0.03912289  1
  S2-  S229  1  0.12837832  0.50956558  0.54249295  1
  S2-  S230  1  0.13562304  0.74376458  0.04038615  1
  S2-  S231  1  0.12613060  0.75978114  0.55231857  1
  S2-  S232  1  0.38312935  -0.00588317  0.04654267  1
  S2-  S233  1  0.37444923  0.01108211  0.54183447  1
  S2-  S234  1  0.38125091  0.24441353  0.05361199  1
  S2-  S235  1  0.37174017  0.25864144  0.54701506  1
  S2-  S236  1  0.38448737  0.48924560  0.05057002  1
  S2-  S237  1  0.37355977  0.51263941  0.55953244  1
  S2-  S238  1  0.38468772  0.74331625  0.04231124  1
  S2-  S239  1  0.37817160  0.76181111  0.55299440  1
  S2-  S240  1  0.63422017  -0.00759397  0.04871859  1
  S2-  S241  1  0.62045174  0.01518505  0.53799588  1
  S2-  S242  1  0.63444264  0.24332184  0.05173020  1
  S2-  S243  1  0.62384036  0.25812212  0.54266419  1
  S2-  S244  1  0.63247762  0.49184085  0.05075615  1
  S2-  S245  1  0.61684309  0.50414723  0.54619932  1
  S2-  S246  1  0.63191146  0.74092939  0.04730965  1
  S2-  S247  1  0.62583296  0.76691043  0.55362071  1
  S2-  S248  1  0.88611112  -0.00765015  0.05157755  1
  S2-  S249  1  0.87801069  0.01234587  0.52945547  1
  S2-  S250  1  0.88640090  0.24178065  0.05726338  1
  S2-  S251  1  0.87770578  0.26269416  0.52739283  1
  S2-  S252  1  0.88822782  0.49092040  0.04257137  1
  S2-  S253  1  0.87498631  0.50781155  0.54137099  1
  S2-  S254  1  0.88678980  0.74087607  0.04160599  1
  S2-  S255  1  0.87708797  0.75678096  0.55563492  1
