# generated using pymatgen
data_La9Ce10Pr6Nd4Sm3(BiS2)32
_symmetry_space_group_name_H-M   'P 1'
_cell_length_a   16.26675558
_cell_length_b   16.27070765
_cell_length_c   27.21285928
_cell_angle_alpha   89.60484477
_cell_angle_beta   90.03359130
_cell_angle_gamma   90.01814096
_symmetry_Int_Tables_number   1
_chemical_formula_structural   La9Ce10Pr6Nd4Sm3(BiS2)32
_chemical_formula_sum   'La18 Ce20 Pr12 Nd8 Sm6 Bi64 S128'
_cell_volume   7202.29879154
_cell_formula_units_Z   2
loop_
 _symmetry_equiv_pos_site_id
 _symmetry_equiv_pos_as_xyz
  1  'x, y, z'
loop_
 _atom_type_symbol
 _atom_type_oxidation_number
  La3+  3.0
  Ce3+  3.0
  Pr3+  3.0
  Nd3+  3.0
  Sm3+  3.0
  Bi2+  2.0
  S2-  -2.0
loop_
 _atom_site_type_symbol
 _atom_site_label
 _atom_site_symmetry_multiplicity
 _atom_site_fract_x
 _atom_site_fract_y
 _atom_site_fract_z
 _atom_site_occupancy
  La3+  La0  1  -0.00438934  0.13652878  0.56600060  1
  La3+  La1  1  0.62284550  0.49697230  0.93310957  1
  La3+  La2  1  0.25287872  0.87277579  0.06752576  1
  La3+  La3  1  0.73362228  0.13419934  0.60463152  1
  La3+  La4  1  0.74999338  0.36893566  0.06116593  1
  La3+  La5  1  0.11491216  0.27043346  0.42986346  1
  La3+  La6  1  0.23889868  0.37656368  0.57856378  1
  La3+  La7  1  0.62420274  0.25344017  0.91540658  1
  La3+  La8  1  0.75287818  0.87341682  0.06137591  1
  La3+  La9  1  0.88399523  -0.00847202  0.92524836  1
  La3+  La10  1  0.37198809  0.75076443  0.93128250  1
  La3+  La11  1  0.49961877  0.36702144  0.06386580  1
  La3+  La12  1  0.25230649  0.62909282  0.07677749  1
  La3+  La13  1  0.36338107  0.26617276  0.42062928  1
  La3+  La14  1  0.49264894  0.87385763  0.58642284  1
  La3+  La15  1  0.87058473  0.76999129  0.42804786  1
  La3+  La16  1  0.36782470  0.76804745  0.42986824  1
  La3+  La17  1  0.36473194  0.24888141  0.92553994  1
  Ce3+  Ce18  1  0.12730785  0.74626490  0.93978344  1
  Ce3+  Ce19  1  0.61916788  0.51100594  0.44656318  1
  Ce3+  Ce20  1  0.63357954  -0.00006513  0.92504068  1
  Ce3+  Ce21  1  0.87398094  0.74560454  0.93803837  1
  Ce3+  Ce22  1  0.49152752  0.63586479  0.55280608  1
  Ce3+  Ce23  1  0.75012602  0.12144005  0.04878989  1
  Ce3+  Ce24  1  0.24927744  0.12354969  0.05416820  1
  Ce3+  Ce25  1  0.74805028  0.62195339  0.05710261  1
  Ce3+  Ce26  1  0.74099711  0.38457546  0.56781075  1
  Ce3+  Ce27  1  -0.00996231  0.38964703  0.56721108  1
  Ce3+  Ce28  1  0.86397303  0.26061777  0.45605862  1
  Ce3+  Ce29  1  0.36677141  0.50590062  0.44282831  1
  Ce3+  Ce30  1  0.24806822  0.88478596  0.56541343  1
  Ce3+  Ce31  1  0.37174662  0.01121286  0.44569458  1
  Ce3+  Ce32  1  0.86614104  0.01276146  0.44776285  1
  Ce3+  Ce33  1  0.12248084  -0.00678117  0.94184011  1
  Ce3+  Ce34  1  0.50378299  0.12189952  0.04575020  1
  Ce3+  Ce35  1  0.50218887  0.62604463  0.05358902  1
  Ce3+  Ce36  1  0.25037210  0.13549207  0.55817478  1
  Ce3+  Ce37  1  0.24501928  0.63304716  0.55499081  1
  Pr3+  Pr38  1  -0.00408421  0.87066536  0.07071248  1
  Pr3+  Pr39  1  0.61948179  0.76505373  0.43670015  1
  Pr3+  Pr40  1  0.51131959  0.87392797  0.06615025  1
  Pr3+  Pr41  1  0.36984044  0.49701290  0.94894165  1
  Pr3+  Pr42  1  -0.00534873  0.88644474  0.56683269  1
  Pr3+  Pr43  1  0.74388713  0.63733772  0.56547309  1
  Pr3+  Pr44  1  0.61896242  0.75239051  0.92715120  1
  Pr3+  Pr45  1  0.62000270  0.26460706  0.43403570  1
  Pr3+  Pr46  1  0.11869353  0.01373170  0.44187819  1
  Pr3+  Pr47  1  0.87674791  0.49741771  0.94358509  1
  Pr3+  Pr48  1  0.00085976  0.62141858  0.05711069  1
  Pr3+  Pr49  1  0.24879932  0.36628500  0.06638286  1
  Nd3+  Nd50  1  0.74669969  0.88172564  0.57060287  1
  Nd3+  Nd51  1  0.86559196  0.51179802  0.44185131  1
  Nd3+  Nd52  1  0.11919597  0.76245555  0.44831379  1
  Nd3+  Nd53  1  0.87745848  0.24869479  0.94025650  1
  Nd3+  Nd54  1  0.37674766  -0.00424658  0.94376595  1
  Nd3+  Nd55  1  0.00166484  0.12039076  0.05914847  1
  Nd3+  Nd56  1  0.12053435  0.24881267  0.93170688  1
  Nd3+  Nd57  1  0.61960736  0.00894136  0.44563359  1
  Sm3+  Sm58  1  0.49334506  0.38036440  0.55956654  1
  Sm3+  Sm59  1  -0.00666992  0.63722117  0.55493130  1
  Sm3+  Sm60  1  0.00240405  0.37053569  0.05723054  1
  Sm3+  Sm61  1  0.49837565  0.13582296  0.55555960  1
  Sm3+  Sm62  1  0.11726987  0.50994409  0.44405516  1
  Sm3+  Sm63  1  0.12709824  0.49712220  0.94598146  1
  Bi2+  Bi64  1  -0.02719293  0.10851808  0.29829350  1
  Bi2+  Bi65  1  0.02899949  0.11802319  0.79795772  1
  Bi2+  Bi66  1  0.01301847  0.29662584  0.29959616  1
  Bi2+  Bi67  1  -0.00576792  0.48680643  0.78220321  1
  Bi2+  Bi68  1  0.03489622  0.63990322  0.29059982  1
  Bi2+  Bi69  1  0.01022155  0.68302469  0.81008915  1
  Bi2+  Bi70  1  0.00162648  0.90849810  0.30186107  1
  Bi2+  Bi71  1  0.05603634  0.86600094  0.77857293  1
  Bi2+  Bi72  1  0.17462205  0.09184760  0.26387097  1
  Bi2+  Bi73  1  0.21413382  0.10493934  0.77563840  1
  Bi2+  Bi74  1  0.23078301  0.37334528  0.29899174  1
  Bi2+  Bi75  1  0.27033849  0.38099658  0.81254530  1
  Bi2+  Bi76  1  0.22069327  0.57772952  0.28028849  1
  Bi2+  Bi77  1  0.20514241  0.61577386  0.80230427  1
  Bi2+  Bi78  1  0.23935407  0.83963112  0.30649171  1
  Bi2+  Bi79  1  0.24164953  0.90478915  0.79847084  1
  Bi2+  Bi80  1  0.48120538  0.10227543  0.25173242  1
  Bi2+  Bi81  1  0.46561997  0.12816743  0.73534822  1
  Bi2+  Bi82  1  0.51138342  0.34473746  0.30626234  1
  Bi2+  Bi83  1  0.47938512  0.43983928  0.79433315  1
  Bi2+  Bi84  1  0.51879183  0.58221819  0.25369137  1
  Bi2+  Bi85  1  0.55224093  0.62228079  0.79069529  1
  Bi2+  Bi86  1  0.49211854  0.86632219  0.30224991  1
  Bi2+  Bi87  1  0.48097233  0.86982134  0.78552272  1
  Bi2+  Bi88  1  0.78618626  0.12922089  0.25488520  1
  Bi2+  Bi89  1  0.79869071  0.15946394  0.79654957  1
  Bi2+  Bi90  1  0.75482905  0.37664812  0.31331675  1
  Bi2+  Bi91  1  0.73821141  0.39559317  0.77364908  1
  Bi2+  Bi92  1  0.74696625  0.63601035  0.26140529  1
  Bi2+  Bi93  1  0.80501886  0.58661283  0.78067536  1
  Bi2+  Bi94  1  0.73206094  0.86446933  0.30780505  1
  Bi2+  Bi95  1  0.75458379  0.85273785  0.80049007  1
  Bi2+  Bi96  1  0.08853491  -0.01464261  0.17728818  1
  Bi2+  Bi97  1  0.14412561  -0.04407791  0.69112279  1
  Bi2+  Bi98  1  0.12798404  0.23907805  0.18948216  1
  Bi2+  Bi99  1  0.07350398  0.23357445  0.71327470  1
  Bi2+  Bi100  1  0.07622859  0.49772509  0.21684849  1
  Bi2+  Bi101  1  0.14736806  0.48994313  0.71303822  1
  Bi2+  Bi102  1  0.11795984  0.80656129  0.21382726  1
  Bi2+  Bi103  1  0.13300745  0.70388505  0.70686477  1
  Bi2+  Bi104  1  0.33131142  -0.02206583  0.24715168  1
  Bi2+  Bi105  1  0.31598127  0.03851962  0.68513547  1
  Bi2+  Bi106  1  0.37192729  0.24460992  0.20444515  1
  Bi2+  Bi107  1  0.36266311  0.28962590  0.70271103  1
  Bi2+  Bi108  1  0.36157757  0.47840838  0.22863382  1
  Bi2+  Bi109  1  0.39390138  0.58259676  0.72866907  1
  Bi2+  Bi110  1  0.37008224  0.71788800  0.20630676  1
  Bi2+  Bi111  1  0.32584114  0.76126991  0.72788225  1
  Bi2+  Bi112  1  0.63880988  0.01685817  0.20935918  1
  Bi2+  Bi113  1  0.63379051  0.02049699  0.72835440  1
  Bi2+  Bi114  1  0.62230630  0.22922004  0.18813581  1
  Bi2+  Bi115  1  0.60517581  0.26536958  0.71914080  1
  Bi2+  Bi116  1  0.67022371  0.49163749  0.20809391  1
  Bi2+  Bi117  1  0.66238923  0.53836360  0.69852449  1
  Bi2+  Bi118  1  0.59212697  0.75128189  0.19088239  1
  Bi2+  Bi119  1  0.62025001  0.73598922  0.70588596  1
  Bi2+  Bi120  1  0.90166977  -0.01423042  0.21214271  1
  Bi2+  Bi121  1  0.89186131  -0.00276129  0.70494121  1
  Bi2+  Bi122  1  0.87636192  0.29791593  0.21953629  1
  Bi2+  Bi123  1  0.91014917  0.33550425  0.72225190  1
  Bi2+  Bi124  1  0.88301005  0.50098471  0.23808842  1
  Bi2+  Bi125  1  0.84150277  0.48891906  0.66791676  1
  Bi2+  Bi126  1  0.93359322  0.75015068  0.21289656  1
  Bi2+  Bi127  1  0.88526539  0.71002814  0.70456323  1
  S2-  S128  1  0.00741756  0.14240568  0.15795051  1
  S2-  S129  1  0.02820744  0.08348604  0.66107673  1
  S2-  S130  1  0.02572636  0.36537413  0.15391170  1
  S2-  S131  1  0.08789029  0.37020593  0.64681300  1
  S2-  S132  1  0.00548694  0.63027350  0.15715369  1
  S2-  S133  1  0.00556851  0.62099816  0.65299123  1
  S2-  S134  1  -0.13165367  0.86501846  0.14151772  1
  S2-  S135  1  -0.05663828  0.84970051  0.66034907  1
  S2-  S136  1  0.26735746  0.14350469  0.15041835  1
  S2-  S137  1  0.25419108  0.22555403  0.63999390  1
  S2-  S138  1  0.26853118  0.35290968  0.16675925  1
  S2-  S139  1  0.28965290  0.43507419  0.67157314  1
  S2-  S140  1  0.25393612  0.56945099  0.17231868  1
  S2-  S141  1  0.27428860  0.65067391  0.65069839  1
  S2-  S142  1  0.24855803  0.76687009  0.14705350  1
  S2-  S143  1  0.34542585  0.87596342  0.64626198  1
  S2-  S144  1  0.51980707  0.10533049  0.14378680  1
  S2-  S145  1  0.56883180  0.12976227  0.64754284  1
  S2-  S146  1  0.50667080  0.33726821  0.16374567  1
  S2-  S147  1  0.49865338  0.35783735  0.65861875  1
  S2-  S148  1  0.48853168  0.62020121  0.15105377  1
  S2-  S149  1  0.50188082  0.71318748  0.63815375  1
  S2-  S150  1  0.44990467  0.83781810  0.16303942  1
  S2-  S151  1  0.55266262  0.90566309  0.68615915  1
  S2-  S152  1  0.74679855  0.11648384  0.14660502  1
  S2-  S153  1  0.83134634  0.14214226  0.69137467  1
  S2-  S154  1  0.74197303  0.35364938  0.16116043  1
  S2-  S155  1  0.71091460  0.29620370  0.64886947  1
  S2-  S156  1  0.72845950  0.65144108  0.15298588  1
  S2-  S157  1  0.75146809  0.75141929  0.64147169  1
  S2-  S158  1  0.64402302  0.88489603  0.14141068  1
  S2-  S159  1  0.74593079  0.97534807  0.65675145  1
  S2-  S160  1  0.14746659  -0.01519362  0.34359877  1
  S2-  S161  1  0.02669356  -0.02197589  0.86076181  1
  S2-  S162  1  0.22274817  0.23881480  0.35122575  1
  S2-  S163  1  0.22415168  0.24196751  0.85212465  1
  S2-  S164  1  0.09991152  0.41395198  0.36315399  1
  S2-  S165  1  0.12336110  0.43987148  0.85323776  1
  S2-  S166  1  0.08795113  0.77068597  0.35091536  1
  S2-  S167  1  0.23781964  0.74439414  0.86295602  1
  S2-  S168  1  0.37641454  -0.03676969  0.35265609  1
  S2-  S169  1  0.37666444  -0.03455270  0.84613556  1
  S2-  S170  1  0.43056920  0.21296910  0.33017860  1
  S2-  S171  1  0.42097621  0.29715055  0.83316080  1
  S2-  S172  1  0.37153764  0.42080076  0.35816894  1
  S2-  S173  1  0.34937973  0.52359526  0.85024985  1
  S2-  S174  1  0.37449547  0.74399398  0.32946752  1
  S2-  S175  1  0.48262432  0.75080608  0.85200637  1
  S2-  S176  1  0.62197564  -0.02990729  0.34661059  1
  S2-  S177  1  0.60589530  -0.06077122  0.83336895  1
  S2-  S178  1  0.63543569  0.24881473  0.33208219  1
  S2-  S179  1  0.64551868  0.17965900  0.82304161  1
  S2-  S180  1  0.61966762  0.46320684  0.35319207  1
  S2-  S181  1  0.62158185  0.39575731  0.85199220  1
  S2-  S182  1  0.60162737  0.76031062  0.33526638  1
  S2-  S183  1  0.70166548  0.71736686  0.83968412  1
  S2-  S184  1  0.86218315  -0.07570578  0.36288455  1
  S2-  S185  1  0.79415311  0.01299501  0.83928883  1
  S2-  S186  1  0.87180166  0.27496082  0.35876916  1
  S2-  S187  1  0.94181801  0.23165686  0.84876184  1
  S2-  S188  1  0.86097338  0.49440477  0.34338782  1
  S2-  S189  1  0.85579935  0.45691842  0.84696424  1
  S2-  S190  1  0.82290177  0.72556385  0.33424888  1
  S2-  S191  1  0.89027208  0.81344540  0.84850422  1
  S2-  S192  1  -0.00754845  0.13697173  0.45531598  1
  S2-  S193  1  0.00302645  0.12358487  0.95444694  1
  S2-  S194  1  -0.01385972  0.38925432  0.46283091  1
  S2-  S195  1  0.00177195  0.37368289  0.95335091  1
  S2-  S196  1  -0.00603861  0.63508480  0.44940132  1
  S2-  S197  1  0.00347848  0.61934355  0.95025128  1
  S2-  S198  1  -0.00248679  0.88836522  0.45944816  1
  S2-  S199  1  0.00171658  0.86437746  0.96344234  1
  S2-  S200  1  0.24679137  0.13394967  0.45325697  1
  S2-  S201  1  0.24663852  0.11669637  0.94951590  1
  S2-  S202  1  0.24124372  0.38993823  0.46304639  1
  S2-  S203  1  0.24565401  0.37192663  0.95943821  1
  S2-  S204  1  0.24151823  0.63423266  0.44608574  1
  S2-  S205  1  0.24601761  0.61974970  0.96527147  1
  S2-  S206  1  0.24181925  0.88736430  0.45745458  1
  S2-  S207  1  0.24909891  0.87615495  0.95968481  1
  S2-  S208  1  0.49672596  0.13568992  0.45041658  1
  S2-  S209  1  0.49882122  0.12407280  0.93736242  1
  S2-  S210  1  0.49583243  0.38623562  0.45615385  1
  S2-  S211  1  0.49467679  0.37240115  0.95514496  1
  S2-  S212  1  0.49212256  0.63545043  0.44538135  1
  S2-  S213  1  0.49789085  0.61941975  0.94910636  1
  S2-  S214  1  0.49471358  0.88559772  0.45776334  1
  S2-  S215  1  0.50390985  0.87831443  0.95581435  1
  S2-  S216  1  0.74227117  0.13420658  0.44798028  1
  S2-  S217  1  0.75357337  0.12788172  0.94481600  1
  S2-  S218  1  0.74344155  0.38808327  0.46045326  1
  S2-  S219  1  0.75243197  0.37148869  0.95372330  1
  S2-  S220  1  0.74303229  0.63793266  0.45417157  1
  S2-  S221  1  0.74982062  0.61889962  0.95025488  1
  S2-  S222  1  0.74249914  0.88557623  0.46223305  1
  S2-  S223  1  0.75162456  0.87142377  0.95080931  1
  S2-  S224  1  0.12481688  -0.00414039  0.04834985  1
  S2-  S225  1  0.12330645  0.01040075  0.54898398  1
  S2-  S226  1  0.12338928  0.24707063  0.04181656  1
  S2-  S227  1  0.11598160  0.25866808  0.54019607  1
  S2-  S228  1  0.12594466  0.49453635  0.05248408  1
  S2-  S229  1  0.11680398  0.51355936  0.54808813  1
  S2-  S230  1  0.12216347  0.74862409  0.04831421  1
  S2-  S231  1  0.11950500  0.75948069  0.55422890  1
  S2-  S232  1  0.37716377  -0.00257119  0.05087929  1
  S2-  S233  1  0.37657884  0.01106573  0.54981816  1
  S2-  S234  1  0.37469442  0.24442548  0.04009533  1
  S2-  S235  1  0.37642001  0.25791639  0.54003800  1
  S2-  S236  1  0.37480601  0.49431486  0.05590993  1
  S2-  S237  1  0.37135718  0.50664676  0.54986116  1
  S2-  S238  1  0.37910473  0.74918348  0.04246030  1
  S2-  S239  1  0.36608099  0.75801883  0.53829441  1
  S2-  S240  1  0.62731014  0.00087773  0.03384712  1
  S2-  S241  1  0.61651155  0.00543082  0.55186285  1
  S2-  S242  1  0.62576241  0.24651599  0.03649890  1
  S2-  S243  1  0.61654031  0.25951671  0.54172730  1
  S2-  S244  1  0.62399194  0.49512889  0.04542959  1
  S2-  S245  1  0.61578884  0.50976838  0.55333437  1
  S2-  S246  1  0.62648904  0.74559152  0.03804299  1
  S2-  S247  1  0.61920305  0.76008311  0.54248429  1
  S2-  S248  1  0.87809459  0.00039874  0.04023719  1
  S2-  S249  1  0.86769297  0.01322314  0.55324431  1
  S2-  S250  1  0.87938818  0.24743019  0.04799900  1
  S2-  S251  1  0.86761489  0.25952092  0.56146109  1
  S2-  S252  1  0.87722260  0.49432353  0.05235333  1
  S2-  S253  1  0.86837107  0.51492972  0.54785548  1
  S2-  S254  1  0.87433048  0.74124989  0.04429640  1
  S2-  S255  1  0.87419610  0.75933876  0.53998155  1
