# generated using pymatgen
data_La9Ce10Pr6Nd4Sm3(BiS2)32
_symmetry_space_group_name_H-M   'P 1'
_cell_length_a   16.08305514
_cell_length_b   16.13655767
_cell_length_c   27.17707583
_cell_angle_alpha   89.64233895
_cell_angle_beta   90.38628110
_cell_angle_gamma   89.95715776
_symmetry_Int_Tables_number   1
_chemical_formula_structural   La9Ce10Pr6Nd4Sm3(BiS2)32
_chemical_formula_sum   'La18 Ce20 Pr12 Nd8 Sm6 Bi64 S128'
_cell_volume   7052.83468494
_cell_formula_units_Z   2
loop_
 _symmetry_equiv_pos_site_id
 _symmetry_equiv_pos_as_xyz
  1  'x, y, z'
loop_
 _atom_type_symbol
 _atom_type_oxidation_number
  La3+  3.0
  Ce3+  3.0
  Pr3+  3.0
  Nd3+  3.0
  Sm3+  3.0
  Bi2+  2.0
  S2-  -2.0
loop_
 _atom_site_type_symbol
 _atom_site_label
 _atom_site_symmetry_multiplicity
 _atom_site_fract_x
 _atom_site_fract_y
 _atom_site_fract_z
 _atom_site_occupancy
  La3+  La0  1  0.64386795  0.26107195  0.91703244  1
  La3+  La1  1  0.50468174  0.62025654  0.09775632  1
  La3+  La2  1  0.37516769  0.75974750  0.43341820  1
  La3+  La3  1  0.00713155  0.88176481  0.56610392  1
  La3+  La4  1  0.88203684  0.76176484  0.42553429  1
  La3+  La5  1  0.87961816  0.51454684  0.42811672  1
  La3+  La6  1  0.89476387  0.50838038  0.92408739  1
  La3+  La7  1  0.24030512  0.13584711  0.58066299  1
  La3+  La8  1  0.12965907  0.75614124  0.43133112  1
  La3+  La9  1  0.75942830  0.87571842  0.08774901  1
  La3+  La10  1  0.63644711  -0.01221923  0.92741573  1
  La3+  La11  1  0.62033517  0.76238724  0.41041366  1
  La3+  La12  1  0.12694751  0.01280028  0.42770340  1
  La3+  La13  1  0.00053729  0.37709319  0.55734005  1
  La3+  La14  1  0.13824147  0.25573333  0.93779477  1
  La3+  La15  1  0.27122968  0.12768021  0.06852921  1
  La3+  La16  1  0.27522904  0.37897244  0.07187157  1
  La3+  La17  1  0.87083905  0.26781107  0.39866410  1
  Ce3+  Ce18  1  0.75406297  0.63458135  0.55868794  1
  Ce3+  Ce19  1  0.75326714  0.87652373  0.55631177  1
  Ce3+  Ce20  1  0.12714429  0.25594272  0.41397530  1
  Ce3+  Ce21  1  0.87258291  0.00612733  0.43239995  1
  Ce3+  Ce22  1  0.38844816  0.00748530  0.93216199  1
  Ce3+  Ce23  1  0.12498553  0.50264535  0.44200045  1
  Ce3+  Ce24  1  0.51517082  0.12875626  0.05282345  1
  Ce3+  Ce25  1  0.26785900  0.87354193  0.05975828  1
  Ce3+  Ce26  1  0.74969573  0.12926512  0.55222249  1
  Ce3+  Ce27  1  0.50537293  0.87863258  0.56293940  1
  Ce3+  Ce28  1  0.76364633  0.37633722  0.06342383  1
  Ce3+  Ce29  1  0.01176373  0.87200538  0.06959379  1
  Ce3+  Ce30  1  0.50174497  0.63347711  0.55509927  1
  Ce3+  Ce31  1  0.26093478  0.63110587  0.56421965  1
  Ce3+  Ce32  1  0.13687480  0.00218380  0.94816221  1
  Ce3+  Ce33  1  0.62916447  0.50627477  0.44218645  1
  Ce3+  Ce34  1  0.26654029  0.62662070  0.05536877  1
  Ce3+  Ce35  1  0.01150614  0.62714619  0.06280950  1
  Ce3+  Ce36  1  0.61810773  0.25536306  0.43278847  1
  Ce3+  Ce37  1  0.64040980  0.75174272  0.96013321  1
  Pr3+  Pr38  1  0.62143289  0.00966290  0.43361995  1
  Pr3+  Pr39  1  0.89034214  0.25278340  0.93910292  1
  Pr3+  Pr40  1  0.88248395  0.76098182  0.93804782  1
  Pr3+  Pr41  1  0.37738175  0.50660074  0.43023060  1
  Pr3+  Pr42  1  0.50043275  0.37521870  0.56066490  1
  Pr3+  Pr43  1  0.51743884  0.37453182  0.05613997  1
  Pr3+  Pr44  1  0.75125424  0.38100179  0.56010196  1
  Pr3+  Pr45  1  0.02360334  0.12651370  0.07644656  1
  Pr3+  Pr46  1  0.76413050  0.12331761  0.05542480  1
  Pr3+  Pr47  1  0.25372395  0.37607413  0.55694612  1
  Pr3+  Pr48  1  0.38865757  0.50049571  0.93027125  1
  Pr3+  Pr49  1  0.50695865  0.87535921  0.07831192  1
  Nd3+  Nd50  1  0.37505343  0.01264192  0.45360447  1
  Nd3+  Nd51  1  0.51178404  0.11900267  0.58535539  1
  Nd3+  Nd52  1  0.39378256  0.24980519  0.92059520  1
  Nd3+  Nd53  1  0.01161338  0.63247445  0.56727759  1
  Nd3+  Nd54  1  0.13682873  0.50553320  0.94836723  1
  Nd3+  Nd55  1  0.89649749  0.00247824  0.94129360  1
  Nd3+  Nd56  1  0.77300407  0.61929111  0.08679508  1
  Nd3+  Nd57  1  0.39379080  0.75351042  0.93981646  1
  Sm3+  Sm58  1  0.64089423  0.50478390  0.94657634  1
  Sm3+  Sm59  1  0.37278130  0.25506914  0.43555949  1
  Sm3+  Sm60  1  0.13824329  0.75441255  0.94314193  1
  Sm3+  Sm61  1  0.00127307  0.13203300  0.54626148  1
  Sm3+  Sm62  1  0.01339627  0.37784868  0.06500565  1
  Sm3+  Sm63  1  0.25113451  0.88193133  0.56120481  1
  Bi2+  Bi64  1  -0.00666121  0.04898834  0.31669465  1
  Bi2+  Bi65  1  -0.02612305  0.11581833  0.80036125  1
  Bi2+  Bi66  1  0.12081924  0.38730130  0.29377706  1
  Bi2+  Bi67  1  -0.03419225  0.38388272  0.80156663  1
  Bi2+  Bi68  1  -0.00038745  0.63702831  0.28487073  1
  Bi2+  Bi69  1  0.01994249  0.62872745  0.78843016  1
  Bi2+  Bi70  1  0.05406344  0.87811065  0.27317174  1
  Bi2+  Bi71  1  -0.01678390  0.84978379  0.81329069  1
  Bi2+  Bi72  1  0.29817324  0.15964834  0.29880214  1
  Bi2+  Bi73  1  0.23495818  0.05959467  0.77946769  1
  Bi2+  Bi74  1  0.23557222  0.55157248  0.28472782  1
  Bi2+  Bi75  1  0.20815230  0.31866931  0.80113721  1
  Bi2+  Bi76  1  0.26188849  0.73540999  0.31770894  1
  Bi2+  Bi77  1  0.27802043  0.59180303  0.78089838  1
  Bi2+  Bi78  1  0.24182490  0.92377939  0.31478602  1
  Bi2+  Bi79  1  0.18574429  0.87181772  0.78502618  1
  Bi2+  Bi80  1  0.59194082  0.12523786  0.31536964  1
  Bi2+  Bi81  1  0.49003292  0.10589651  0.79043895  1
  Bi2+  Bi82  1  0.52280084  0.28118353  0.25695367  1
  Bi2+  Bi83  1  0.45724320  0.36822821  0.77830742  1
  Bi2+  Bi84  1  0.51622620  0.60403002  0.29617929  1
  Bi2+  Bi85  1  0.45638461  0.61917206  0.82105879  1
  Bi2+  Bi86  1  0.47616352  0.90358540  0.29334681  1
  Bi2+  Bi87  1  0.47470657  0.85758719  0.77677424  1
  Bi2+  Bi88  1  0.80941774  0.10811461  0.30768958  1
  Bi2+  Bi89  1  0.74233712  0.15737399  0.77110308  1
  Bi2+  Bi90  1  0.80552254  0.32181648  0.26614522  1
  Bi2+  Bi91  1  0.73371979  0.37820565  0.78252269  1
  Bi2+  Bi92  1  0.75444793  0.55792463  0.29644607  1
  Bi2+  Bi93  1  0.63142167  0.70456400  0.78362453  1
  Bi2+  Bi94  1  0.77314980  0.92427299  0.27428224  1
  Bi2+  Bi95  1  0.72834487  0.89388343  0.79115008  1
  Bi2+  Bi96  1  0.22603359  -0.01425134  0.20650563  1
  Bi2+  Bi97  1  0.07057198  0.01677854  0.71517664  1
  Bi2+  Bi98  1  0.10328793  0.25412837  0.20928856  1
  Bi2+  Bi99  1  0.09195482  0.26371075  0.70385376  1
  Bi2+  Bi100  1  0.12020899  0.62278885  0.19693633  1
  Bi2+  Bi101  1  0.13074409  0.47365964  0.74236447  1
  Bi2+  Bi102  1  0.14384331  0.81150874  0.17583967  1
  Bi2+  Bi103  1  0.08070802  0.77246040  0.69654151  1
  Bi2+  Bi104  1  0.44087475  0.07104397  0.23220295  1
  Bi2+  Bi105  1  0.32809494  -0.09068387  0.70455563  1
  Bi2+  Bi106  1  0.34894757  0.26130862  0.20004804  1
  Bi2+  Bi107  1  0.31933347  0.22290621  0.72415579  1
  Bi2+  Bi108  1  0.39308217  0.49854814  0.21866434  1
  Bi2+  Bi109  1  0.31673046  0.44159458  0.71046412  1
  Bi2+  Bi110  1  0.33921496  0.75837693  0.20681029  1
  Bi2+  Bi111  1  0.30058961  0.71712578  0.69004921  1
  Bi2+  Bi112  1  0.64823578  0.05543181  0.21171998  1
  Bi2+  Bi113  1  0.65311799  -0.02698004  0.69744693  1
  Bi2+  Bi114  1  0.61630585  0.25395924  0.14776619  1
  Bi2+  Bi115  1  0.60781721  0.26974089  0.68881166  1
  Bi2+  Bi116  1  0.64625775  0.41680597  0.21468459  1
  Bi2+  Bi117  1  0.58584636  0.51242023  0.76303132  1
  Bi2+  Bi118  1  0.61993871  0.79583641  0.22590700  1
  Bi2+  Bi119  1  0.50953915  0.73569592  0.69035338  1
  Bi2+  Bi120  1  0.93874956  0.00477947  0.20972085  1
  Bi2+  Bi121  1  0.86958330  0.02861881  0.71515367  1
  Bi2+  Bi122  1  0.79381305  0.20295342  0.18158454  1
  Bi2+  Bi123  1  0.89737303  0.23030285  0.71505778  1
  Bi2+  Bi124  1  0.90811484  0.48550787  0.21272666  1
  Bi2+  Bi125  1  0.86535500  0.49127251  0.68907212  1
  Bi2+  Bi126  1  0.87554615  0.74532039  0.21977261  1
  Bi2+  Bi127  1  0.82967791  0.73445037  0.70008005  1
  S2-  S128  1  -0.03155767  0.16502593  0.17107303  1
  S2-  S129  1  0.07664143  0.13051976  0.63696284  1
  S2-  S130  1  0.00158618  0.38086855  0.16524000  1
  S2-  S131  1  0.00713969  0.40412104  0.65732367  1
  S2-  S132  1  -0.07417790  0.62428921  0.14808506  1
  S2-  S133  1  -0.05329562  0.62501047  0.66196177  1
  S2-  S134  1  -0.09062726  0.86386872  0.14870289  1
  S2-  S135  1  -0.06864476  0.83958180  0.65824794  1
  S2-  S136  1  0.16709506  0.12152529  0.15325142  1
  S2-  S137  1  0.28496521  0.06618935  0.67476594  1
  S2-  S138  1  0.21341270  0.35886118  0.16990964  1
  S2-  S139  1  0.23576052  0.28541436  0.64269751  1
  S2-  S140  1  0.33666289  0.60846915  0.14583593  1
  S2-  S141  1  0.15673054  0.64270541  0.64131494  1
  S2-  S142  1  0.35057023  0.89855925  0.14596764  1
  S2-  S143  1  0.14052678  0.89059959  0.63848651  1
  S2-  S144  1  0.41176911  0.13284461  0.13516638  1
  S2-  S145  1  0.47810249  0.17040339  0.68380754  1
  S2-  S146  1  0.41736415  0.39058230  0.14011180  1
  S2-  S147  1  0.50965042  0.39096177  0.66180060  1
  S2-  S148  1  0.55252345  0.55623443  0.19294988  1
  S2-  S149  1  0.41554820  0.61460181  0.63967343  1
  S2-  S150  1  0.49531801  0.75570978  0.16366128  1
  S2-  S151  1  0.51290515  0.96801925  0.64674699  1
  S2-  S152  1  0.77978902  0.03561684  0.14427112  1
  S2-  S153  1  0.67359836  0.12507337  0.64084859  1
  S2-  S154  1  0.77306995  0.47225594  0.14712288  1
  S2-  S155  1  0.75564063  0.36589265  0.66167599  1
  S2-  S156  1  0.74008310  0.72750712  0.16474857  1
  S2-  S157  1  0.74237469  0.60039122  0.65668223  1
  S2-  S158  1  0.62092975  0.90981822  0.15568023  1
  S2-  S159  1  0.71561720  0.83122874  0.64985504  1
  S2-  S160  1  0.14886070  0.11633359  0.34492435  1
  S2-  S161  1  0.03686003  -0.00121516  0.86722109  1
  S2-  S162  1  0.26544102  0.29293540  0.35074477  1
  S2-  S163  1  0.01480709  0.25116049  0.86390952  1
  S2-  S164  1  0.05240064  0.51270752  0.35341939  1
  S2-  S165  1  0.04834020  0.50405029  0.86154046  1
  S2-  S166  1  0.02540426  0.76609820  0.35097126  1
  S2-  S167  1  0.12225450  0.73818693  0.84473180  1
  S2-  S168  1  0.38187038  0.01588801  0.35318924  1
  S2-  S169  1  0.49154675  -0.02480390  0.85446152  1
  S2-  S170  1  0.48905991  0.24885244  0.36060535  1
  S2-  S171  1  0.35219876  0.12133845  0.85010198  1
  S2-  S172  1  0.39280195  0.49445027  0.32860131  1
  S2-  S173  1  0.35046528  0.38260105  0.85540981  1
  S2-  S174  1  0.46732006  0.74989378  0.34657364  1
  S2-  S175  1  0.37467613  0.77080327  0.83990200  1
  S2-  S176  1  0.61281849  -0.08784762  0.34710879  1
  S2-  S177  1  0.68122197  0.04633052  0.83196791  1
  S2-  S178  1  0.71304612  0.25426032  0.34799038  1
  S2-  S179  1  0.52294483  0.23858359  0.84107770  1
  S2-  S180  1  0.61322439  0.48937536  0.34399912  1
  S2-  S181  1  0.63461571  0.43144299  0.85645616  1
  S2-  S182  1  0.66291260  0.69813053  0.31473673  1
  S2-  S183  1  0.64365161  0.81577629  0.86798002  1
  S2-  S184  1  0.85742838  -0.10416290  0.35501411  1
  S2-  S185  1  0.85239692  -0.10456954  0.86489386  1
  S2-  S186  1  1.01497440  0.28128021  0.33451108  1
  S2-  S187  1  0.78317989  0.26151775  0.85407932  1
  S2-  S188  1  0.84600374  0.42443209  0.34193850  1
  S2-  S189  1  0.84379718  0.48732973  0.82246527  1
  S2-  S190  1  0.86131536  0.63922001  0.35206593  1
  S2-  S191  1  0.90324399  0.70020981  0.83790179  1
  S2-  S192  1  -0.00906498  0.13780996  0.44383572  1
  S2-  S193  1  0.01745825  0.12899878  0.96760305  1
  S2-  S194  1  -0.00211900  0.37867422  0.44989439  1
  S2-  S195  1  0.01323201  0.38071378  0.96169929  1
  S2-  S196  1  0.00701954  0.63268606  0.45915053  1
  S2-  S197  1  0.01421613  0.63515473  0.95777942  1
  S2-  S198  1  0.00518413  0.88902882  0.45523536  1
  S2-  S199  1  0.01765114  0.87238477  0.96423993  1
  S2-  S200  1  0.25266411  0.13632871  0.45719548  1
  S2-  S201  1  0.25828137  0.12897434  0.95741033  1
  S2-  S202  1  0.25388708  0.38349388  0.45245426  1
  S2-  S203  1  0.25856931  0.38162987  0.96107766  1
  S2-  S204  1  0.25288836  0.62784919  0.45217876  1
  S2-  S205  1  0.26326595  0.62899912  0.94682610  1
  S2-  S206  1  0.25125059  0.88543920  0.45566843  1
  S2-  S207  1  0.26358408  0.87690402  0.95001831  1
  S2-  S208  1  0.50006173  0.13105698  0.46523831  1
  S2-  S209  1  0.51908649  0.12657334  0.94888959  1
  S2-  S210  1  0.49829553  0.38354410  0.45414600  1
  S2-  S211  1  0.51370428  0.37938945  0.95100121  1
  S2-  S212  1  0.50255737  0.63100106  0.44974274  1
  S2-  S213  1  0.51663670  0.62613571  0.94649404  1
  S2-  S214  1  0.49828709  0.88385192  0.45651563  1
  S2-  S215  1  0.51091751  0.87298075  0.96652154  1
  S2-  S216  1  0.75145940  0.13156152  0.44818962  1
  S2-  S217  1  0.76667606  0.12077493  0.94938892  1
  S2-  S218  1  0.75147487  0.37918952  0.45381374  1
  S2-  S219  1  0.76906710  0.38584157  0.95706962  1
  S2-  S220  1  0.74384407  0.63762333  0.45153142  1
  S2-  S221  1  0.76261360  0.62648967  0.94475103  1
  S2-  S222  1  0.74443992  0.88063522  0.45258417  1
  S2-  S223  1  0.76213649  0.87930111  0.97402693  1
  S2-  S224  1  0.14153143  -0.00502665  0.05245082  1
  S2-  S225  1  0.12914471  0.01038896  0.53661430  1
  S2-  S226  1  0.14054970  0.25797167  0.04964014  1
  S2-  S227  1  0.12354845  0.25616128  0.53293043  1
  S2-  S228  1  0.13955414  0.50153274  0.05500598  1
  S2-  S229  1  0.13089997  0.50266917  0.54791148  1
  S2-  S230  1  0.14084870  0.74900241  0.04819156  1
  S2-  S231  1  0.13309087  0.75616292  0.53905317  1
  S2-  S232  1  0.38934503  0.00033038  0.03846591  1
  S2-  S233  1  0.37230989  0.00701897  0.55706326  1
  S2-  S234  1  0.39117155  0.25388791  0.03269891  1
  S2-  S235  1  0.37925398  0.24818325  0.54823459  1
  S2-  S236  1  0.39516752  0.50804880  0.03731674  1
  S2-  S237  1  0.37709996  0.50133520  0.53948231  1
  S2-  S238  1  0.39075004  0.74684573  0.04590707  1
  S2-  S239  1  0.37585181  0.76128004  0.54329068  1
  S2-  S240  1  0.63336241  0.00392027  0.04399394  1
  S2-  S241  1  0.62884708  0.00079178  0.54052465  1
  S2-  S242  1  0.64359048  0.25273737  0.03078996  1
  S2-  S243  1  0.62569516  0.25479832  0.54326637  1
  S2-  S244  1  0.63675611  0.50703373  0.05140838  1
  S2-  S245  1  0.62436360  0.50620825  0.54988219  1
  S2-  S246  1  0.63351371  0.73850248  0.06088831  1
  S2-  S247  1  0.62520475  0.75508668  0.54184991  1
  S2-  S248  1  0.90057185  0.00408959  0.04704876  1
  S2-  S249  1  0.87766324  0.00647653  0.54525887  1
  S2-  S250  1  0.89148514  0.25345616  0.04995468  1
  S2-  S251  1  0.87581490  0.25122290  0.55446212  1
  S2-  S252  1  0.89188246  0.50161541  0.04161806  1
  S2-  S253  1  0.87696780  0.50836254  0.54310304  1
  S2-  S254  1  0.88398554  0.74662643  0.04642104  1
  S2-  S255  1  0.88076606  0.75417224  0.54076693  1
