# generated using pymatgen
data_La9Ce10Pr6Nd4Sm3(BiS2)32
_symmetry_space_group_name_H-M   'P 1'
_cell_length_a   16.18325206
_cell_length_b   16.21311763
_cell_length_c   27.10935798
_cell_angle_alpha   90.02899538
_cell_angle_beta   90.19654259
_cell_angle_gamma   90.22025358
_symmetry_Int_Tables_number   1
_chemical_formula_structural   La9Ce10Pr6Nd4Sm3(BiS2)32
_chemical_formula_sum   'La18 Ce20 Pr12 Nd8 Sm6 Bi64 S128'
_cell_volume   7112.88425816
_cell_formula_units_Z   2
loop_
 _symmetry_equiv_pos_site_id
 _symmetry_equiv_pos_as_xyz
  1  'x, y, z'
loop_
 _atom_type_symbol
 _atom_type_oxidation_number
  La3+  3.0
  Ce3+  3.0
  Pr3+  3.0
  Nd3+  3.0
  Sm3+  3.0
  Bi2+  2.0
  S2-  -2.0
loop_
 _atom_site_type_symbol
 _atom_site_label
 _atom_site_symmetry_multiplicity
 _atom_site_fract_x
 _atom_site_fract_y
 _atom_site_fract_z
 _atom_site_occupancy
  La3+  La0  1  0.01393358  0.36402303  0.06589313  1
  La3+  La1  1  0.50037206  0.36822926  0.07143089  1
  La3+  La2  1  0.59952921  0.00597283  0.43039290  1
  La3+  La3  1  0.51301448  0.61798774  0.06901597  1
  La3+  La4  1  0.77055865  0.87653726  0.08178776  1
  La3+  La5  1  0.51097875  0.87332854  0.07069588  1
  La3+  La6  1  0.87342192  0.75580624  0.40872874  1
  La3+  La7  1  0.39165912  -0.01140809  0.92337270  1
  La3+  La8  1  0.87537379  0.73542348  0.92758940  1
  La3+  La9  1  -0.01748175  0.38503412  0.57430206  1
  La3+  La10  1  0.73499443  0.62520044  0.54674930  1
  La3+  La11  1  0.13426601  0.50347991  0.89066847  1
  La3+  La12  1  0.74250316  0.12540695  0.56581935  1
  La3+  La13  1  0.49676820  0.11961468  0.59042166  1
  La3+  La14  1  0.60684301  0.49643252  0.42008049  1
  La3+  La15  1  0.60423486  0.75419847  0.42041481  1
  La3+  La16  1  0.23439552  0.37380583  0.57439920  1
  La3+  La17  1  0.22751023  0.86550489  0.57731004  1
  Ce3+  Ce18  1  0.11675380  0.50072779  0.43964895  1
  Ce3+  Ce19  1  0.88637846  0.49509961  0.94008941  1
  Ce3+  Ce20  1  0.38425365  0.74334773  0.95057172  1
  Ce3+  Ce21  1  0.11225004  -0.00112769  0.45187777  1
  Ce3+  Ce22  1  0.49260588  0.87592480  0.56626107  1
  Ce3+  Ce23  1  0.64161692  0.74370380  0.95739963  1
  Ce3+  Ce24  1  0.75823056  0.36981539  0.05521473  1
  Ce3+  Ce25  1  0.49354401  0.37795415  0.56451746  1
  Ce3+  Ce26  1  0.36186092  0.24965801  0.45628866  1
  Ce3+  Ce27  1  0.36057242  0.49968148  0.44049220  1
  Ce3+  Ce28  1  0.74052219  0.87351108  0.54364940  1
  Ce3+  Ce29  1  0.86272281  0.00122806  0.43120461  1
  Ce3+  Ce30  1  0.49403909  0.62556164  0.55729898  1
  Ce3+  Ce31  1  0.76120038  0.11872482  0.05663514  1
  Ce3+  Ce32  1  0.73380539  0.37856621  0.55949951  1
  Ce3+  Ce33  1  0.35990773  0.75084738  0.44568544  1
  Ce3+  Ce34  1  0.86143163  0.25354307  0.44016870  1
  Ce3+  Ce35  1  0.25488956  0.87130401  0.06212982  1
  Ce3+  Ce36  1  0.13819074  0.74973177  0.93139611  1
  Ce3+  Ce37  1  0.13241359  0.24603794  0.92951597  1
  Pr3+  Pr38  1  0.88096769  -0.00562839  0.93035801  1
  Pr3+  Pr39  1  0.88590742  0.24410075  0.93516458  1
  Pr3+  Pr40  1  0.51130452  0.11735208  0.06030541  1
  Pr3+  Pr41  1  0.25739847  0.61779840  0.05824355  1
  Pr3+  Pr42  1  0.38262517  0.24466308  0.93696573  1
  Pr3+  Pr43  1  0.76703302  0.60936971  0.08106483  1
  Pr3+  Pr44  1  0.23923535  0.62001912  0.56777027  1
  Pr3+  Pr45  1  0.25961016  0.36849437  0.05531636  1
  Pr3+  Pr46  1  0.01069232  0.61428915  0.06213684  1
  Pr3+  Pr47  1  0.38877148  0.49544440  0.92916996  1
  Pr3+  Pr48  1  0.13177038  -0.00595839  0.93291822  1
  Pr3+  Pr49  1  -0.01538113  0.12543997  0.56108642  1
  Nd3+  Nd50  1  0.87829384  0.48861310  0.41281547  1
  Nd3+  Nd51  1  0.23916701  0.12080827  0.56731640  1
  Nd3+  Nd52  1  0.63224865  0.49516251  0.93878079  1
  Nd3+  Nd53  1  -0.02380391  0.62576813  0.55687808  1
  Nd3+  Nd54  1  0.63086327  0.24246020  0.93856061  1
  Nd3+  Nd55  1  0.60679530  0.24859130  0.44344035  1
  Nd3+  Nd56  1  0.01313019  0.12035502  0.06546302  1
  Nd3+  Nd57  1  -0.02571811  0.87035224  0.56311299  1
  Sm3+  Sm58  1  0.64070637  -0.01232167  0.93577231  1
  Sm3+  Sm59  1  0.00584801  0.86713434  0.05167007  1
  Sm3+  Sm60  1  0.25847717  0.11532892  0.04957165  1
  Sm3+  Sm61  1  0.35938709  0.00001818  0.45101534  1
  Sm3+  Sm62  1  0.11436754  0.75039824  0.43983600  1
  Sm3+  Sm63  1  0.11304805  0.25057638  0.44687047  1
  Bi2+  Bi64  1  -0.02074027  0.14508889  0.28420373  1
  Bi2+  Bi65  1  0.01040048  0.11698104  0.84333292  1
  Bi2+  Bi66  1  0.02366121  0.33804439  0.29544582  1
  Bi2+  Bi67  1  -0.07625461  0.30156422  0.79212635  1
  Bi2+  Bi68  1  0.07477568  0.61526515  0.28624411  1
  Bi2+  Bi69  1  -0.00895110  0.65389783  0.79076663  1
  Bi2+  Bi70  1  0.04687179  0.88182177  0.29054757  1
  Bi2+  Bi71  1  0.01516857  0.93790286  0.79794619  1
  Bi2+  Bi72  1  0.18240598  0.11846921  0.28654353  1
  Bi2+  Bi73  1  0.18300016  0.15151023  0.79817395  1
  Bi2+  Bi74  1  0.27177534  0.42936868  0.30648392  1
  Bi2+  Bi75  1  0.26034958  0.35988788  0.78769620  1
  Bi2+  Bi76  1  0.24927745  0.61776523  0.34465912  1
  Bi2+  Bi77  1  0.30320513  0.64238952  0.78479228  1
  Bi2+  Bi78  1  0.24917951  0.81858970  0.32848054  1
  Bi2+  Bi79  1  0.27988327  0.88821804  0.79084886  1
  Bi2+  Bi80  1  0.49482144  0.14741877  0.29293360  1
  Bi2+  Bi81  1  0.47972460  0.14036111  0.81140260  1
  Bi2+  Bi82  1  0.51076120  0.35818191  0.30690235  1
  Bi2+  Bi83  1  0.49635910  0.40928614  0.76843654  1
  Bi2+  Bi84  1  0.41356795  0.65989104  0.28550919  1
  Bi2+  Bi85  1  0.52514581  0.63967244  0.80016270  1
  Bi2+  Bi86  1  0.51232598  0.90500484  0.30277199  1
  Bi2+  Bi87  1  0.53114049  0.84742040  0.79373789  1
  Bi2+  Bi88  1  0.79284343  0.11447314  0.24304580  1
  Bi2+  Bi89  1  0.75830977  0.06883877  0.77499032  1
  Bi2+  Bi90  1  0.76310084  0.32599698  0.27284648  1
  Bi2+  Bi91  1  0.76323701  0.41267234  0.78164852  1
  Bi2+  Bi92  1  0.72329210  0.61640046  0.29299029  1
  Bi2+  Bi93  1  0.72043516  0.60162084  0.80625005  1
  Bi2+  Bi94  1  0.75927049  0.88247430  0.28297386  1
  Bi2+  Bi95  1  0.77289856  0.83883839  0.78788623  1
  Bi2+  Bi96  1  0.15262763  -0.00749618  0.18709767  1
  Bi2+  Bi97  1  0.09079671  0.05187026  0.71269796  1
  Bi2+  Bi98  1  0.18643786  0.27853149  0.18844793  1
  Bi2+  Bi99  1  0.06015135  0.24301256  0.72038267  1
  Bi2+  Bi100  1  0.15835017  0.47939490  0.21594842  1
  Bi2+  Bi101  1  0.13985041  0.50819335  0.70217741  1
  Bi2+  Bi102  1  0.09693295  0.75782681  0.20631303  1
  Bi2+  Bi103  1  0.15891478  0.78508623  0.72427459  1
  Bi2+  Bi104  1  0.30149955  -0.03476789  0.26125515  1
  Bi2+  Bi105  1  0.36233874  0.03351590  0.70684151  1
  Bi2+  Bi106  1  0.33778256  0.25584653  0.25882082  1
  Bi2+  Bi107  1  0.35021873  0.29382127  0.70069682  1
  Bi2+  Bi108  1  0.36979692  0.48775003  0.20999082  1
  Bi2+  Bi109  1  0.42128270  0.55408275  0.70358551  1
  Bi2+  Bi110  1  0.29168231  0.75251867  0.21845588  1
  Bi2+  Bi111  1  0.42532547  0.75107500  0.71291846  1
  Bi2+  Bi112  1  0.61234782  -0.00028172  0.19181856  1
  Bi2+  Bi113  1  0.64065338  -0.05432981  0.71659986  1
  Bi2+  Bi114  1  0.63464695  0.22014586  0.21110662  1
  Bi2+  Bi115  1  0.61320957  0.26468013  0.71579312  1
  Bi2+  Bi116  1  0.63074043  0.49035002  0.20373673  1
  Bi2+  Bi117  1  0.63628464  0.51442070  0.70898867  1
  Bi2+  Bi118  1  0.58570739  0.74364446  0.21091237  1
  Bi2+  Bi119  1  0.63015666  0.75338671  0.70463561  1
  Bi2+  Bi120  1  0.96542811  0.00979492  0.20071233  1
  Bi2+  Bi121  1  0.90161566  -0.00313873  0.70839737  1
  Bi2+  Bi122  1  0.89866484  0.26921921  0.20107848  1
  Bi2+  Bi123  1  0.80261155  0.24623901  0.70231615  1
  Bi2+  Bi124  1  0.89400082  0.50195789  0.21033040  1
  Bi2+  Bi125  1  0.87043712  0.51782759  0.69988905  1
  Bi2+  Bi126  1  0.90588792  0.75277636  0.21241950  1
  Bi2+  Bi127  1  0.89914862  0.76863640  0.69427413  1
  S2-  S128  1  0.03586516  0.23619102  0.14094420  1
  S2-  S129  1  -0.12554484  0.12520257  0.63990895  1
  S2-  S130  1  0.01534503  0.46484202  0.15147913  1
  S2-  S131  1  0.10536983  0.35837416  0.65033792  1
  S2-  S132  1  -0.09062464  0.62984527  0.14571238  1
  S2-  S133  1  0.00819964  0.53499982  0.64381667  1
  S2-  S134  1  -0.07727757  0.87293587  0.13875106  1
  S2-  S135  1  0.04822485  0.82463991  0.65125233  1
  S2-  S136  1  0.24133037  0.13668718  0.14706522  1
  S2-  S137  1  0.25991269  0.15326883  0.66486939  1
  S2-  S138  1  0.35855078  0.37302051  0.14032990  1
  S2-  S139  1  0.29390508  0.45027475  0.66061721  1
  S2-  S140  1  0.25596593  0.59490688  0.15970856  1
  S2-  S141  1  0.20137015  0.66231433  0.66449845  1
  S2-  S142  1  0.29392768  0.89954078  0.15695799  1
  S2-  S143  1  0.26245381  0.90836784  0.67375474  1
  S2-  S144  1  0.50665776  0.11376857  0.16205934  1
  S2-  S145  1  0.46192554  0.17474069  0.69166390  1
  S2-  S146  1  0.56334949  0.35782342  0.16694683  1
  S2-  S147  1  0.60955398  0.38492369  0.63795708  1
  S2-  S148  1  0.49911012  0.59534260  0.16891153  1
  S2-  S149  1  0.61358378  0.62953750  0.62964412  1
  S2-  S150  1  0.50221514  0.87287989  0.17247180  1
  S2-  S151  1  0.49135158  0.97025767  0.65046048  1
  S2-  S152  1  0.76339765  0.04060511  0.14271656  1
  S2-  S153  1  0.64768834  0.14008381  0.65167596  1
  S2-  S154  1  0.76588544  0.44991849  0.14355149  1
  S2-  S155  1  0.84229289  0.38453880  0.64102003  1
  S2-  S156  1  0.70601972  0.64106546  0.17988079  1
  S2-  S157  1  0.84118267  0.64306643  0.63026393  1
  S2-  S158  1  0.71016467  0.84984476  0.18130800  1
  S2-  S159  1  0.82816834  0.87291046  0.63063561  1
  S2-  S160  1  0.12066805  -0.00051049  0.35415037  1
  S2-  S161  1  0.15136237  -0.11776795  0.85560641  1
  S2-  S162  1  0.13706553  0.25928404  0.34864872  1
  S2-  S163  1  0.13419691  0.34004951  0.84787136  1
  S2-  S164  1  0.03724655  0.48433098  0.35342466  1
  S2-  S165  1  0.05165780  0.50498462  0.78839251  1
  S2-  S166  1  0.02996789  0.74457420  0.35320076  1
  S2-  S167  1  0.13014309  0.66535708  0.84427629  1
  S2-  S168  1  0.44707749  0.01483339  0.36518001  1
  S2-  S169  1  0.32985880  0.03953461  0.82880952  1
  S2-  S170  1  0.39512916  0.24193701  0.36016466  1
  S2-  S171  1  0.39762001  0.27369053  0.83713246  1
  S2-  S172  1  0.45424259  0.48534235  0.35734209  1
  S2-  S173  1  0.29051033  0.50552096  0.84244803  1
  S2-  S174  1  0.44912647  0.76821010  0.36022616  1
  S2-  S175  1  0.35040207  0.76890427  0.85557444  1
  S2-  S176  1  0.64766698  -0.01322098  0.33031087  1
  S2-  S177  1  0.53160576  -0.01131569  0.85740061  1
  S2-  S178  1  0.61633737  0.22232526  0.34370010  1
  S2-  S179  1  0.61125821  0.21746390  0.83920175  1
  S2-  S180  1  0.64691534  0.46234841  0.31985833  1
  S2-  S181  1  0.52226503  0.48630945  0.85903610  1
  S2-  S182  1  0.63939587  0.76634831  0.31816374  1
  S2-  S183  1  0.71290959  0.74317784  0.86794290  1
  S2-  S184  1  0.88267088  -0.08053816  0.34689306  1
  S2-  S185  1  0.75544527  -0.02829884  0.85873629  1
  S2-  S186  1  0.86723382  0.33297709  0.35290092  1
  S2-  S187  1  0.83719106  0.17960179  0.84363311  1
  S2-  S188  1  0.85257868  0.53532173  0.31389449  1
  S2-  S189  1  0.87513992  0.59046955  0.85874831  1
  S2-  S190  1  0.83699535  0.73513468  0.30554548  1
  S2-  S191  1  0.92169553  0.80192394  0.83469890  1
  S2-  S192  1  -0.01146358  0.12728664  0.45081731  1
  S2-  S193  1  0.00870266  0.11966876  0.95829245  1
  S2-  S194  1  -0.00693703  0.37036708  0.45991441  1
  S2-  S195  1  0.00823121  0.37078726  0.95008830  1
  S2-  S196  1  -0.00977316  0.62226342  0.44951697  1
  S2-  S197  1  0.01584522  0.61470100  0.95349753  1
  S2-  S198  1  -0.00774765  0.87597232  0.45565941  1
  S2-  S199  1  0.00446039  0.86892848  0.94957472  1
  S2-  S200  1  0.23727429  0.12466349  0.45911420  1
  S2-  S201  1  0.25939680  0.11697953  0.94486968  1
  S2-  S202  1  0.23726132  0.37341164  0.46145623  1
  S2-  S203  1  0.26196747  0.37267676  0.94899278  1
  S2-  S204  1  0.23783941  0.62722138  0.46058952  1
  S2-  S205  1  0.25885257  0.61959300  0.95148580  1
  S2-  S206  1  0.23652369  0.87499853  0.46604905  1
  S2-  S207  1  0.26436095  0.87285534  0.95808289  1
  S2-  S208  1  0.48186146  0.12508999  0.47080138  1
  S2-  S209  1  0.50993285  0.11903763  0.95388430  1
  S2-  S210  1  0.48540668  0.37231589  0.45949485  1
  S2-  S211  1  0.50954708  0.36526591  0.95918069  1
  S2-  S212  1  0.48460914  0.62604714  0.45264759  1
  S2-  S213  1  0.51268426  0.62308184  0.95999629  1
  S2-  S214  1  0.48181687  0.87818561  0.46186691  1
  S2-  S215  1  0.51419440  0.86456472  0.96107282  1
  S2-  S216  1  0.73609422  0.12554439  0.45017621  1
  S2-  S217  1  0.75534133  0.11976383  0.95277852  1
  S2-  S218  1  0.73199244  0.37278096  0.44836903  1
  S2-  S219  1  0.75653704  0.36804222  0.94558315  1
  S2-  S220  1  0.73580335  0.62605710  0.43176118  1
  S2-  S221  1  0.75614830  0.60971461  0.96777082  1
  S2-  S222  1  0.73375432  0.87877033  0.43909271  1
  S2-  S223  1  0.76235173  0.86988743  0.96766107  1
  S2-  S224  1  0.12985352  -0.00603808  0.04314677  1
  S2-  S225  1  0.10824196  -0.00154926  0.55933982  1
  S2-  S226  1  0.13998652  0.24061625  0.03577317  1
  S2-  S227  1  0.11307837  0.24254923  0.55109060  1
  S2-  S228  1  0.13728256  0.49180948  0.04964058  1
  S2-  S229  1  0.11511861  0.50187906  0.54449958  1
  S2-  S230  1  0.13137659  0.74610459  0.04599994  1
  S2-  S231  1  0.10860705  0.74272408  0.54411539  1
  S2-  S232  1  0.38368853  -0.00483583  0.04362650  1
  S2-  S233  1  0.35851704  -0.00468704  0.55482118  1
  S2-  S234  1  0.38218330  0.23596069  0.04404293  1
  S2-  S235  1  0.36661799  0.24876077  0.56193841  1
  S2-  S236  1  0.38464623  0.49913360  0.04029014  1
  S2-  S237  1  0.36821760  0.50119420  0.54762399  1
  S2-  S238  1  0.38462737  0.74493901  0.05866056  1
  S2-  S239  1  0.36424281  0.74890956  0.55677445  1
  S2-  S240  1  0.63585795  -0.00579848  0.04425414  1
  S2-  S241  1  0.61741131  -0.00250425  0.54377286  1
  S2-  S242  1  0.63455310  0.24389558  0.04764295  1
  S2-  S243  1  0.61164839  0.24823208  0.54722922  1
  S2-  S244  1  0.63100912  0.48981963  0.04655068  1
  S2-  S245  1  0.60991992  0.50049615  0.53018754  1
  S2-  S246  1  0.64031351  0.74531681  0.06274340  1
  S2-  S247  1  0.61300674  0.75517931  0.53181943  1
  S2-  S248  1  0.89121374  0.00099158  0.03893152  1
  S2-  S249  1  0.86388883  0.00072462  0.53492294  1
  S2-  S250  1  0.88359557  0.24300507  0.04393179  1
  S2-  S251  1  0.86338867  0.25455528  0.54266711  1
  S2-  S252  1  0.88746592  0.48791124  0.04277061  1
  S2-  S253  1  0.85818527  0.49934170  0.52765886  1
  S2-  S254  1  0.88613989  0.74060678  0.04090580  1
  S2-  S255  1  0.86056247  0.75125406  0.52228788  1
