# generated using pymatgen
data_La9Ce10Pr6Nd4Sm3(BiS2)32
_symmetry_space_group_name_H-M   'P 1'
_cell_length_a   16.18829233
_cell_length_b   16.22998295
_cell_length_c   27.20777824
_cell_angle_alpha   89.95052652
_cell_angle_beta   90.15970713
_cell_angle_gamma   90.09216582
_symmetry_Int_Tables_number   1
_chemical_formula_structural   La9Ce10Pr6Nd4Sm3(BiS2)32
_chemical_formula_sum   'La18 Ce20 Pr12 Nd8 Sm6 Bi64 S128'
_cell_volume   7148.41523200
_cell_formula_units_Z   2
loop_
 _symmetry_equiv_pos_site_id
 _symmetry_equiv_pos_as_xyz
  1  'x, y, z'
loop_
 _atom_type_symbol
 _atom_type_oxidation_number
  La3+  3.0
  Ce3+  3.0
  Pr3+  3.0
  Nd3+  3.0
  Sm3+  3.0
  Bi2+  2.0
  S2-  -2.0
loop_
 _atom_site_type_symbol
 _atom_site_label
 _atom_site_symmetry_multiplicity
 _atom_site_fract_x
 _atom_site_fract_y
 _atom_site_fract_z
 _atom_site_occupancy
  La3+  La0  1  0.27654651  0.62063719  0.06726543  1
  La3+  La1  1  0.63663506  -0.01322075  0.42216639  1
  La3+  La2  1  0.38241864  0.50338793  0.42046055  1
  La3+  La3  1  0.77749401  0.61915443  0.05519118  1
  La3+  La4  1  0.90070931  -0.00602814  0.94148771  1
  La3+  La5  1  0.01598511  0.62447674  0.58935124  1
  La3+  La6  1  0.26069008  0.36375724  0.55385379  1
  La3+  La7  1  0.90256344  0.74910028  0.91747873  1
  La3+  La8  1  0.51149574  0.11798608  0.56407216  1
  La3+  La9  1  0.25806803  0.86722187  0.56823801  1
  La3+  La10  1  0.15409544  0.23089391  0.91657544  1
  La3+  La11  1  0.64688866  0.74429858  0.92726323  1
  La3+  La12  1  0.88561845  0.25023707  0.42236770  1
  La3+  La13  1  0.00981878  0.36040432  0.57301850  1
  La3+  La14  1  0.64785678  0.49028930  0.93685802  1
  La3+  La15  1  0.50745510  0.61326771  0.57196086  1
  La3+  La16  1  0.38898440  0.23302256  0.41638306  1
  La3+  La17  1  0.64797323  0.23900163  0.93009204  1
  Ce3+  Ce18  1  0.02359533  0.11961777  0.06582494  1
  Ce3+  Ce19  1  0.13105071  0.74183191  0.44496718  1
  Ce3+  Ce20  1  0.50648848  0.36623206  0.54373499  1
  Ce3+  Ce21  1  0.63025990  0.72891057  0.43331856  1
  Ce3+  Ce22  1  0.90199532  0.48746545  0.93610580  1
  Ce3+  Ce23  1  0.75402342  0.12289227  0.56604341  1
  Ce3+  Ce24  1  0.75297503  0.60921126  0.57270932  1
  Ce3+  Ce25  1  0.40205229  0.24060651  0.93826335  1
  Ce3+  Ce26  1  0.52517956  0.36494018  0.06340337  1
  Ce3+  Ce27  1  0.02377072  0.86667158  0.06729614  1
  Ce3+  Ce28  1  0.52734474  0.12037803  0.06547672  1
  Ce3+  Ce29  1  0.75611411  0.86771098  0.55484595  1
  Ce3+  Ce30  1  0.14985675  -0.00673387  0.95018069  1
  Ce3+  Ce31  1  0.63539268  0.49233446  0.43920586  1
  Ce3+  Ce32  1  0.28449675  0.86925517  0.06604229  1
  Ce3+  Ce33  1  0.02654573  0.36815465  0.05799218  1
  Ce3+  Ce34  1  0.39947437  0.74358184  0.93398940  1
  Ce3+  Ce35  1  0.26392427  0.61146443  0.56706292  1
  Ce3+  Ce36  1  0.88312233  0.73687216  0.45461331  1
  Ce3+  Ce37  1  0.38096425  0.74168803  0.44684251  1
  Pr3+  Pr38  1  0.27720093  0.11909762  0.07231650  1
  Pr3+  Pr39  1  0.52600234  0.61666064  0.06207160  1
  Pr3+  Pr40  1  0.15001018  0.49164278  0.93572695  1
  Pr3+  Pr41  1  0.88003421  -0.01029397  0.43559166  1
  Pr3+  Pr42  1  0.00442145  0.11767114  0.55562477  1
  Pr3+  Pr43  1  0.88603774  0.49250974  0.44284494  1
  Pr3+  Pr44  1  0.13153101  -0.00918528  0.44168484  1
  Pr3+  Pr45  1  0.26561973  0.11541757  0.57126618  1
  Pr3+  Pr46  1  0.77767311  0.12820512  0.09578463  1
  Pr3+  Pr47  1  0.13824330  0.23988624  0.43754779  1
  Pr3+  Pr48  1  0.51339218  0.86714541  0.55282486  1
  Pr3+  Pr49  1  0.63744225  0.24147409  0.43380090  1
  Nd3+  Nd50  1  0.00238987  0.87103440  0.56726173  1
  Nd3+  Nd51  1  0.65124048  -0.00516321  0.94758449  1
  Nd3+  Nd52  1  0.90018885  0.24399137  0.94115391  1
  Nd3+  Nd53  1  0.75844598  0.36718514  0.56541320  1
  Nd3+  Nd54  1  0.13421803  0.49206803  0.44371578  1
  Nd3+  Nd55  1  0.39461216  0.48892777  0.94498711  1
  Nd3+  Nd56  1  0.39929429  -0.00650892  0.94628240  1
  Nd3+  Nd57  1  0.77729733  0.86860982  0.06488652  1
  Sm3+  Sm58  1  0.38344798  -0.00813002  0.43796261  1
  Sm3+  Sm59  1  0.27352009  0.36596138  0.06185153  1
  Sm3+  Sm60  1  0.53342832  0.86596869  0.06397366  1
  Sm3+  Sm61  1  0.02566209  0.61921036  0.05072779  1
  Sm3+  Sm62  1  0.15314918  0.74525883  0.93517539  1
  Sm3+  Sm63  1  0.77586844  0.36630146  0.05910043  1
  Bi2+  Bi64  1  0.01003944  0.05713292  0.28808849  1
  Bi2+  Bi65  1  -0.02586620  0.08708935  0.77779461  1
  Bi2+  Bi66  1  -0.06361599  0.40737178  0.25468742  1
  Bi2+  Bi67  1  -0.00996796  0.40231815  0.80438064  1
  Bi2+  Bi68  1  -0.01179074  0.60233136  0.25667520  1
  Bi2+  Bi69  1  0.04576507  0.65178432  0.77835590  1
  Bi2+  Bi70  1  -0.02756134  0.87992239  0.33019725  1
  Bi2+  Bi71  1  0.06793037  0.93041086  0.81889655  1
  Bi2+  Bi72  1  0.23736809  0.14390454  0.30540022  1
  Bi2+  Bi73  1  0.17372372  0.10265466  0.70624966  1
  Bi2+  Bi74  1  0.21534244  0.38041738  0.29434219  1
  Bi2+  Bi75  1  0.24604683  0.38418083  0.81110001  1
  Bi2+  Bi76  1  0.23760684  0.61694891  0.30043099  1
  Bi2+  Bi77  1  0.24605294  0.67373493  0.77869696  1
  Bi2+  Bi78  1  0.24660304  0.87647963  0.28787398  1
  Bi2+  Bi79  1  0.23731065  0.95096739  0.76947604  1
  Bi2+  Bi80  1  0.45734573  0.08593861  0.26309136  1
  Bi2+  Bi81  1  0.41466029  0.15156091  0.79344618  1
  Bi2+  Bi82  1  0.55100797  0.48615720  0.28571141  1
  Bi2+  Bi83  1  0.50758510  0.38403964  0.79694971  1
  Bi2+  Bi84  1  0.49648945  0.70770339  0.29618638  1
  Bi2+  Bi85  1  0.50315286  0.63432156  0.72350863  1
  Bi2+  Bi86  1  0.43975704  0.89262657  0.28769747  1
  Bi2+  Bi87  1  0.46055462  0.84859104  0.80258401  1
  Bi2+  Bi88  1  0.69677158  0.11766992  0.29722358  1
  Bi2+  Bi89  1  0.70691137  0.18982423  0.80060111  1
  Bi2+  Bi90  1  0.73780151  0.42387965  0.32122734  1
  Bi2+  Bi91  1  0.74550136  0.37799908  0.79339772  1
  Bi2+  Bi92  1  0.81253225  0.59863077  0.31146986  1
  Bi2+  Bi93  1  0.75076518  0.71002580  0.74992446  1
  Bi2+  Bi94  1  0.79559852  0.87443631  0.28185171  1
  Bi2+  Bi95  1  0.74613438  0.89004487  0.81033233  1
  Bi2+  Bi96  1  0.05629274  -0.04076090  0.19134195  1
  Bi2+  Bi97  1  0.01068823  0.00449329  0.67444525  1
  Bi2+  Bi98  1  0.10391850  0.20458672  0.23526758  1
  Bi2+  Bi99  1  0.11241298  0.28143983  0.70229008  1
  Bi2+  Bi100  1  0.11525254  0.50413525  0.18550647  1
  Bi2+  Bi101  1  0.11258567  0.50806314  0.70542156  1
  Bi2+  Bi102  1  0.07660275  0.78789846  0.24975032  1
  Bi2+  Bi103  1  0.16754945  0.80321580  0.70810007  1
  Bi2+  Bi104  1  0.24341715  0.01132735  0.20096792  1
  Bi2+  Bi105  1  0.40003129  0.01800872  0.70126342  1
  Bi2+  Bi106  1  0.41130350  0.25659160  0.21759267  1
  Bi2+  Bi107  1  0.36804749  0.30780984  0.73049757  1
  Bi2+  Bi108  1  0.36861529  0.49979481  0.19624471  1
  Bi2+  Bi109  1  0.35618534  0.50402339  0.73276688  1
  Bi2+  Bi110  1  0.34963492  0.76339092  0.19705656  1
  Bi2+  Bi111  1  0.36823834  0.77849537  0.70862833  1
  Bi2+  Bi112  1  0.58797053  -0.06856526  0.20065948  1
  Bi2+  Bi113  1  0.60343570  0.05209780  0.74540081  1
  Bi2+  Bi114  1  0.61450393  0.31047863  0.26069757  1
  Bi2+  Bi115  1  0.61755039  0.23365522  0.69830752  1
  Bi2+  Bi116  1  0.61908438  0.56530464  0.18833350  1
  Bi2+  Bi117  1  0.60998973  0.48701550  0.69448147  1
  Bi2+  Bi118  1  0.67677795  0.72119662  0.25504193  1
  Bi2+  Bi119  1  0.61174299  0.84824215  0.72717571  1
  Bi2+  Bi120  1  0.86116046  0.00654843  0.20733944  1
  Bi2+  Bi121  1  0.82306225  0.02185611  0.70671475  1
  Bi2+  Bi122  1  0.86367192  0.23545105  0.22506787  1
  Bi2+  Bi123  1  0.87133063  0.21530243  0.71563035  1
  Bi2+  Bi124  1  0.77325792  0.44502669  0.19404952  1
  Bi2+  Bi125  1  0.83038774  0.53044611  0.73780535  1
  Bi2+  Bi126  1  0.87304449  0.73905380  0.20937470  1
  Bi2+  Bi127  1  0.88807256  0.83671857  0.71506480  1
  S2-  S128  1  -0.06931359  0.13908761  0.14923174  1
  S2-  S129  1  -0.00910706  0.21528378  0.63894648  1
  S2-  S130  1  0.01195952  0.38014614  0.15593703  1
  S2-  S131  1  -0.00251373  0.40131123  0.67386341  1
  S2-  S132  1  0.02329185  0.62791589  0.14973719  1
  S2-  S133  1  -0.03905951  0.59725105  0.68797740  1
  S2-  S134  1  -0.10017929  0.85599050  0.13798902  1
  S2-  S135  1  0.01616901  0.78672661  0.65418956  1
  S2-  S136  1  0.23147436  0.17079319  0.16678774  1
  S2-  S137  1  0.39706440  0.14558442  0.64132877  1
  S2-  S138  1  0.25720335  0.40187068  0.15975639  1
  S2-  S139  1  0.21992432  0.37454769  0.65242487  1
  S2-  S140  1  0.25059311  0.61868181  0.16853515  1
  S2-  S141  1  0.16686850  0.62466379  0.64674416  1
  S2-  S142  1  0.21625395  0.83911570  0.15313156  1
  S2-  S143  1  0.25959817  0.98559347  0.64179102  1
  S2-  S144  1  0.47381119  0.13642514  0.15950038  1
  S2-  S145  1  0.62702079  0.09368352  0.64176103  1
  S2-  S146  1  0.47656221  0.37793079  0.15896782  1
  S2-  S147  1  0.52952349  0.36010738  0.64171088  1
  S2-  S148  1  0.46308592  0.63497451  0.15597342  1
  S2-  S149  1  0.38178193  0.58020963  0.64244197  1
  S2-  S150  1  0.43969309  0.87497706  0.14923613  1
  S2-  S151  1  0.48268128  0.87874087  0.65248512  1
  S2-  S152  1  0.70037578  0.06032154  0.18203405  1
  S2-  S153  1  0.76481527  0.24810742  0.64058846  1
  S2-  S154  1  0.76010424  0.28281710  0.14652755  1
  S2-  S155  1  0.76014049  0.47745577  0.64603036  1
  S2-  S156  1  0.78612646  0.60970268  0.15552466  1
  S2-  S157  1  0.62691120  0.64002797  0.64553734  1
  S2-  S158  1  0.65602592  0.83735523  0.13786379  1
  S2-  S159  1  0.74819946  0.87871848  0.65200464  1
  S2-  S160  1  0.16942378  -0.00311252  0.34328949  1
  S2-  S161  1  0.14393720  0.06851379  0.86229413  1
  S2-  S162  1  0.10456390  0.26004628  0.33852034  1
  S2-  S163  1  0.10446283  0.28912003  0.82198224  1
  S2-  S164  1  0.13002589  0.50404528  0.34300744  1
  S2-  S165  1  0.11962241  0.51220529  0.83576953  1
  S2-  S166  1  0.15507021  0.73445293  0.34707362  1
  S2-  S167  1  0.04481635  0.74940720  0.85404851  1
  S2-  S168  1  0.37295062  0.08859304  0.35649751  1
  S2-  S169  1  0.41863834  0.00584863  0.84687387  1
  S2-  S170  1  0.34571317  0.28141274  0.31849648  1
  S2-  S171  1  0.29940938  0.23794707  0.85756833  1
  S2-  S172  1  0.33803436  0.47949535  0.31892569  1
  S2-  S173  1  0.38661484  0.48368936  0.84534160  1
  S2-  S174  1  0.37228194  0.66197216  0.36026600  1
  S2-  S175  1  0.27654725  0.75183664  0.86325875  1
  S2-  S176  1  0.56469761  0.00569942  0.32649671  1
  S2-  S177  1  0.66094986  0.03276752  0.84914754  1
  S2-  S178  1  0.56958028  0.22233919  0.34095619  1
  S2-  S179  1  0.51816400  0.24459046  0.86010838  1
  S2-  S180  1  0.59668352  0.59192365  0.36372268  1
  S2-  S181  1  0.63542166  0.48173436  0.83570997  1
  S2-  S182  1  0.63325178  0.80164409  0.34472356  1
  S2-  S183  1  0.51510435  0.72647224  0.85829614  1
  S2-  S184  1  0.77160780  -0.00104513  0.35391670  1
  S2-  S185  1  0.89843618  -0.09442256  0.85474589  1
  S2-  S186  1  0.82673677  0.19805886  0.32581092  1
  S2-  S187  1  0.88527275  0.30165482  0.84628033  1
  S2-  S188  1  0.90391008  0.39602666  0.35845942  1
  S2-  S189  1  0.88465420  0.52677453  0.84095556  1
  S2-  S190  1  0.89494464  0.72389858  0.35746572  1
  S2-  S191  1  0.76449031  0.72952859  0.85084059  1
  S2-  S192  1  0.00609128  0.11709850  0.44584246  1
  S2-  S193  1  0.02321084  0.12174070  0.95888205  1
  S2-  S194  1  0.01617948  0.36491325  0.46098346  1
  S2-  S195  1  0.02963762  0.36298943  0.95043691  1
  S2-  S196  1  0.01104997  0.61548765  0.45765124  1
  S2-  S197  1  0.02522509  0.61626610  0.94809213  1
  S2-  S198  1  0.00588002  0.86618961  0.46086625  1
  S2-  S199  1  0.02815924  0.86946944  0.96128547  1
  S2-  S200  1  0.25792283  0.11236399  0.45920902  1
  S2-  S201  1  0.27630066  0.11594106  0.96440185  1
  S2-  S202  1  0.26166663  0.36718398  0.44406354  1
  S2-  S203  1  0.27065458  0.36505896  0.95708062  1
  S2-  S204  1  0.25453908  0.61827392  0.46036248  1
  S2-  S205  1  0.27297541  0.61499560  0.95778979  1
  S2-  S206  1  0.25903144  0.86886407  0.45543854  1
  S2-  S207  1  0.27424859  0.87250220  0.96012332  1
  S2-  S208  1  0.51260133  0.11143629  0.45219034  1
  S2-  S209  1  0.52528756  0.11470090  0.95985510  1
  S2-  S210  1  0.50722643  0.37048727  0.43642926  1
  S2-  S211  1  0.52295129  0.36876252  0.95816755  1
  S2-  S212  1  0.50220525  0.61775059  0.46439909  1
  S2-  S213  1  0.52123494  0.60930677  0.95557441  1
  S2-  S214  1  0.50476422  0.86531610  0.44577401  1
  S2-  S215  1  0.52614813  0.87317375  0.95816983  1
  S2-  S216  1  0.76154151  0.12135386  0.45405728  1
  S2-  S217  1  0.77675846  0.12053115  0.94850607  1
  S2-  S218  1  0.75784920  0.36842359  0.45629811  1
  S2-  S219  1  0.77257455  0.36508607  0.95372009  1
  S2-  S220  1  0.75966317  0.61247630  0.46150373  1
  S2-  S221  1  0.77591492  0.61182523  0.94891192  1
  S2-  S222  1  0.75935274  0.85868138  0.45055678  1
  S2-  S223  1  0.77234928  0.86965572  0.95843103  1
  S2-  S224  1  0.14923781  -0.00555115  0.05542502  1
  S2-  S225  1  0.12830527  -0.00858244  0.54695850  1
  S2-  S226  1  0.14976065  0.24384352  0.05163145  1
  S2-  S227  1  0.13940242  0.23449127  0.54520686  1
  S2-  S228  1  0.15040980  0.49403030  0.04472477  1
  S2-  S229  1  0.13241814  0.49084762  0.54952524  1
  S2-  S230  1  0.14895585  0.74164724  0.04393860  1
  S2-  S231  1  0.13271311  0.74680827  0.54843086  1
  S2-  S232  1  0.40468245  -0.00312675  0.05244741  1
  S2-  S233  1  0.38664918  -0.01112632  0.54069892  1
  S2-  S234  1  0.39752400  0.24477534  0.04947435  1
  S2-  S235  1  0.38430908  0.24228003  0.53113292  1
  S2-  S236  1  0.39772216  0.48977690  0.05099871  1
  S2-  S237  1  0.38280630  0.48679284  0.53341305  1
  S2-  S238  1  0.40409794  0.74378888  0.04329918  1
  S2-  S239  1  0.38383043  0.74490355  0.55205405  1
  S2-  S240  1  0.65552642  0.00109667  0.05285031  1
  S2-  S241  1  0.63656189  -0.00946142  0.53486742  1
  S2-  S242  1  0.65121690  0.24203621  0.04379136  1
  S2-  S243  1  0.63218908  0.24634130  0.53887680  1
  S2-  S244  1  0.65070436  0.48848742  0.04774397  1
  S2-  S245  1  0.63092721  0.48871612  0.54274402  1
  S2-  S246  1  0.64917747  0.73755548  0.03627431  1
  S2-  S247  1  0.63533209  0.74232269  0.54119917  1
  S2-  S248  1  0.89531880  0.00165222  0.04871475  1
  S2-  S249  1  0.87861480  -0.00574808  0.54486766  1
  S2-  S250  1  0.89799214  0.24618578  0.04583581  1
  S2-  S251  1  0.88243792  0.24475877  0.53404836  1
  S2-  S252  1  0.90096924  0.49052583  0.04500590  1
  S2-  S253  1  0.89041089  0.49430113  0.55058395  1
  S2-  S254  1  0.90282977  0.74012573  0.03592542  1
  S2-  S255  1  0.87899513  0.73860122  0.55954775  1
