# generated using pymatgen
data_La9Ce10Pr6Nd4Sm3(BiS2)32
_symmetry_space_group_name_H-M   'P 1'
_cell_length_a   16.15875172
_cell_length_b   16.20353466
_cell_length_c   27.13293768
_cell_angle_alpha   89.97469562
_cell_angle_beta   89.97025086
_cell_angle_gamma   89.95683474
_symmetry_Int_Tables_number   1
_chemical_formula_structural   La9Ce10Pr6Nd4Sm3(BiS2)32
_chemical_formula_sum   'La18 Ce20 Pr12 Nd8 Sm6 Bi64 S128'
_cell_volume   7104.18338765
_cell_formula_units_Z   2
loop_
 _symmetry_equiv_pos_site_id
 _symmetry_equiv_pos_as_xyz
  1  'x, y, z'
loop_
 _atom_type_symbol
 _atom_type_oxidation_number
  La3+  3.0
  Ce3+  3.0
  Pr3+  3.0
  Nd3+  3.0
  Sm3+  3.0
  Bi2+  2.0
  S2-  -2.0
loop_
 _atom_site_type_symbol
 _atom_site_label
 _atom_site_symmetry_multiplicity
 _atom_site_fract_x
 _atom_site_fract_y
 _atom_site_fract_z
 _atom_site_occupancy
  La3+  La0  1  0.00271737  0.62895811  0.08832020  1
  La3+  La1  1  0.62542691  0.00067110  0.93670723  1
  La3+  La2  1  0.02524340  0.12498178  0.59481368  1
  La3+  La3  1  0.49563247  0.12924536  0.07033201  1
  La3+  La4  1  0.75066504  0.11736410  0.06952930  1
  La3+  La5  1  0.51475274  0.88719578  0.57427343  1
  La3+  La6  1  0.25231143  0.36678457  0.06827020  1
  La3+  La7  1  0.75859302  0.38285678  0.57861888  1
  La3+  La8  1  0.25648301  0.37963848  0.57269879  1
  La3+  La9  1  0.74196026  0.87002124  0.07317238  1
  La3+  La10  1  0.75434351  0.37306899  0.06604183  1
  La3+  La11  1  0.88802901  0.74695141  0.40315659  1
  La3+  La12  1  0.26008550  0.63999329  0.57418260  1
  La3+  La13  1  0.13339807  0.26134055  0.43197336  1
  La3+  La14  1  0.12303287  -0.00115227  0.93492015  1
  La3+  La15  1  0.37343010  0.73848863  0.92351122  1
  La3+  La16  1  -0.00143728  0.13130658  0.07593569  1
  La3+  La17  1  0.63201217  0.74911671  0.91170765  1
  Ce3+  Ce18  1  0.62920187  0.50210403  0.93993296  1
  Ce3+  Ce19  1  0.12792661  0.74255908  0.93517292  1
  Ce3+  Ce20  1  0.25186027  0.62332342  0.06952655  1
  Ce3+  Ce21  1  0.01042815  0.88368655  0.55484451  1
  Ce3+  Ce22  1  0.76631431  0.88373018  0.55360127  1
  Ce3+  Ce23  1  0.25947494  0.88190461  0.55650951  1
  Ce3+  Ce24  1  0.38534368  0.75667230  0.43934972  1
  Ce3+  Ce25  1  0.76259581  0.63434507  0.55981487  1
  Ce3+  Ce26  1  0.00783475  0.63307382  0.55764921  1
  Ce3+  Ce27  1  0.88923422  0.25767306  0.45237525  1
  Ce3+  Ce28  1  0.87440164  0.50216198  0.94542593  1
  Ce3+  Ce29  1  0.63058447  0.24711980  0.93078900  1
  Ce3+  Ce30  1  0.38309001  0.50774671  0.44411333  1
  Ce3+  Ce31  1  0.51005244  0.63323937  0.55591141  1
  Ce3+  Ce32  1  0.00897531  0.38387501  0.57415578  1
  Ce3+  Ce33  1  0.63852703  0.00600495  0.43763629  1
  Ce3+  Ce34  1  0.51000031  0.38245997  0.57220898  1
  Ce3+  Ce35  1  0.13674534  0.51091728  0.44604705  1
  Ce3+  Ce36  1  0.00189468  0.37029654  0.05627408  1
  Ce3+  Ce37  1  0.38065315  -0.00159619  0.93832285  1
  Pr3+  Pr38  1  0.00462747  0.87261926  0.06256909  1
  Pr3+  Pr39  1  0.25190594  0.87136949  0.05563994  1
  Pr3+  Pr40  1  0.50785260  0.13058504  0.55687609  1
  Pr3+  Pr41  1  0.50527392  0.62481884  0.06449569  1
  Pr3+  Pr42  1  0.51060169  0.37378763  0.06684179  1
  Pr3+  Pr43  1  0.87553503  -0.00350056  0.94357471  1
  Pr3+  Pr44  1  0.39404042  -0.00067946  0.42253759  1
  Pr3+  Pr45  1  0.64011448  0.50726570  0.44308447  1
  Pr3+  Pr46  1  0.63696584  0.75761436  0.43900030  1
  Pr3+  Pr47  1  0.12439265  0.25131107  0.92680366  1
  Pr3+  Pr48  1  0.88941644  0.00780950  0.43685789  1
  Pr3+  Pr49  1  0.13773727  0.75470608  0.43086834  1
  Nd3+  Nd50  1  0.63656532  0.26007916  0.44480420  1
  Nd3+  Nd51  1  0.37655245  0.25107005  0.93086930  1
  Nd3+  Nd52  1  0.49897920  0.87070208  0.05682401  1
  Nd3+  Nd53  1  0.38833341  0.26839814  0.42976004  1
  Nd3+  Nd54  1  0.75179315  0.62924909  0.07716113  1
  Nd3+  Nd55  1  0.13630267  0.00489049  0.43143727  1
  Nd3+  Nd56  1  0.37692761  0.49803664  0.94672803  1
  Nd3+  Nd57  1  0.87717016  0.24662843  0.93136621  1
  Sm3+  Sm58  1  0.12511398  0.50000008  0.94953034  1
  Sm3+  Sm59  1  0.25986362  0.13059528  0.54494553  1
  Sm3+  Sm60  1  0.87478872  0.74642401  0.94675510  1
  Sm3+  Sm61  1  0.89464560  0.50273401  0.43807210  1
  Sm3+  Sm62  1  0.76338119  0.13149039  0.55516144  1
  Sm3+  Sm63  1  0.24917558  0.12409759  0.05122355  1
  Bi2+  Bi64  1  -0.06150434  0.14757237  0.29193370  1
  Bi2+  Bi65  1  -0.01456088  0.11227681  0.79215803  1
  Bi2+  Bi66  1  0.01750467  0.36362978  0.29091398  1
  Bi2+  Bi67  1  0.00938120  0.42532062  0.78225379  1
  Bi2+  Bi68  1  0.09992937  0.62376714  0.30315633  1
  Bi2+  Bi69  1  0.02939756  0.69426623  0.81399508  1
  Bi2+  Bi70  1  0.00544461  0.92004269  0.29214674  1
  Bi2+  Bi71  1  0.01815899  0.88415996  0.79400917  1
  Bi2+  Bi72  1  0.24500718  0.15538573  0.29336806  1
  Bi2+  Bi73  1  0.25792556  0.14879136  0.77084950  1
  Bi2+  Bi74  1  0.27250402  0.45218316  0.28938806  1
  Bi2+  Bi75  1  0.23728230  0.38173234  0.78902645  1
  Bi2+  Bi76  1  0.28765520  0.62492342  0.34627688  1
  Bi2+  Bi77  1  0.21829472  0.62054501  0.80339081  1
  Bi2+  Bi78  1  0.25858078  0.81325068  0.31850555  1
  Bi2+  Bi79  1  0.27555680  0.86376622  0.73761397  1
  Bi2+  Bi80  1  0.49059335  0.11417051  0.28553098  1
  Bi2+  Bi81  1  0.45693322  0.13496825  0.80665973  1
  Bi2+  Bi82  1  0.52989523  0.36390033  0.30060296  1
  Bi2+  Bi83  1  0.52547383  0.33699049  0.81632330  1
  Bi2+  Bi84  1  0.46118588  0.62585155  0.27648311  1
  Bi2+  Bi85  1  0.48715252  0.60894288  0.78874947  1
  Bi2+  Bi86  1  0.43140823  0.82084790  0.25517254  1
  Bi2+  Bi87  1  0.51340777  0.87662601  0.78376467  1
  Bi2+  Bi88  1  0.75706275  0.15290380  0.25016066  1
  Bi2+  Bi89  1  0.73616495  0.13405497  0.79203103  1
  Bi2+  Bi90  1  0.76475480  0.34794313  0.29071674  1
  Bi2+  Bi91  1  0.74437831  0.39290239  0.78695348  1
  Bi2+  Bi92  1  0.72937901  0.61853875  0.30292452  1
  Bi2+  Bi93  1  0.76010434  0.63061105  0.79459100  1
  Bi2+  Bi94  1  0.68500191  0.87622619  0.29562705  1
  Bi2+  Bi95  1  0.77191182  0.88967195  0.79499059  1
  Bi2+  Bi96  1  0.15997747  -0.04307148  0.23325516  1
  Bi2+  Bi97  1  0.16175266  0.01139205  0.70172887  1
  Bi2+  Bi98  1  0.12818773  0.20700657  0.19898000  1
  Bi2+  Bi99  1  0.10004168  0.27322847  0.73447440  1
  Bi2+  Bi100  1  0.11347656  0.48585350  0.22164598  1
  Bi2+  Bi101  1  0.13405318  0.51059400  0.70706099  1
  Bi2+  Bi102  1  0.21292599  0.72037307  0.22164821  1
  Bi2+  Bi103  1  0.10635727  0.76955224  0.71437306  1
  Bi2+  Bi104  1  0.35543270  -0.01422629  0.21452482  1
  Bi2+  Bi105  1  0.36924307  0.02480126  0.70248207  1
  Bi2+  Bi106  1  0.34907320  0.29124063  0.20643360  1
  Bi2+  Bi107  1  0.38779328  0.21997948  0.69436016  1
  Bi2+  Bi108  1  0.38854066  0.48869462  0.19710012  1
  Bi2+  Bi109  1  0.40433923  0.42853743  0.74338796  1
  Bi2+  Bi110  1  0.38713592  0.68433741  0.17238128  1
  Bi2+  Bi111  1  0.38179506  0.69280558  0.70192607  1
  Bi2+  Bi112  1  0.62131042  -0.01327676  0.21174944  1
  Bi2+  Bi113  1  0.64621703  0.04274940  0.70849298  1
  Bi2+  Bi114  1  0.60531827  0.25271566  0.21160861  1
  Bi2+  Bi115  1  0.57946799  0.22838440  0.72288228  1
  Bi2+  Bi116  1  0.58443573  0.49115590  0.21688562  1
  Bi2+  Bi117  1  0.60062122  0.47794270  0.72879904  1
  Bi2+  Bi118  1  0.62849687  0.74037931  0.21016442  1
  Bi2+  Bi119  1  0.63157332  0.72061969  0.67521585  1
  Bi2+  Bi120  1  0.90196421  0.02570419  0.20501095  1
  Bi2+  Bi121  1  0.87037842  -0.07125271  0.70047998  1
  Bi2+  Bi122  1  0.87047052  0.32499004  0.19364567  1
  Bi2+  Bi123  1  0.83030651  0.26016142  0.71821887  1
  Bi2+  Bi124  1  0.86819706  0.49790670  0.24396234  1
  Bi2+  Bi125  1  0.88012437  0.51614746  0.71236613  1
  Bi2+  Bi126  1  0.89823415  0.72765388  0.21462465  1
  Bi2+  Bi127  1  0.90890892  0.74327681  0.72377243  1
  S2-  S128  1  0.05639800  0.05230602  0.16212653  1
  S2-  S129  1  -0.02714563  0.17285373  0.69094965  1
  S2-  S130  1  0.01864862  0.27929814  0.13912056  1
  S2-  S131  1  -0.11537485  0.38088950  0.65004970  1
  S2-  S132  1  -0.12935681  0.59061090  0.15581948  1
  S2-  S133  1  0.00383545  0.59377381  0.65336284  1
  S2-  S134  1  0.00096209  0.78014669  0.14991145  1
  S2-  S135  1  0.01713358  0.96338469  0.64344920  1
  S2-  S136  1  0.26583954  0.16346585  0.14761695  1
  S2-  S137  1  0.19092549  0.13097900  0.63638525  1
  S2-  S138  1  0.20152358  0.36383536  0.16624533  1
  S2-  S139  1  0.12880301  0.36376200  0.64588423  1
  S2-  S140  1  0.14853483  0.61400714  0.15023728  1
  S2-  S141  1  0.27066057  0.56197190  0.66513324  1
  S2-  S142  1  0.24163792  0.88371737  0.15663548  1
  S2-  S143  1  0.25437773  0.78756322  0.64094712  1
  S2-  S144  1  0.48464771  0.05317498  0.16511144  1
  S2-  S145  1  0.51474872  0.02831870  0.63983139  1
  S2-  S146  1  0.47029184  0.26173996  0.14309115  1
  S2-  S147  1  0.38603264  0.37034443  0.64222000  1
  S2-  S148  1  0.61778242  0.61130304  0.14538803  1
  S2-  S149  1  0.50327101  0.60227710  0.65272497  1
  S2-  S150  1  0.57862093  0.85861829  0.14674757  1
  S2-  S151  1  0.48997642  0.81422809  0.66823160  1
  S2-  S152  1  0.85074951  0.16675325  0.14826682  1
  S2-  S153  1  0.75374932  0.13811936  0.65390648  1
  S2-  S154  1  0.64198227  0.37884852  0.14518806  1
  S2-  S155  1  0.62583376  0.37649114  0.64932289  1
  S2-  S156  1  0.76871290  0.76243030  0.15481068  1
  S2-  S157  1  0.75431023  0.59293584  0.65570801  1
  S2-  S158  1  0.75196751  0.99001432  0.14849531  1
  S2-  S159  1  0.72492956  0.87310101  0.64894611  1
  S2-  S160  1  0.12969978  0.03126001  0.33140061  1
  S2-  S161  1  0.11088591  0.01679431  0.83425416  1
  S2-  S162  1  0.16142766  0.27769132  0.33171931  1
  S2-  S163  1  -0.00315476  0.23403091  0.85388147  1
  S2-  S164  1  0.05073461  0.48154184  0.36293427  1
  S2-  S165  1  0.12475683  0.48244200  0.85077949  1
  S2-  S166  1  0.03502636  0.76859447  0.34577502  1
  S2-  S167  1  0.23531942  0.75442798  0.85604487  1
  S2-  S168  1  0.35795586  0.03208186  0.32200829  1
  S2-  S169  1  0.40267372  -0.02146283  0.84043204  1
  S2-  S170  1  0.39493681  0.22005860  0.33151616  1
  S2-  S171  1  0.25593235  0.25570092  0.85628715  1
  S2-  S172  1  0.39279934  0.41274995  0.36182077  1
  S2-  S173  1  0.36431402  0.57189434  0.85567427  1
  S2-  S174  1  0.41589412  0.85103438  0.36035199  1
  S2-  S175  1  0.48460252  0.75642291  0.84458083  1
  S2-  S176  1  0.59058655  0.00596951  0.34369164  1
  S2-  S177  1  0.63446016  -0.09807520  0.85203351  1
  S2-  S178  1  0.63613545  0.25877475  0.34514790  1
  S2-  S179  1  0.60805371  0.12085488  0.86021190  1
  S2-  S180  1  0.63368323  0.49590167  0.34235593  1
  S2-  S181  1  0.62985244  0.59427286  0.85525407  1
  S2-  S182  1  0.61385158  0.73896018  0.33910041  1
  S2-  S183  1  0.65270496  0.77256519  0.76279870  1
  S2-  S184  1  0.87516737  -0.00289764  0.33593089  1
  S2-  S185  1  0.85681043  0.02801465  0.84397265  1
  S2-  S186  1  0.89857450  0.28560903  0.35497058  1
  S2-  S187  1  0.75898257  0.26633311  0.85698616  1
  S2-  S188  1  0.86542432  0.58634480  0.35316050  1
  S2-  S189  1  0.84416678  0.50418846  0.84744299  1
  S2-  S190  1  0.82274710  0.77824900  0.30725510  1
  S2-  S191  1  0.79573512  0.75199933  0.85771133  1
  S2-  S192  1  0.01348644  0.13145591  0.44163304  1
  S2-  S193  1  0.00098522  0.12159359  0.95845623  1
  S2-  S194  1  0.01082431  0.38207665  0.46597407  1
  S2-  S195  1  0.00077611  0.37787190  0.95105189  1
  S2-  S196  1  0.00810602  0.63464593  0.45334105  1
  S2-  S197  1  0.00107009  0.62290210  0.95607317  1
  S2-  S198  1  0.00987906  0.88051790  0.44882557  1
  S2-  S199  1  0.00118050  0.86857038  0.95189220  1
  S2-  S200  1  0.26349577  0.13149274  0.44078905  1
  S2-  S201  1  0.25262016  0.12066060  0.94699031  1
  S2-  S202  1  0.25742425  0.38428304  0.45886601  1
  S2-  S203  1  0.25007189  0.37846446  0.95747003  1
  S2-  S204  1  0.26010579  0.63407698  0.46370706  1
  S2-  S205  1  0.24838856  0.61817667  0.96248400  1
  S2-  S206  1  0.26002441  0.88281286  0.45084918  1
  S2-  S207  1  0.25178716  0.87693265  0.95025430  1
  S2-  S208  1  0.51046182  0.13321031  0.44899826  1
  S2-  S209  1  0.49410590  0.12847992  0.95882409  1
  S2-  S210  1  0.51533571  0.38339274  0.46225094  1
  S2-  S211  1  0.50191131  0.37341885  0.95583250  1
  S2-  S212  1  0.51139849  0.63139466  0.44833163  1
  S2-  S213  1  0.50134263  0.62090591  0.95730285  1
  S2-  S214  1  0.51764163  0.88415410  0.46193045  1
  S2-  S215  1  0.49812334  0.87024696  0.95248119  1
  S2-  S216  1  0.76174243  0.13374382  0.44818975  1
  S2-  S217  1  0.75491432  0.12279801  0.95968518  1
  S2-  S218  1  0.76420746  0.38262627  0.46009043  1
  S2-  S219  1  0.75124337  0.37797594  0.95786889  1
  S2-  S220  1  0.76481592  0.63452745  0.45408810  1
  S2-  S221  1  0.75342744  0.62399378  0.96270368  1
  S2-  S222  1  0.76769921  0.87736127  0.44514585  1
  S2-  S223  1  0.75357041  0.87230629  0.96083532  1
  S2-  S224  1  0.12847693  -0.00065470  0.04416836  1
  S2-  S225  1  0.13627135  0.00618110  0.53715408  1
  S2-  S226  1  0.12945567  0.24639947  0.03582868  1
  S2-  S227  1  0.13166231  0.24943075  0.54017683  1
  S2-  S228  1  0.12466913  0.49444488  0.05306027  1
  S2-  S229  1  0.13495097  0.51115078  0.55053356  1
  S2-  S230  1  0.12889936  0.74714650  0.04347487  1
  S2-  S231  1  0.13050696  0.75863471  0.54089851  1
  S2-  S232  1  0.37328173  -0.00064483  0.04697575  1
  S2-  S233  1  0.38114589  0.00649764  0.53820710  1
  S2-  S234  1  0.37172558  0.24924081  0.03668564  1
  S2-  S235  1  0.38237561  0.25178723  0.53818795  1
  S2-  S236  1  0.37860994  0.49493605  0.05341688  1
  S2-  S237  1  0.38434805  0.51000668  0.54795100  1
  S2-  S238  1  0.37551170  0.74614787  0.04173930  1
  S2-  S239  1  0.38961204  0.76153198  0.54508056  1
  S2-  S240  1  0.61714335  0.00053539  0.04506595  1
  S2-  S241  1  0.64247438  0.00957078  0.54231129  1
  S2-  S242  1  0.62979751  0.24502430  0.04332925  1
  S2-  S243  1  0.63669186  0.25133052  0.55004912  1
  S2-  S244  1  0.63129643  0.50072901  0.04344265  1
  S2-  S245  1  0.63625707  0.51023718  0.54908450  1
  S2-  S246  1  0.62361908  0.74759473  0.04135620  1
  S2-  S247  1  0.63736813  0.75810687  0.54615324  1
  S2-  S248  1  0.88229582  -0.00417170  0.04975927  1
  S2-  S249  1  0.88896631  0.01281378  0.54438412  1
  S2-  S250  1  0.87568421  0.25140259  0.03799661  1
  S2-  S251  1  0.89176956  0.24664297  0.55625979  1
  S2-  S252  1  0.88105135  0.49746306  0.05090893  1
  S2-  S253  1  0.88369698  0.50834550  0.54442592  1
  S2-  S254  1  0.87822339  0.74867928  0.04789583  1
  S2-  S255  1  0.88685231  0.75944546  0.55594747  1
