# generated using pymatgen
data_La9Ce10Pr6Nd4Sm3(BiS2)32
_symmetry_space_group_name_H-M   'P 1'
_cell_length_a   16.20988837
_cell_length_b   16.19594938
_cell_length_c   27.11869604
_cell_angle_alpha   90.06205060
_cell_angle_beta   89.94547848
_cell_angle_gamma   90.02794797
_symmetry_Int_Tables_number   1
_chemical_formula_structural   La9Ce10Pr6Nd4Sm3(BiS2)32
_chemical_formula_sum   'La18 Ce20 Pr12 Nd8 Sm6 Bi64 S128'
_cell_volume   7119.58592046
_cell_formula_units_Z   2
loop_
 _symmetry_equiv_pos_site_id
 _symmetry_equiv_pos_as_xyz
  1  'x, y, z'
loop_
 _atom_type_symbol
 _atom_type_oxidation_number
  La3+  3.0
  Ce3+  3.0
  Pr3+  3.0
  Nd3+  3.0
  Sm3+  3.0
  Bi2+  2.0
  S2-  -2.0
loop_
 _atom_site_type_symbol
 _atom_site_label
 _atom_site_symmetry_multiplicity
 _atom_site_fract_x
 _atom_site_fract_y
 _atom_site_fract_z
 _atom_site_occupancy
  La3+  La0  1  0.64054315  0.24772375  0.91754083  1
  La3+  La1  1  0.37744420  0.74214666  0.94424461  1
  La3+  La2  1  -0.00941245  0.64331601  0.58426879  1
  La3+  La3  1  0.74272042  0.64447449  0.56720053  1
  La3+  La4  1  0.24146072  0.13414705  0.56726747  1
  La3+  La5  1  0.11837102  0.00408941  0.42646181  1
  La3+  La6  1  0.36508063  0.50951626  0.44193456  1
  La3+  La7  1  0.86618789  0.76496356  0.42891333  1
  La3+  La8  1  0.25131005  0.88473829  0.57023817  1
  La3+  La9  1  0.12973356  0.74884690  0.90779482  1
  La3+  La10  1  0.36681786  0.01239787  0.43109215  1
  La3+  La11  1  0.87496684  0.26250507  0.44062463  1
  La3+  La12  1  0.61492712  0.02373754  0.42817210  1
  La3+  La13  1  0.61873689  0.75539380  0.42335156  1
  La3+  La14  1  0.11882212  0.49456900  0.39027645  1
  La3+  La15  1  0.39085194  0.23626545  0.91156235  1
  La3+  La16  1  0.75894084  0.60797845  0.07465637  1
  La3+  La17  1  0.13398728  0.48654648  0.91989040  1
  Ce3+  Ce18  1  0.50677333  0.61120463  0.06188914  1
  Ce3+  Ce19  1  -0.00508776  0.88345169  0.56169264  1
  Ce3+  Ce20  1  0.75617754  0.12222463  0.06242250  1
  Ce3+  Ce21  1  0.63368231  0.50166681  0.92992895  1
  Ce3+  Ce22  1  0.49521087  0.88582213  0.55238094  1
  Ce3+  Ce23  1  0.50476398  0.86714760  0.06368717  1
  Ce3+  Ce24  1  0.49718623  0.63742930  0.55905467  1
  Ce3+  Ce25  1  0.63410987  -0.01059694  0.94659556  1
  Ce3+  Ce26  1  0.25941327  0.11757274  0.04935016  1
  Ce3+  Ce27  1  0.88299133  0.73568139  0.93645610  1
  Ce3+  Ce28  1  0.63311561  0.73653922  0.94659796  1
  Ce3+  Ce29  1  0.75685079  0.86357707  0.06195968  1
  Ce3+  Ce30  1  0.87657356  0.51563497  0.44452414  1
  Ce3+  Ce31  1  0.00940910  0.11727999  0.05666181  1
  Ce3+  Ce32  1  0.62027957  0.51202363  0.43791713  1
  Ce3+  Ce33  1  0.87100237  0.01196231  0.44864200  1
  Ce3+  Ce34  1  0.25881895  0.36346509  0.04941651  1
  Ce3+  Ce35  1  0.11589944  0.75396805  0.43689455  1
  Ce3+  Ce36  1  0.88597589  0.50030847  0.93050732  1
  Ce3+  Ce37  1  0.75306377  0.36150846  0.05865153  1
  Pr3+  Pr38  1  0.88300614  -0.01217999  0.94789087  1
  Pr3+  Pr39  1  0.11684448  0.25954322  0.44652811  1
  Pr3+  Pr40  1  0.48732278  0.13316898  0.57690589  1
  Pr3+  Pr41  1  0.88067949  0.24119496  0.93129779  1
  Pr3+  Pr42  1  0.26176584  0.86927810  0.07826824  1
  Pr3+  Pr43  1  0.01076304  0.61589578  0.05978801  1
  Pr3+  Pr44  1  0.49641746  0.38740387  0.56402910  1
  Pr3+  Pr45  1  0.37966700  0.49509912  0.92903657  1
  Pr3+  Pr46  1  0.25601610  0.61167865  0.06171537  1
  Pr3+  Pr47  1  0.00636657  0.36559252  0.05558434  1
  Pr3+  Pr48  1  -0.00919507  0.38801342  0.56809733  1
  Pr3+  Pr49  1  0.00817886  0.86546627  0.06615720  1
  Nd3+  Nd50  1  0.36652107  0.26164848  0.44844244  1
  Nd3+  Nd51  1  0.24261406  0.63533332  0.56439633  1
  Nd3+  Nd52  1  0.36443050  0.75877037  0.43890359  1
  Nd3+  Nd53  1  0.38200527  -0.01496583  0.93597508  1
  Nd3+  Nd54  1  0.13317761  -0.00973496  0.93963524  1
  Nd3+  Nd55  1  -0.00379227  0.13283731  0.57137815  1
  Nd3+  Nd56  1  0.13208706  0.23906422  0.92951793  1
  Nd3+  Nd57  1  0.24062521  0.38942517  0.56830387  1
  Sm3+  Sm58  1  0.74410372  0.38555526  0.55275048  1
  Sm3+  Sm59  1  0.50638744  0.11938669  0.05151950  1
  Sm3+  Sm60  1  0.74019992  0.89032482  0.55429580  1
  Sm3+  Sm61  1  0.61745174  0.26291679  0.44490367  1
  Sm3+  Sm62  1  0.74229384  0.13607839  0.56284392  1
  Sm3+  Sm63  1  0.50580905  0.36450134  0.04384577  1
  Bi2+  Bi64  1  0.05405713  0.12954158  0.30598245  1
  Bi2+  Bi65  1  -0.03772938  0.18188970  0.81019595  1
  Bi2+  Bi66  1  0.00220924  0.34835507  0.29488334  1
  Bi2+  Bi67  1  -0.00543507  0.37206105  0.78538349  1
  Bi2+  Bi68  1  -0.00566269  0.61707967  0.28604400  1
  Bi2+  Bi69  1  -0.03339033  0.63267339  0.79101459  1
  Bi2+  Bi70  1  -0.02419219  0.89205808  0.28950428  1
  Bi2+  Bi71  1  -0.00149366  0.90025809  0.78815191  1
  Bi2+  Bi72  1  0.27548585  0.13858820  0.28357651  1
  Bi2+  Bi73  1  0.13541781  0.10315120  0.82072582  1
  Bi2+  Bi74  1  0.31488331  0.33252293  0.26589341  1
  Bi2+  Bi75  1  0.24990279  0.38206582  0.77765840  1
  Bi2+  Bi76  1  0.25790409  0.64907389  0.28942466  1
  Bi2+  Bi77  1  0.31157932  0.62766337  0.78320539  1
  Bi2+  Bi78  1  0.21835116  0.89221595  0.28344215  1
  Bi2+  Bi79  1  0.29408814  0.87340315  0.79693768  1
  Bi2+  Bi80  1  0.50801474  0.15270905  0.29542363  1
  Bi2+  Bi81  1  0.54499324  0.08248259  0.76494599  1
  Bi2+  Bi82  1  0.56919364  0.40073429  0.32430723  1
  Bi2+  Bi83  1  0.50018480  0.35302957  0.79532889  1
  Bi2+  Bi84  1  0.50279604  0.71854348  0.30761331  1
  Bi2+  Bi85  1  0.49186344  0.54411349  0.81228412  1
  Bi2+  Bi86  1  0.46510384  0.90860516  0.27782464  1
  Bi2+  Bi87  1  0.57112826  0.87317436  0.80043104  1
  Bi2+  Bi88  1  0.73693337  0.09631729  0.28470791  1
  Bi2+  Bi89  1  0.77952876  0.07198332  0.78706632  1
  Bi2+  Bi90  1  0.75595080  0.37423258  0.28590665  1
  Bi2+  Bi91  1  0.79473104  0.37386645  0.79564802  1
  Bi2+  Bi92  1  0.72879643  0.56645844  0.27620097  1
  Bi2+  Bi93  1  0.72330941  0.64918826  0.77881834  1
  Bi2+  Bi94  1  0.70941036  0.90010710  0.29168572  1
  Bi2+  Bi95  1  0.76198737  0.84567372  0.78908254  1
  Bi2+  Bi96  1  0.09020616  0.05957706  0.20111107  1
  Bi2+  Bi97  1  0.12277112  0.00184237  0.71998036  1
  Bi2+  Bi98  1  0.14135184  0.24560884  0.22635073  1
  Bi2+  Bi99  1  0.12459460  0.21820932  0.72902778  1
  Bi2+  Bi100  1  0.12614784  0.48723100  0.17791594  1
  Bi2+  Bi101  1  0.14857597  0.49015331  0.69410089  1
  Bi2+  Bi102  1  0.10437567  0.73778864  0.19012494  1
  Bi2+  Bi103  1  0.13134239  0.74731784  0.71000894  1
  Bi2+  Bi104  1  0.36207428  0.02674910  0.20017921  1
  Bi2+  Bi105  1  0.38816418  -0.01177970  0.72677062  1
  Bi2+  Bi106  1  0.41226229  0.27142053  0.17900543  1
  Bi2+  Bi107  1  0.38890534  0.23712587  0.70152204  1
  Bi2+  Bi108  1  0.41949947  0.50278215  0.28266691  1
  Bi2+  Bi109  1  0.41633923  0.49147863  0.71215691  1
  Bi2+  Bi110  1  0.39934938  0.74304763  0.21191254  1
  Bi2+  Bi111  1  0.47453356  0.78231439  0.71731660  1
  Bi2+  Bi112  1  0.60918690  0.00769533  0.21466128  1
  Bi2+  Bi113  1  0.65938197  -0.05256981  0.70453769  1
  Bi2+  Bi114  1  0.59158437  0.29521493  0.22845090  1
  Bi2+  Bi115  1  0.74442949  0.23605413  0.71407017  1
  Bi2+  Bi116  1  0.57577027  0.51393923  0.21274783  1
  Bi2+  Bi117  1  0.64452910  0.49095907  0.72352419  1
  Bi2+  Bi118  1  0.59570005  0.79705141  0.21467616  1
  Bi2+  Bi119  1  0.61585911  0.66737622  0.68000524  1
  Bi2+  Bi120  1  0.89453920  0.04940016  0.22178176  1
  Bi2+  Bi121  1  0.92850611  0.01822194  0.70588941  1
  Bi2+  Bi122  1  0.83665109  0.23310136  0.21279823  1
  Bi2+  Bi123  1  0.93283195  0.21281167  0.69129257  1
  Bi2+  Bi124  1  0.86845675  0.49076108  0.20655093  1
  Bi2+  Bi125  1  0.84948808  0.47519456  0.70498501  1
  Bi2+  Bi126  1  0.85265017  0.76096126  0.19817090  1
  Bi2+  Bi127  1  0.86082146  0.76247587  0.70556013  1
  S2-  S128  1  -0.03324244  0.15835607  0.14894958  1
  S2-  S129  1  0.12191661  0.12599651  0.64331408  1
  S2-  S130  1  -0.01000749  0.39424210  0.15602394  1
  S2-  S131  1  0.00143997  0.39777377  0.66975533  1
  S2-  S132  1  -0.03148716  0.63144760  0.16033205  1
  S2-  S133  1  0.03645287  0.60343554  0.69096363  1
  S2-  S134  1  -0.00850179  0.85877943  0.16773956  1
  S2-  S135  1  -0.00251464  0.79448675  0.64683067  1
  S2-  S136  1  0.24042697  0.10317542  0.14675750  1
  S2-  S137  1  0.34685378  0.11021612  0.64827290  1
  S2-  S138  1  0.25859983  0.40145624  0.14494990  1
  S2-  S139  1  0.25031432  0.34777700  0.66661898  1
  S2-  S140  1  0.22819052  0.62782381  0.16248881  1
  S2-  S141  1  0.23304905  0.63101379  0.66613661  1
  S2-  S142  1  0.20280272  0.86173174  0.17880386  1
  S2-  S143  1  0.20751281  0.87196249  0.66898240  1
  S2-  S144  1  0.48662375  0.11794752  0.15064221  1
  S2-  S145  1  0.53300783  0.16339062  0.67650438  1
  S2-  S146  1  0.52215373  0.38408876  0.14236785  1
  S2-  S147  1  0.48991945  0.36510614  0.66402727  1
  S2-  S148  1  0.46973055  0.61367948  0.15800062  1
  S2-  S149  1  0.44569239  0.64053184  0.65294795  1
  S2-  S150  1  0.40401625  0.88023231  0.14337001  1
  S2-  S151  1  0.42140855  0.89184309  0.64182364  1
  S2-  S152  1  0.73346653  0.23751441  0.13415283  1
  S2-  S153  1  0.73693410  0.09192488  0.65795486  1
  S2-  S154  1  0.75832715  0.46484934  0.13779333  1
  S2-  S155  1  0.73011271  0.38370257  0.65072668  1
  S2-  S156  1  0.72774786  0.67891117  0.16853583  1
  S2-  S157  1  0.84650230  0.62179521  0.64762908  1
  S2-  S158  1  0.77591459  0.88855753  0.15839188  1
  S2-  S159  1  0.72929989  0.82271303  0.64465448  1
  S2-  S160  1  0.10673204  -0.12824502  0.35466471  1
  S2-  S161  1  0.15460989  -0.10064762  0.85457944  1
  S2-  S162  1  0.13001076  0.32801027  0.35437673  1
  S2-  S163  1  0.13162072  0.34323030  0.84816371  1
  S2-  S164  1  0.11490992  0.48948888  0.27387325  1
  S2-  S165  1  0.00683094  0.50954972  0.84926848  1
  S2-  S166  1  0.12093003  0.65672671  0.35121536  1
  S2-  S167  1  0.16852692  0.68821013  0.80959912  1
  S2-  S168  1  0.25141399  0.01211376  0.35282325  1
  S2-  S169  1  0.37735414  0.00424103  0.83587810  1
  S2-  S170  1  0.38081275  0.24119822  0.34922344  1
  S2-  S171  1  0.33870176  0.25972927  0.81169825  1
  S2-  S172  1  0.28593279  0.51061078  0.35228648  1
  S2-  S173  1  0.26828227  0.50691120  0.84974734  1
  S2-  S174  1  0.30483523  0.77509049  0.34341472  1
  S2-  S175  1  0.38588766  0.75398578  0.84322908  1
  S2-  S176  1  0.48634460  0.02177898  0.35513893  1
  S2-  S177  1  0.64004487  0.01673033  0.85003035  1
  S2-  S178  1  0.63487093  0.16875952  0.36259317  1
  S2-  S179  1  0.52814549  0.20990229  0.84151084  1
  S2-  S180  1  0.62121733  0.60753531  0.35483407  1
  S2-  S181  1  0.64546612  0.39684230  0.85004547  1
  S2-  S182  1  0.73992067  0.78187809  0.35282274  1
  S2-  S183  1  0.61907112  0.64096621  0.86380016  1
  S2-  S184  1  0.90241446  -0.01710018  0.35412203  1
  S2-  S185  1  0.88390113  -0.02165860  0.84692584  1
  S2-  S186  1  0.92251499  0.22623050  0.34522659  1
  S2-  S187  1  0.77435777  0.21624441  0.85069515  1
  S2-  S188  1  0.94632561  0.49487513  0.35463573  1
  S2-  S189  1  0.84008147  0.61862476  0.86013158  1
  S2-  S190  1  0.93238498  0.74125271  0.33220554  1
  S2-  S191  1  0.97900374  0.76291959  0.85271328  1
  S2-  S192  1  -0.00336105  0.13241414  0.46318751  1
  S2-  S193  1  0.00751391  0.11516152  0.95053458  1
  S2-  S194  1  -0.00263679  0.38859835  0.46057728  1
  S2-  S195  1  0.00548708  0.36263684  0.94853737  1
  S2-  S196  1  -0.01011446  0.63969103  0.46261740  1
  S2-  S197  1  0.01617723  0.62362736  0.95377270  1
  S2-  S198  1  -0.00826112  0.88494053  0.45812722  1
  S2-  S199  1  0.01057369  0.86632835  0.95910526  1
  S2-  S200  1  0.24169492  0.13808949  0.45716756  1
  S2-  S201  1  0.26134373  0.11552843  0.94245947  1
  S2-  S202  1  0.24068420  0.38606436  0.46095550  1
  S2-  S203  1  0.26459619  0.35806636  0.94447808  1
  S2-  S204  1  0.24290381  0.63435947  0.45849731  1
  S2-  S205  1  0.24946913  0.62243595  0.95257682  1
  S2-  S206  1  0.24415627  0.88204760  0.45971137  1
  S2-  S207  1  0.25592164  0.86668106  0.96241120  1
  S2-  S208  1  0.49282285  0.14391730  0.46476684  1
  S2-  S209  1  0.50627084  0.10882892  0.94785753  1
  S2-  S210  1  0.49385948  0.38463067  0.45626694  1
  S2-  S211  1  0.50334112  0.37049600  0.94083824  1
  S2-  S212  1  0.48998339  0.63394262  0.45306579  1
  S2-  S213  1  0.50070615  0.61672685  0.95799446  1
  S2-  S214  1  0.49370876  0.88147920  0.44665082  1
  S2-  S215  1  0.50868899  0.86470527  0.95505074  1
  S2-  S216  1  0.74873856  0.13929508  0.45873025  1
  S2-  S217  1  0.75821296  0.11229043  0.95714154  1
  S2-  S218  1  0.74525280  0.38543901  0.44712579  1
  S2-  S219  1  0.76433505  0.37413416  0.95137153  1
  S2-  S220  1  0.74666372  0.63254722  0.45693880  1
  S2-  S221  1  0.75571973  0.61786255  0.96660511  1
  S2-  S222  1  0.73800426  0.89769910  0.45178978  1
  S2-  S223  1  0.75759940  0.86197748  0.95360527  1
  S2-  S224  1  0.13392902  -0.00881987  0.04788633  1
  S2-  S225  1  0.11863632  0.00444601  0.54401028  1
  S2-  S226  1  0.13288488  0.24062826  0.03909774  1
  S2-  S227  1  0.11564137  0.26524094  0.55323807  1
  S2-  S228  1  0.13266549  0.48804908  0.03702522  1
  S2-  S229  1  0.11600956  0.51332390  0.56378612  1
  S2-  S230  1  0.13587970  0.74376715  0.05691736  1
  S2-  S231  1  0.12217997  0.75960981  0.54824209  1
  S2-  S232  1  0.38370588  -0.00523889  0.04207027  1
  S2-  S233  1  0.37081873  0.01017604  0.53938616  1
  S2-  S234  1  0.38446286  0.23983883  0.03281709  1
  S2-  S235  1  0.36772858  0.26541037  0.55392633  1
  S2-  S236  1  0.38204988  0.48911815  0.03885270  1
  S2-  S237  1  0.36844451  0.50942930  0.55171035  1
  S2-  S238  1  0.38076496  0.73803258  0.05132522  1
  S2-  S239  1  0.37068398  0.75671450  0.54563744  1
  S2-  S240  1  0.63020182  -0.00596510  0.05430941  1
  S2-  S241  1  0.61700838  0.01484977  0.54568802  1
  S2-  S242  1  0.62527398  0.24114772  0.02977490  1
  S2-  S243  1  0.62094656  0.25962901  0.55057415  1
  S2-  S244  1  0.62665268  0.48904647  0.03868601  1
  S2-  S245  1  0.62183558  0.51019673  0.54734760  1
  S2-  S246  1  0.62855277  0.74109293  0.05330028  1
  S2-  S247  1  0.61777160  0.76473023  0.53676384  1
  S2-  S248  1  0.88160850  -0.00666799  0.05451877  1
  S2-  S249  1  0.86728450  0.01165363  0.55528233  1
  S2-  S250  1  0.88301090  0.24056452  0.03863675  1
  S2-  S251  1  0.86699568  0.25921560  0.55072491  1
  S2-  S252  1  0.88792428  0.49177951  0.03920955  1
  S2-  S253  1  0.86586866  0.50832461  0.54884182  1
  S2-  S254  1  0.88233814  0.74108027  0.04851339  1
  S2-  S255  1  0.86383566  0.76864652  0.54158311  1
