# generated using pymatgen
data_La9Ce10Pr6Nd4Sm3(BiS2)32
_symmetry_space_group_name_H-M   'P 1'
_cell_length_a   16.20152155
_cell_length_b   16.18342886
_cell_length_c   27.15262320
_cell_angle_alpha   89.97076283
_cell_angle_beta   89.87467683
_cell_angle_gamma   90.02802054
_symmetry_Int_Tables_number   1
_chemical_formula_structural   La9Ce10Pr6Nd4Sm3(BiS2)32
_chemical_formula_sum   'La18 Ce20 Pr12 Nd8 Sm6 Bi64 S128'
_cell_volume   7119.29503589
_cell_formula_units_Z   2
loop_
 _symmetry_equiv_pos_site_id
 _symmetry_equiv_pos_as_xyz
  1  'x, y, z'
loop_
 _atom_type_symbol
 _atom_type_oxidation_number
  La3+  3.0
  Ce3+  3.0
  Pr3+  3.0
  Nd3+  3.0
  Sm3+  3.0
  Bi2+  2.0
  S2-  -2.0
loop_
 _atom_site_type_symbol
 _atom_site_label
 _atom_site_symmetry_multiplicity
 _atom_site_fract_x
 _atom_site_fract_y
 _atom_site_fract_z
 _atom_site_occupancy
  La3+  La0  1  0.11793464  0.25683377  0.40585277  1
  La3+  La1  1  0.85437510  0.50345218  0.91750016  1
  La3+  La2  1  0.50183858  0.40345083  0.09055104  1
  La3+  La3  1  0.62399949  0.74921556  0.44440870  1
  La3+  La4  1  0.23214058  0.39460540  0.08522137  1
  La3+  La5  1  0.48595842  0.89488926  0.06373130  1
  La3+  La6  1  0.35821275  0.02465767  0.93143374  1
  La3+  La7  1  -0.01665436  0.88086593  0.06557733  1
  La3+  La8  1  -0.00764094  0.61398324  0.58920173  1
  La3+  La9  1  0.23622226  0.64251862  0.06739042  1
  La3+  La10  1  0.38604592  0.24232919  0.40329239  1
  La3+  La11  1  -0.00128568  0.12195765  0.55733223  1
  La3+  La12  1  0.23070335  0.13375959  0.08409553  1
  La3+  La13  1  0.60461271  0.76798474  0.91669541  1
  La3+  La14  1  0.75051358  0.87695433  0.58117674  1
  La3+  La15  1  0.74902284  0.12636128  0.56866232  1
  La3+  La16  1  0.85528856  0.76894140  0.90708098  1
  La3+  La17  1  0.86691943  -0.01038036  0.41879311  1
  Ce3+  Ce18  1  0.87221923  0.50096843  0.44173961  1
  Ce3+  Ce19  1  0.86364374  0.26415002  0.94985943  1
  Ce3+  Ce20  1  0.74777053  0.62126956  0.56912675  1
  Ce3+  Ce21  1  0.61221915  0.01410602  0.93958126  1
  Ce3+  Ce22  1  0.24829436  0.37184731  0.54763506  1
  Ce3+  Ce23  1  0.62332570  0.49428158  0.44743281  1
  Ce3+  Ce24  1  0.74733147  0.36842872  0.56685212  1
  Ce3+  Ce25  1  -0.01471210  0.12974323  0.07077469  1
  Ce3+  Ce26  1  -0.00372236  0.86833104  0.55798998  1
  Ce3+  Ce27  1  0.48660297  0.14280745  0.06628875  1
  Ce3+  Ce28  1  0.87239722  0.24764820  0.43496645  1
  Ce3+  Ce29  1  0.36055371  0.26478587  0.95767237  1
  Ce3+  Ce30  1  0.60982855  0.26372215  0.95163753  1
  Ce3+  Ce31  1  0.62700076  0.24611508  0.44082974  1
  Ce3+  Ce32  1  0.36526663  0.76442352  0.93650343  1
  Ce3+  Ce33  1  0.73882675  0.13887093  0.05903009  1
  Ce3+  Ce34  1  0.12206516  0.49770084  0.43698568  1
  Ce3+  Ce35  1  0.50044040  0.62233298  0.55941434  1
  Ce3+  Ce36  1  0.49324436  0.87208867  0.55839236  1
  Ce3+  Ce37  1  0.74309425  0.39422551  0.06211425  1
  Pr3+  Pr38  1  0.23438762  0.88820376  0.05859151  1
  Pr3+  Pr39  1  0.59827922  0.50106974  0.93030370  1
  Pr3+  Pr40  1  0.11115007  0.76847573  0.92500782  1
  Pr3+  Pr41  1  0.36265362  -0.00438243  0.42673591  1
  Pr3+  Pr42  1  0.24621293  0.86036792  0.57113409  1
  Pr3+  Pr43  1  0.11686556  0.51953866  0.93591521  1
  Pr3+  Pr44  1  0.11042187  0.01500126  0.93734944  1
  Pr3+  Pr45  1  0.24680906  0.12130748  0.55033826  1
  Pr3+  Pr46  1  0.37272795  0.74945941  0.43804695  1
  Pr3+  Pr47  1  0.12199402  0.74499757  0.44762294  1
  Pr3+  Pr48  1  0.37722350  0.49789775  0.42856770  1
  Pr3+  Pr49  1  0.11384510  0.26357873  0.93908452  1
  Nd3+  Nd50  1  0.49183658  0.12070081  0.55561542  1
  Nd3+  Nd51  1  0.87252985  0.74043891  0.43754302  1
  Nd3+  Nd52  1  0.25498272  0.60823548  0.57380129  1
  Nd3+  Nd53  1  0.11710114  -0.00250568  0.43283481  1
  Nd3+  Nd54  1  -0.01851997  0.64175257  0.04649110  1
  Nd3+  Nd55  1  0.73635173  0.64187802  0.04279089  1
  Nd3+  Nd56  1  0.49463954  0.37179603  0.55837459  1
  Nd3+  Nd57  1  0.49344561  0.65017542  0.06457935  1
  Sm3+  Sm58  1  -0.01015097  0.39072106  0.06111255  1
  Sm3+  Sm59  1  0.86338312  0.01400559  0.93724916  1
  Sm3+  Sm60  1  0.36538241  0.50983998  0.95484355  1
  Sm3+  Sm61  1  0.73676567  0.88620430  0.05332481  1
  Sm3+  Sm62  1  -0.00196389  0.37513817  0.55809759  1
  Sm3+  Sm63  1  0.62606553  -0.00187890  0.44530168  1
  Bi2+  Bi64  1  0.00929100  0.12334387  0.28212729  1
  Bi2+  Bi65  1  -0.03167529  0.12737874  0.82183329  1
  Bi2+  Bi66  1  -0.02228503  0.39605095  0.28449106  1
  Bi2+  Bi67  1  0.00117777  0.31960003  0.79704911  1
  Bi2+  Bi68  1  0.01640579  0.65132180  0.28731675  1
  Bi2+  Bi69  1  0.02952272  0.61152793  0.79188773  1
  Bi2+  Bi70  1  -0.01171435  0.86786900  0.28453849  1
  Bi2+  Bi71  1  -0.01241212  0.93526047  0.78757249  1
  Bi2+  Bi72  1  0.27317738  0.06578249  0.28271142  1
  Bi2+  Bi73  1  0.25848158  0.09234867  0.79931793  1
  Bi2+  Bi74  1  0.24992122  0.41617350  0.27762166  1
  Bi2+  Bi75  1  0.20840857  0.33604114  0.80644534  1
  Bi2+  Bi76  1  0.20545286  0.62085783  0.24972480  1
  Bi2+  Bi77  1  0.27054609  0.61864023  0.74781106  1
  Bi2+  Bi78  1  0.23442752  0.82679784  0.28989548  1
  Bi2+  Bi79  1  0.23096542  0.81345874  0.80002622  1
  Bi2+  Bi80  1  0.60021134  0.14638246  0.27838659  1
  Bi2+  Bi81  1  0.58256524  0.15930616  0.80339952  1
  Bi2+  Bi82  1  0.50089514  0.39929130  0.29648877  1
  Bi2+  Bi83  1  0.43207525  0.31874636  0.81907485  1
  Bi2+  Bi84  1  0.56606421  0.65436564  0.29171158  1
  Bi2+  Bi85  1  0.52151721  0.54711266  0.79080572  1
  Bi2+  Bi86  1  0.42631998  0.87321058  0.31291229  1
  Bi2+  Bi87  1  0.47711698  0.86693298  0.78944656  1
  Bi2+  Bi88  1  0.78265699  0.13648581  0.31929096  1
  Bi2+  Bi89  1  0.77611340  0.12092342  0.79013060  1
  Bi2+  Bi90  1  0.79695935  0.33488015  0.31508212  1
  Bi2+  Bi91  1  0.75387093  0.31916619  0.78368829  1
  Bi2+  Bi92  1  0.82524948  0.61422865  0.26701658  1
  Bi2+  Bi93  1  0.75097120  0.60599378  0.77441546  1
  Bi2+  Bi94  1  0.74131490  0.86289852  0.28685845  1
  Bi2+  Bi95  1  0.72447223  0.88211823  0.78177849  1
  Bi2+  Bi96  1  0.09650265  -0.06274689  0.20201176  1
  Bi2+  Bi97  1  0.09699257  0.07343532  0.73404421  1
  Bi2+  Bi98  1  0.14486597  0.25660743  0.21134575  1
  Bi2+  Bi99  1  0.12095856  0.26538813  0.70766939  1
  Bi2+  Bi100  1  0.04504524  0.52427255  0.20120029  1
  Bi2+  Bi101  1  0.16175381  0.46218356  0.71490760  1
  Bi2+  Bi102  1  0.19571698  0.77421290  0.17518781  1
  Bi2+  Bi103  1  0.12567966  0.79915794  0.70679384  1
  Bi2+  Bi104  1  0.40659806  -0.04566606  0.20192071  1
  Bi2+  Bi105  1  0.36839518  0.00647532  0.68467347  1
  Bi2+  Bi106  1  0.40833280  0.23284252  0.20946189  1
  Bi2+  Bi107  1  0.32417776  0.23831747  0.73117229  1
  Bi2+  Bi108  1  0.39807015  0.55203501  0.20588297  1
  Bi2+  Bi109  1  0.39059617  0.46882524  0.71776046  1
  Bi2+  Bi110  1  0.38429151  0.75534059  0.21365134  1
  Bi2+  Bi111  1  0.40049941  0.74797072  0.71027860  1
  Bi2+  Bi112  1  0.57914260  -0.04647026  0.25905154  1
  Bi2+  Bi113  1  0.59267453  0.03330046  0.71942067  1
  Bi2+  Bi114  1  0.69057593  0.25166897  0.20058836  1
  Bi2+  Bi115  1  0.60651203  0.28715112  0.71119881  1
  Bi2+  Bi116  1  0.71346433  0.46265938  0.24222609  1
  Bi2+  Bi117  1  0.68250109  0.47059298  0.69398473  1
  Bi2+  Bi118  1  0.64536963  0.70943809  0.18499939  1
  Bi2+  Bi119  1  0.58096627  0.64312399  0.69868003  1
  Bi2+  Bi120  1  0.85658197  0.05523639  0.22198909  1
  Bi2+  Bi121  1  0.85519792  -0.00633715  0.70842581  1
  Bi2+  Bi122  1  0.88928704  0.26176070  0.21116720  1
  Bi2+  Bi123  1  0.89372687  0.24099191  0.69753822  1
  Bi2+  Bi124  1  0.87326741  0.45098412  0.17363744  1
  Bi2+  Bi125  1  0.87592069  0.42709843  0.70418903  1
  Bi2+  Bi126  1  0.86957728  0.76473679  0.19622078  1
  Bi2+  Bi127  1  0.88603591  0.74940462  0.71117977  1
  S2-  S128  1  0.08880488  0.15254973  0.14676663  1
  S2-  S129  1  -0.03165158  0.09938387  0.65674883  1
  S2-  S130  1  0.08248458  0.38245955  0.14583904  1
  S2-  S131  1  0.00896132  0.45799632  0.64533551  1
  S2-  S132  1  -0.01003839  0.73807510  0.13189440  1
  S2-  S133  1  0.04070300  0.65954188  0.68887476  1
  S2-  S134  1  -0.03940587  0.99194314  0.14444282  1
  S2-  S135  1  -0.01750480  0.86344078  0.65603501  1
  S2-  S136  1  0.27654851  0.15140356  0.18679074  1
  S2-  S137  1  0.27845078  0.13121450  0.65071623  1
  S2-  S138  1  0.27993176  0.34383962  0.18199948  1
  S2-  S139  1  0.25585409  0.45964541  0.63412142  1
  S2-  S140  1  0.24974324  0.54530027  0.15155341  1
  S2-  S141  1  0.24977419  0.71710043  0.65146350  1
  S2-  S142  1  0.24276294  0.96356509  0.15009537  1
  S2-  S143  1  0.23434867  0.92576536  0.66580206  1
  S2-  S144  1  0.48560642  0.08885526  0.15917320  1
  S2-  S145  1  0.50367254  0.11786523  0.65645977  1
  S2-  S146  1  0.46917290  0.39072556  0.19368781  1
  S2-  S147  1  0.48204759  0.36137068  0.65896915  1
  S2-  S148  1  0.53122722  0.57263367  0.15231332  1
  S2-  S149  1  0.43078499  0.59837274  0.64598268  1
  S2-  S150  1  0.50441820  0.78075226  0.13850918  1
  S2-  S151  1  0.48557046  0.87708157  0.65709994  1
  S2-  S152  1  0.73217993  0.10071767  0.15515721  1
  S2-  S153  1  0.72821777  0.01972562  0.64921909  1
  S2-  S154  1  0.66071818  0.40162423  0.14756113  1
  S2-  S155  1  0.74484762  0.25183673  0.64227341  1
  S2-  S156  1  0.76941991  0.63179759  0.14335684  1
  S2-  S157  1  0.84335813  0.62484546  0.65043658  1
  S2-  S158  1  0.73661560  0.84747656  0.15121279  1
  S2-  S159  1  0.74752900  0.81518783  0.67989729  1
  S2-  S160  1  0.22801673  -0.03247872  0.35589424  1
  S2-  S161  1  0.11411401  -0.09855245  0.85448371  1
  S2-  S162  1  0.16316638  0.19013275  0.31447404  1
  S2-  S163  1  0.13285780  0.13938138  0.86487821  1
  S2-  S164  1  0.12016201  0.41786917  0.34836983  1
  S2-  S165  1  0.09600293  0.45587099  0.84262474  1
  S2-  S166  1  0.09887639  0.76823571  0.34755168  1
  S2-  S167  1  0.16857780  0.67019535  0.84633658  1
  S2-  S168  1  0.39240939  0.09746672  0.34357425  1
  S2-  S169  1  0.35112538  -0.05342526  0.83669390  1
  S2-  S170  1  0.35693854  0.30106106  0.30655664  1
  S2-  S171  1  0.36047137  0.17744299  0.87004119  1
  S2-  S172  1  0.37041619  0.50061769  0.32646997  1
  S2-  S173  1  0.41590057  0.48191428  0.86081226  1
  S2-  S174  1  0.43357776  0.70752633  0.34615388  1
  S2-  S175  1  0.46366282  0.74365825  0.85381498  1
  S2-  S176  1  0.71374001  -0.01221083  0.36025562  1
  S2-  S177  1  0.60285337  -0.06873496  0.85229884  1
  S2-  S178  1  0.55253217  0.26126287  0.35148186  1
  S2-  S179  1  0.58151929  0.33083555  0.86384982  1
  S2-  S180  1  0.60066474  0.51066770  0.34980633  1
  S2-  S181  1  0.67800623  0.51493299  0.83967736  1
  S2-  S182  1  0.66633861  0.74257351  0.34565622  1
  S2-  S183  1  0.71929192  0.75010203  0.83744021  1
  S2-  S184  1  1.00627400  0.00271856  0.35137229  1
  S2-  S185  1  0.84712515  -0.07390434  0.85124739  1
  S2-  S186  1  0.96579481  0.25219027  0.35110953  1
  S2-  S187  1  0.86037489  0.34187149  0.86123545  1
  S2-  S188  1  0.87405162  0.60947756  0.36358834  1
  S2-  S189  1  0.88839317  0.54530530  0.81959690  1
  S2-  S190  1  0.86547374  0.84321671  0.35427311  1
  S2-  S191  1  0.95155126  0.74414170  0.81640963  1
  S2-  S192  1  -0.00199886  0.12608442  0.45091994  1
  S2-  S193  1  -0.01710116  0.13844799  0.96167000  1
  S2-  S194  1  -0.00389293  0.37641071  0.45371810  1
  S2-  S195  1  -0.00880702  0.39000631  0.95649410  1
  S2-  S196  1  0.00032292  0.61896181  0.46106989  1
  S2-  S197  1  -0.01539189  0.63842182  0.94054344  1
  S2-  S198  1  -0.00295582  0.86937886  0.45435111  1
  S2-  S199  1  -0.01824823  0.88998522  0.95273043  1
  S2-  S200  1  0.24285882  0.13099442  0.44423529  1
  S2-  S201  1  0.23599959  0.14151331  0.97150249  1
  S2-  S202  1  0.25461458  0.36801105  0.44200382  1
  S2-  S203  1  0.23835711  0.39111016  0.96032270  1
  S2-  S204  1  0.25010039  0.62077228  0.44695917  1
  S2-  S205  1  0.24686699  0.63596693  0.95786970  1
  S2-  S206  1  0.24560308  0.86808435  0.46123506  1
  S2-  S207  1  0.24190517  0.89032605  0.95243580  1
  S2-  S208  1  0.50131393  0.11904631  0.45025057  1
  S2-  S209  1  0.49133346  0.13893131  0.96090015  1
  S2-  S210  1  0.49676915  0.37083240  0.45169356  1
  S2-  S211  1  0.48433560  0.38395729  0.97472456  1
  S2-  S212  1  0.49994648  0.62145282  0.45478794  1
  S2-  S213  1  0.48692492  0.63430609  0.95797320  1
  S2-  S214  1  0.49861961  0.87764002  0.45027293  1
  S2-  S215  1  0.48185925  0.89610553  0.95554554  1
  S2-  S216  1  0.74913104  0.12266739  0.45960287  1
  S2-  S217  1  0.73876488  0.13903632  0.94971254  1
  S2-  S218  1  0.74837421  0.37281959  0.45682363  1
  S2-  S219  1  0.73345017  0.38593065  0.95767494  1
  S2-  S220  1  0.74375359  0.61996262  0.46213706  1
  S2-  S221  1  0.73521273  0.63454930  0.93977491  1
  S2-  S222  1  0.74682229  0.87146086  0.46580302  1
  S2-  S223  1  0.73479508  0.89229337  0.95063135  1
  S2-  S224  1  0.10830044  0.00873938  0.04410652  1
  S2-  S225  1  0.12333636  -0.00659503  0.54521193  1
  S2-  S226  1  0.10970948  0.26671096  0.04491444  1
  S2-  S227  1  0.12165140  0.25167835  0.54993080  1
  S2-  S228  1  0.10805087  0.51941939  0.04423525  1
  S2-  S229  1  0.12311886  0.49845407  0.54103498  1
  S2-  S230  1  0.11368904  0.76292716  0.03281214  1
  S2-  S231  1  0.11988341  0.73682802  0.55372693  1
  S2-  S232  1  0.36178426  0.01845675  0.04623101  1
  S2-  S233  1  0.36882832  -0.00613588  0.54030872  1
  S2-  S234  1  0.36292312  0.26803802  0.06450668  1
  S2-  S235  1  0.37214249  0.24798352  0.54603484  1
  S2-  S236  1  0.36959856  0.51585717  0.05662038  1
  S2-  S237  1  0.37675041  0.49702447  0.53578181  1
  S2-  S238  1  0.36114272  0.76612126  0.04477487  1
  S2-  S239  1  0.37251138  0.74224788  0.54512383  1
  S2-  S240  1  0.61517525  0.01374829  0.04778056  1
  S2-  S241  1  0.61759359  -0.00339773  0.54796255  1
  S2-  S242  1  0.61465510  0.26294989  0.05647741  1
  S2-  S243  1  0.61587966  0.24657788  0.54569264  1
  S2-  S244  1  0.61627267  0.51661543  0.03900838  1
  S2-  S245  1  0.62247103  0.49436694  0.55437815  1
  S2-  S246  1  0.61518673  0.76828529  0.03208729  1
  S2-  S247  1  0.62294276  0.75012002  0.55489016  1
  S2-  S248  1  0.85578950  0.01076426  0.04108933  1
  S2-  S249  1  0.87435665  -0.00427039  0.54606932  1
  S2-  S250  1  0.86592414  0.26455629  0.05650168  1
  S2-  S251  1  0.87768296  0.25232782  0.54293759  1
  S2-  S252  1  0.86431067  0.51410347  0.03418451  1
  S2-  S253  1  0.86855327  0.49362658  0.54701975  1
  S2-  S254  1  0.85689819  0.76536650  0.02995338  1
  S2-  S255  1  0.87217254  0.74484766  0.54762662  1
