# generated using pymatgen
data_La9Ce10Pr6Nd4Sm3(BiS2)32
_symmetry_space_group_name_H-M   'P 1'
_cell_length_a   16.11907895
_cell_length_b   16.18416665
_cell_length_c   27.31950600
_cell_angle_alpha   89.93244468
_cell_angle_beta   89.92880176
_cell_angle_gamma   90.12508376
_symmetry_Int_Tables_number   1
_chemical_formula_structural   La9Ce10Pr6Nd4Sm3(BiS2)32
_chemical_formula_sum   'La18 Ce20 Pr12 Nd8 Sm6 Bi64 S128'
_cell_volume   7126.91751907
_cell_formula_units_Z   2
loop_
 _symmetry_equiv_pos_site_id
 _symmetry_equiv_pos_as_xyz
  1  'x, y, z'
loop_
 _atom_type_symbol
 _atom_type_oxidation_number
  La3+  3.0
  Ce3+  3.0
  Pr3+  3.0
  Nd3+  3.0
  Sm3+  3.0
  Bi2+  2.0
  S2-  -2.0
loop_
 _atom_site_type_symbol
 _atom_site_label
 _atom_site_symmetry_multiplicity
 _atom_site_fract_x
 _atom_site_fract_y
 _atom_site_fract_z
 _atom_site_occupancy
  La3+  La0  1  0.11772556  -0.00105094  0.43729929  1
  La3+  La1  1  0.90982406  0.49699363  0.92130147  1
  La3+  La2  1  0.37144296  0.26831579  0.38413965  1
  La3+  La3  1  0.91193442  0.74477628  0.93157115  1
  La3+  La4  1  0.75491427  0.87951018  0.55695165  1
  La3+  La5  1  0.37478259  0.51166394  0.43416968  1
  La3+  La6  1  0.03020001  0.85753975  0.07289908  1
  La3+  La7  1  0.37585194  0.00464788  0.42985288  1
  La3+  La8  1  0.62847811  0.50599058  0.43980208  1
  La3+  La9  1  0.02810876  0.11503553  0.07046234  1
  La3+  La10  1  0.87087699  0.01290821  0.40594651  1
  La3+  La11  1  0.12492854  0.50560062  0.44285008  1
  La3+  La12  1  0.90958385  -0.00243087  0.90244074  1
  La3+  La13  1  0.74036137  0.13793564  0.59058973  1
  La3+  La14  1  0.25129826  0.62360760  0.58234426  1
  La3+  La15  1  0.87916656  0.74510690  0.39792458  1
  La3+  La16  1  0.24989360  0.12457970  0.56524368  1
  La3+  La17  1  0.12213580  0.24607174  0.43705222  1
  Ce3+  Ce18  1  0.65411440  0.74450902  0.95124176  1
  Ce3+  Ce19  1  0.52614686  0.36088002  0.06789916  1
  Ce3+  Ce20  1  0.63101097  0.75565670  0.43774894  1
  Ce3+  Ce21  1  0.15217577  0.24258003  0.94775617  1
  Ce3+  Ce22  1  0.40441953  0.24238908  0.94187607  1
  Ce3+  Ce23  1  0.39908733  -0.00868070  0.93664131  1
  Ce3+  Ce24  1  0.87195706  0.25086834  0.44097316  1
  Ce3+  Ce25  1  0.25301428  0.37653058  0.55523696  1
  Ce3+  Ce26  1  0.52264870  0.61718334  0.06263242  1
  Ce3+  Ce27  1  -0.00231558  0.37079402  0.56173961  1
  Ce3+  Ce28  1  0.27679128  0.86528104  0.06020936  1
  Ce3+  Ce29  1  0.65527990  0.24251605  0.94045569  1
  Ce3+  Ce30  1  0.15746164  0.74229193  0.93596696  1
  Ce3+  Ce31  1  0.74858081  0.37679152  0.56168406  1
  Ce3+  Ce32  1  0.50235642  0.12713083  0.55367543  1
  Ce3+  Ce33  1  0.03052934  0.37210712  0.06374348  1
  Ce3+  Ce34  1  0.65349694  0.49335090  0.94878029  1
  Ce3+  Ce35  1  0.37546937  0.74976331  0.44648079  1
  Ce3+  Ce36  1  0.78231033  0.61612952  0.06040409  1
  Ce3+  Ce37  1  0.50239333  0.88066524  0.55800247  1
  Pr3+  Pr38  1  0.49837274  0.37627341  0.55392612  1
  Pr3+  Pr39  1  0.65448714  -0.01006938  0.93849690  1
  Pr3+  Pr40  1  -0.00122885  0.62912612  0.57552631  1
  Pr3+  Pr41  1  0.52979475  0.11504970  0.06624482  1
  Pr3+  Pr42  1  0.52521064  0.86934483  0.06801324  1
  Pr3+  Pr43  1  0.50483014  0.63043492  0.57194339  1
  Pr3+  Pr44  1  -0.00243957  0.88678028  0.57189471  1
  Pr3+  Pr45  1  0.78121009  0.36898629  0.05891400  1
  Pr3+  Pr46  1  0.75319915  0.62941657  0.56802216  1
  Pr3+  Pr47  1  0.62590590  0.25248134  0.43156827  1
  Pr3+  Pr48  1  0.11591918  0.75439517  0.45278503  1
  Pr3+  Pr49  1  0.62713294  0.00355868  0.43495729  1
  Nd3+  Nd50  1  0.27769098  0.11576662  0.06176257  1
  Nd3+  Nd51  1  -0.00273216  0.13320112  0.57082953  1
  Nd3+  Nd52  1  0.90632434  0.24208002  0.94041454  1
  Nd3+  Nd53  1  0.77974379  0.11387572  0.05746549  1
  Nd3+  Nd54  1  0.03511003  0.60926829  0.06585810  1
  Nd3+  Nd55  1  0.87599387  0.50422550  0.44227919  1
  Nd3+  Nd56  1  0.28391460  0.61806747  0.06014343  1
  Nd3+  Nd57  1  0.28532340  0.37172702  0.06532348  1
  Sm3+  Sm58  1  0.78135295  0.86678654  0.06310093  1
  Sm3+  Sm59  1  0.40191200  0.74269625  0.93095388  1
  Sm3+  Sm60  1  0.40402232  0.49315499  0.93269724  1
  Sm3+  Sm61  1  0.15465631  -0.00690355  0.93590879  1
  Sm3+  Sm62  1  0.25110783  0.87778371  0.55493139  1
  Sm3+  Sm63  1  0.15951780  0.49223446  0.93705409  1
  Bi2+  Bi64  1  -0.00129165  0.11682467  0.28079357  1
  Bi2+  Bi65  1  0.03047378  0.11893501  0.78987561  1
  Bi2+  Bi66  1  -0.07234317  0.36946132  0.28224873  1
  Bi2+  Bi67  1  -0.08610044  0.35935950  0.81253360  1
  Bi2+  Bi68  1  0.00798822  0.62228664  0.29477540  1
  Bi2+  Bi69  1  0.00099568  0.62239192  0.77994522  1
  Bi2+  Bi70  1  0.03304995  0.87425295  0.28791661  1
  Bi2+  Bi71  1  0.04320496  0.81673048  0.76590247  1
  Bi2+  Bi72  1  0.22148083  0.14447703  0.28385107  1
  Bi2+  Bi73  1  0.27186449  0.12770835  0.79295158  1
  Bi2+  Bi74  1  0.23330495  0.40623982  0.29605404  1
  Bi2+  Bi75  1  0.29892102  0.36460553  0.78589354  1
  Bi2+  Bi76  1  0.27160225  0.64668776  0.27371706  1
  Bi2+  Bi77  1  0.18805958  0.58999457  0.80429148  1
  Bi2+  Bi78  1  0.28340024  0.85373703  0.27636910  1
  Bi2+  Bi79  1  0.23902048  0.86461265  0.80073298  1
  Bi2+  Bi80  1  0.49549050  0.02642507  0.31328716  1
  Bi2+  Bi81  1  0.46203138  0.14165701  0.76097418  1
  Bi2+  Bi82  1  0.62445189  0.42804675  0.26882487  1
  Bi2+  Bi83  1  0.51918649  0.41216100  0.79048397  1
  Bi2+  Bi84  1  0.46893289  0.65564500  0.28838117  1
  Bi2+  Bi85  1  0.46928309  0.59403156  0.81562184  1
  Bi2+  Bi86  1  0.45394500  0.84310764  0.33831333  1
  Bi2+  Bi87  1  0.44182185  0.87864139  0.80670499  1
  Bi2+  Bi88  1  0.72775621  0.17715409  0.31335515  1
  Bi2+  Bi89  1  0.76313857  0.12257488  0.78680341  1
  Bi2+  Bi90  1  0.76006005  0.36734061  0.34536427  1
  Bi2+  Bi91  1  0.71674169  0.36185211  0.79292230  1
  Bi2+  Bi92  1  0.68923415  0.61439604  0.28320906  1
  Bi2+  Bi93  1  0.74765103  0.62413206  0.79154652  1
  Bi2+  Bi94  1  0.63775543  0.88014731  0.29740828  1
  Bi2+  Bi95  1  0.74886205  0.87390827  0.79430579  1
  Bi2+  Bi96  1  0.19265859  -0.00841544  0.21114399  1
  Bi2+  Bi97  1  0.15966873  0.02555516  0.71544956  1
  Bi2+  Bi98  1  -0.00109774  0.26393084  0.18738231  1
  Bi2+  Bi99  1  0.10082493  0.32320290  0.77246968  1
  Bi2+  Bi100  1  0.09188705  0.43190919  0.21684842  1
  Bi2+  Bi101  1  0.08713586  0.47966140  0.70835720  1
  Bi2+  Bi102  1  0.14111988  0.72948758  0.20453293  1
  Bi2+  Bi103  1  0.19894791  0.74616966  0.70981108  1
  Bi2+  Bi104  1  0.39403263  -0.00119192  0.21130086  1
  Bi2+  Bi105  1  0.37719140  -0.02307427  0.70598540  1
  Bi2+  Bi106  1  0.35939465  0.25418280  0.18018124  1
  Bi2+  Bi107  1  0.34635091  0.27669026  0.68647547  1
  Bi2+  Bi108  1  0.31298016  0.51572123  0.19001789  1
  Bi2+  Bi109  1  0.37420116  0.49378797  0.71209245  1
  Bi2+  Bi110  1  0.38874663  0.81550583  0.17618170  1
  Bi2+  Bi111  1  0.38699076  0.72359810  0.73739364  1
  Bi2+  Bi112  1  0.61731582  0.04149380  0.22226873  1
  Bi2+  Bi113  1  0.56933567  -0.00530900  0.71634555  1
  Bi2+  Bi114  1  0.57429441  0.23343964  0.24879477  1
  Bi2+  Bi115  1  0.59168756  0.26248345  0.70840143  1
  Bi2+  Bi116  1  0.56757496  0.57324525  0.19655321  1
  Bi2+  Bi117  1  0.61577037  0.54199949  0.72230272  1
  Bi2+  Bi118  1  0.56754761  0.76967895  0.20671376  1
  Bi2+  Bi119  1  0.57506150  0.74449830  0.76444876  1
  Bi2+  Bi120  1  0.84923609  -0.00380883  0.20099464  1
  Bi2+  Bi121  1  0.88584945  -0.03456935  0.68777274  1
  Bi2+  Bi122  1  0.80842587  0.24454962  0.21332019  1
  Bi2+  Bi123  1  0.88504093  0.27737403  0.70426838  1
  Bi2+  Bi124  1  0.85047634  0.48453858  0.20286231  1
  Bi2+  Bi125  1  0.89081322  0.47625888  0.71917605  1
  Bi2+  Bi126  1  0.86482456  0.75570945  0.19509400  1
  Bi2+  Bi127  1  0.81819568  0.74157221  0.69534225  1
  S2-  S128  1  -0.00927252  0.09547679  0.17089246  1
  S2-  S129  1  0.03105979  0.02623203  0.64954503  1
  S2-  S130  1  -0.00823220  0.48249388  0.13588840  1
  S2-  S131  1  0.00711035  0.26560744  0.64156458  1
  S2-  S132  1  0.00252232  0.70851493  0.14616435  1
  S2-  S133  1  -0.13044840  0.60907022  0.64768714  1
  S2-  S134  1  -0.04528227  0.89215066  0.16826439  1
  S2-  S135  1  -0.02799039  0.81416544  0.66565827  1
  S2-  S136  1  0.23495327  0.13202853  0.15887332  1
  S2-  S137  1  0.23040833  0.16573121  0.66352800  1
  S2-  S138  1  0.20877648  0.36398642  0.15726015  1
  S2-  S139  1  0.25346022  0.42026908  0.65002353  1
  S2-  S140  1  0.18393559  0.60253716  0.14308487  1
  S2-  S141  1  0.12091894  0.62227563  0.65185978  1
  S2-  S142  1  0.17264786  0.86699909  0.13993155  1
  S2-  S143  1  0.24092871  0.90361302  0.65206948  1
  S2-  S144  1  0.52053771  0.22994770  0.14489366  1
  S2-  S145  1  0.58282644  0.12154701  0.64234643  1
  S2-  S146  1  0.41612071  0.40102310  0.14156402  1
  S2-  S147  1  0.49597193  0.37039888  0.65581714  1
  S2-  S148  1  0.40583004  0.62684157  0.13566002  1
  S2-  S149  1  0.38680714  0.62594452  0.64970924  1
  S2-  S150  1  0.52702567  0.99327805  0.14169432  1
  S2-  S151  1  0.49968941  0.87827968  0.65600422  1
  S2-  S152  1  0.73952599  0.11374434  0.15418600  1
  S2-  S153  1  0.80952317  0.11498843  0.68443479  1
  S2-  S154  1  0.74490241  0.37448119  0.15794571  1
  S2-  S155  1  0.73057284  0.30074244  0.64812866  1
  S2-  S156  1  0.77693654  0.61485035  0.15907697  1
  S2-  S157  1  0.63385506  0.64278210  0.64594399  1
  S2-  S158  1  0.74955020  0.87466036  0.16115986  1
  S2-  S159  1  0.73867685  0.87759904  0.66011806  1
  S2-  S160  1  0.11375199  0.02094158  0.33679485  1
  S2-  S161  1  0.06269924  -0.00257117  0.85059250  1
  S2-  S162  1  0.15703485  0.26431529  0.33891349  1
  S2-  S163  1  0.14299431  0.21682765  0.85037281  1
  S2-  S164  1  0.11523402  0.51649237  0.34253411  1
  S2-  S165  1  0.06145830  0.50759825  0.85555974  1
  S2-  S166  1  0.06697849  0.74851941  0.35644325  1
  S2-  S167  1  0.05669148  0.75293292  0.85508884  1
  S2-  S168  1  0.34211305  0.10293264  0.34794479  1
  S2-  S169  1  0.28385461  0.00328033  0.86184434  1
  S2-  S170  1  0.34046756  0.27165858  0.27409285  1
  S2-  S171  1  0.38413918  0.23618418  0.84467445  1
  S2-  S172  1  0.36904088  0.43004822  0.34494972  1
  S2-  S173  1  0.28141524  0.48188079  0.86100176  1
  S2-  S174  1  0.34464409  0.64844543  0.36833392  1
  S2-  S175  1  0.27736082  0.73211665  0.85996832  1
  S2-  S176  1  0.71922328  0.01479929  0.34823984  1
  S2-  S177  1  0.67405289  0.00375317  0.83817058  1
  S2-  S178  1  0.53466687  0.25325399  0.34336294  1
  S2-  S179  1  0.65459375  0.22617749  0.84313391  1
  S2-  S180  1  0.57297704  0.54124682  0.34660237  1
  S2-  S181  1  0.70481922  0.49740092  0.85560610  1
  S2-  S182  1  0.71348449  0.74347794  0.35069212  1
  S2-  S183  1  0.66225594  0.75488326  0.85343776  1
  S2-  S184  1  0.90806295  -0.02641456  0.30434720  1
  S2-  S185  1  0.87262777  -0.00226504  0.78311700  1
  S2-  S186  1  0.92079203  0.17007919  0.35733796  1
  S2-  S187  1  0.89586249  0.15949060  0.85183600  1
  S2-  S188  1  0.88837574  0.58451325  0.35434394  1
  S2-  S189  1  0.87872547  0.62591880  0.85371378  1
  S2-  S190  1  0.90444770  0.76730050  0.29133475  1
  S2-  S191  1  0.86919859  0.85026753  0.85437911  1
  S2-  S192  1  -0.00419006  0.12195021  0.46295627  1
  S2-  S193  1  0.02678613  0.11641735  0.95994484  1
  S2-  S194  1  -0.00198362  0.37663693  0.45103999  1
  S2-  S195  1  0.02953365  0.36688191  0.95523394  1
  S2-  S196  1  -0.00315587  0.62736802  0.46453499  1
  S2-  S197  1  0.03641157  0.61593944  0.95903313  1
  S2-  S198  1  -0.01371646  0.88041067  0.45065124  1
  S2-  S199  1  0.03198946  0.87437440  0.95946007  1
  S2-  S200  1  0.24497332  0.12333568  0.45612181  1
  S2-  S201  1  0.27792987  0.12130668  0.95748876  1
  S2-  S202  1  0.25131864  0.37369647  0.44902240  1
  S2-  S203  1  0.28118994  0.36345118  0.95767839  1
  S2-  S204  1  0.24210217  0.63241120  0.47159382  1
  S2-  S205  1  0.28507231  0.61493593  0.95622645  1
  S2-  S206  1  0.24933489  0.87549197  0.44881155  1
  S2-  S207  1  0.28082899  0.86734414  0.95628503  1
  S2-  S208  1  0.50024943  0.12803638  0.44931084  1
  S2-  S209  1  0.52787903  0.11548592  0.95278549  1
  S2-  S210  1  0.49964106  0.37915377  0.44804521  1
  S2-  S211  1  0.52778252  0.36844668  0.95243294  1
  S2-  S212  1  0.50524608  0.63364221  0.46165632  1
  S2-  S213  1  0.52541241  0.61893645  0.95345696  1
  S2-  S214  1  0.50259084  0.87796001  0.45326618  1
  S2-  S215  1  0.52487309  0.86695071  0.95466421  1
  S2-  S216  1  0.75072546  0.12887439  0.45350556  1
  S2-  S217  1  0.78036544  0.11406936  0.95242786  1
  S2-  S218  1  0.75048884  0.37841488  0.45858946  1
  S2-  S219  1  0.78049620  0.36638955  0.95164627  1
  S2-  S220  1  0.75519421  0.63038845  0.45856686  1
  S2-  S221  1  0.77436179  0.61941797  0.95762312  1
  S2-  S222  1  0.75871814  0.88000750  0.44825246  1
  S2-  S223  1  0.77703834  0.86994799  0.95972050  1
  S2-  S224  1  0.15356223  -0.00480707  0.04386871  1
  S2-  S225  1  0.12709796  -0.00045532  0.54390320  1
  S2-  S226  1  0.15352936  0.24314659  0.05193842  1
  S2-  S227  1  0.12831587  0.25226348  0.54383961  1
  S2-  S228  1  0.15974525  0.48741244  0.04042032  1
  S2-  S229  1  0.12115195  0.49574368  0.54996405  1
  S2-  S230  1  0.15849217  0.73805647  0.04127631  1
  S2-  S231  1  0.12395108  0.76094659  0.55682564  1
  S2-  S232  1  0.39992357  -0.00746463  0.04291480  1
  S2-  S233  1  0.37598015  0.00151538  0.54284116  1
  S2-  S234  1  0.40077978  0.23913538  0.04529408  1
  S2-  S235  1  0.37613552  0.24915075  0.55220892  1
  S2-  S236  1  0.40825487  0.49149654  0.03511399  1
  S2-  S237  1  0.37692017  0.50371052  0.54438906  1
  S2-  S238  1  0.40534056  0.74741598  0.03576635  1
  S2-  S239  1  0.37532207  0.75738719  0.55180714  1
  S2-  S240  1  0.65563759  -0.01064292  0.04486118  1
  S2-  S241  1  0.62773839  0.00416419  0.54257181  1
  S2-  S242  1  0.65639643  0.24174250  0.04528772  1
  S2-  S243  1  0.62441491  0.25388058  0.53955245  1
  S2-  S244  1  0.65011954  0.49202588  0.05379300  1
  S2-  S245  1  0.62601233  0.50091046  0.54858203  1
  S2-  S246  1  0.65075553  0.74262183  0.05705699  1
  S2-  S247  1  0.62592848  0.75733535  0.54371677  1
  S2-  S248  1  0.90163792  -0.00960334  0.05556836  1
  S2-  S249  1  0.86919911  0.01270165  0.56092812  1
  S2-  S250  1  0.90404703  0.24262635  0.04854373  1
  S2-  S251  1  0.86840461  0.25057601  0.54624702  1
  S2-  S252  1  0.90029543  0.49326419  0.03314179  1
  S2-  S253  1  0.87644865  0.49591660  0.54816051  1
  S2-  S254  1  0.89912371  0.74178035  0.04300564  1
  S2-  S255  1  0.87873184  0.75554146  0.55218884  1
