# generated using pymatgen
data_La9Ce10Pr6Nd4Sm3(BiS2)32
_symmetry_space_group_name_H-M   'P 1'
_cell_length_a   16.10622896
_cell_length_b   16.14423273
_cell_length_c   27.17780179
_cell_angle_alpha   89.81008433
_cell_angle_beta   90.19340517
_cell_angle_gamma   89.90482185
_symmetry_Int_Tables_number   1
_chemical_formula_structural   La9Ce10Pr6Nd4Sm3(BiS2)32
_chemical_formula_sum   'La18 Ce20 Pr12 Nd8 Sm6 Bi64 S128'
_cell_volume   7066.75667334
_cell_formula_units_Z   2
loop_
 _symmetry_equiv_pos_site_id
 _symmetry_equiv_pos_as_xyz
  1  'x, y, z'
loop_
 _atom_type_symbol
 _atom_type_oxidation_number
  La3+  3.0
  Ce3+  3.0
  Pr3+  3.0
  Nd3+  3.0
  Sm3+  3.0
  Bi2+  2.0
  S2-  -2.0
loop_
 _atom_site_type_symbol
 _atom_site_label
 _atom_site_symmetry_multiplicity
 _atom_site_fract_x
 _atom_site_fract_y
 _atom_site_fract_z
 _atom_site_occupancy
  La3+  La0  1  0.49380072  0.11978527  0.58932299  1
  La3+  La1  1  0.86856169  0.51525936  0.43140477  1
  La3+  La2  1  0.49605961  0.37108101  0.59256330  1
  La3+  La3  1  0.24523440  0.88064325  0.55956315  1
  La3+  La4  1  0.88008938  0.75555182  0.91857033  1
  La3+  La5  1  0.12015991  0.50795818  0.42857818  1
  La3+  La6  1  0.36860193  0.00908598  0.42603696  1
  La3+  La7  1  0.23751714  0.38414480  0.58429221  1
  La3+  La8  1  0.86799054  0.24818561  0.40659411  1
  La3+  La9  1  0.36987890  0.74179246  0.42482766  1
  La3+  La10  1  0.61678368  0.50850160  0.43756494  1
  La3+  La11  1  0.87035739  0.00918635  0.93458603  1
  La3+  La12  1  0.86185423  0.00314370  0.42893861  1
  La3+  La13  1  0.49230879  0.63095402  0.57497326  1
  La3+  La14  1  0.74502576  0.13329068  0.56136017  1
  La3+  La15  1  0.73774399  0.62791563  0.57984736  1
  La3+  La16  1  0.36939392  0.00202257  0.91913640  1
  La3+  La17  1  0.74720423  0.12835459  0.09047301  1
  Ce3+  Ce18  1  0.61922796  0.75060418  0.44497831  1
  Ce3+  Ce19  1  0.12855296  0.00312189  0.94282614  1
  Ce3+  Ce20  1  0.87383418  0.25074522  0.94235083  1
  Ce3+  Ce21  1  0.25229006  0.37758376  0.06566290  1
  Ce3+  Ce22  1  0.62349584  0.00518794  0.94062362  1
  Ce3+  Ce23  1  0.50068240  0.88036538  0.05400652  1
  Ce3+  Ce24  1  0.49119880  0.88275280  0.55430346  1
  Ce3+  Ce25  1  0.00288528  0.62551166  0.06879025  1
  Ce3+  Ce26  1  0.61411834  0.00943863  0.43195040  1
  Ce3+  Ce27  1  0.12130233  0.01274191  0.43319452  1
  Ce3+  Ce28  1  0.13029596  0.75018643  0.93811076  1
  Ce3+  Ce29  1  -0.01139314  0.12014375  0.56441466  1
  Ce3+  Ce30  1  0.25401317  0.87989774  0.06508289  1
  Ce3+  Ce31  1  0.24437761  0.12788970  0.56178452  1
  Ce3+  Ce32  1  0.37478205  0.25703492  0.45289320  1
  Ce3+  Ce33  1  0.62482751  0.50529479  0.93784187  1
  Ce3+  Ce34  1  0.75073031  0.62463609  0.06035343  1
  Ce3+  Ce35  1  0.74787545  0.38107341  0.06414756  1
  Ce3+  Ce36  1  -0.00304387  0.87426054  0.05466582  1
  Ce3+  Ce37  1  0.62664961  0.75394880  0.93947751  1
  Pr3+  Pr38  1  0.25302294  0.12307091  0.06428161  1
  Pr3+  Pr39  1  0.11654770  0.75632603  0.43582280  1
  Pr3+  Pr40  1  -0.00025545  0.12851274  0.06602501  1
  Pr3+  Pr41  1  0.50089854  0.37488772  0.06069765  1
  Pr3+  Pr42  1  0.61009461  0.26173804  0.42248091  1
  Pr3+  Pr43  1  0.24370675  0.62903076  0.56691630  1
  Pr3+  Pr44  1  -0.01239780  0.38023801  0.55527706  1
  Pr3+  Pr45  1  0.12549143  0.25516100  0.94034870  1
  Pr3+  Pr46  1  0.62117759  0.25423534  0.93337096  1
  Pr3+  Pr47  1  -0.00600561  0.62436860  0.57281981  1
  Pr3+  Pr48  1  0.87870488  0.49989229  0.93776302  1
  Pr3+  Pr49  1  -0.00151508  0.37994941  0.07653538  1
  Nd3+  Nd50  1  0.25334215  0.63521417  0.08227848  1
  Nd3+  Nd51  1  0.12571218  0.50363928  0.94695713  1
  Nd3+  Nd52  1  0.74090370  0.37561205  0.54948162  1
  Nd3+  Nd53  1  0.74366717  0.88330291  0.56441954  1
  Nd3+  Nd54  1  0.37148075  0.50594216  0.94192393  1
  Nd3+  Nd55  1  0.50104639  0.12036033  0.06384523  1
  Nd3+  Nd56  1  0.49992842  0.63017340  0.06282182  1
  Nd3+  Nd57  1  0.75897791  0.87482173  0.06593889  1
  Sm3+  Sm58  1  0.37014119  0.75250167  0.93589048  1
  Sm3+  Sm59  1  0.36864557  0.50064527  0.45284522  1
  Sm3+  Sm60  1  0.86877441  0.75395003  0.44952580  1
  Sm3+  Sm61  1  0.11600638  0.25612682  0.44657458  1
  Sm3+  Sm62  1  0.36974101  0.25418644  0.93204429  1
  Sm3+  Sm63  1  -0.00399171  0.87363828  0.56353280  1
  Bi2+  Bi64  1  0.06069105  0.05007206  0.30269642  1
  Bi2+  Bi65  1  0.00240376  0.15393137  0.79658410  1
  Bi2+  Bi66  1  0.08372888  0.29891236  0.28066786  1
  Bi2+  Bi67  1  -0.00162358  0.34287227  0.84529849  1
  Bi2+  Bi68  1  -0.00002115  0.57229694  0.30630061  1
  Bi2+  Bi69  1  0.02417462  0.57722917  0.81661307  1
  Bi2+  Bi70  1  0.03953587  0.85754685  0.30986122  1
  Bi2+  Bi71  1  -0.02536503  0.95354685  0.77983923  1
  Bi2+  Bi72  1  0.31556630  0.11155504  0.29738121  1
  Bi2+  Bi73  1  0.20011607  0.12985157  0.78593133  1
  Bi2+  Bi74  1  0.31165244  0.32473397  0.25365914  1
  Bi2+  Bi75  1  0.28052154  0.38734978  0.80449673  1
  Bi2+  Bi76  1  0.26357661  0.64754676  0.28835760  1
  Bi2+  Bi77  1  0.23165004  0.67033628  0.72369924  1
  Bi2+  Bi78  1  0.19165033  0.81197685  0.23981618  1
  Bi2+  Bi79  1  0.22020808  0.85727655  0.79307945  1
  Bi2+  Bi80  1  0.51322160  0.14790179  0.28922824  1
  Bi2+  Bi81  1  0.49711433  0.17818170  0.77822170  1
  Bi2+  Bi82  1  0.47580647  0.40246560  0.30106533  1
  Bi2+  Bi83  1  0.50680891  0.42290332  0.78085933  1
  Bi2+  Bi84  1  0.46225327  0.67406485  0.29807791  1
  Bi2+  Bi85  1  0.41672268  0.65987001  0.78322044  1
  Bi2+  Bi86  1  0.58480303  0.82551775  0.26596330  1
  Bi2+  Bi87  1  0.40925351  0.85734071  0.81067244  1
  Bi2+  Bi88  1  0.77249673  0.10443992  0.28542323  1
  Bi2+  Bi89  1  0.74093179  0.10950567  0.79320437  1
  Bi2+  Bi90  1  0.74445532  0.36361949  0.28381378  1
  Bi2+  Bi91  1  0.82806453  0.37861865  0.79116667  1
  Bi2+  Bi92  1  0.74210576  0.62085542  0.30057054  1
  Bi2+  Bi93  1  0.70283858  0.61107328  0.79588554  1
  Bi2+  Bi94  1  0.77398325  0.83766820  0.30181232  1
  Bi2+  Bi95  1  0.72597998  0.85274279  0.79778993  1
  Bi2+  Bi96  1  0.10221568  -0.02221681  0.20484615  1
  Bi2+  Bi97  1  0.09197436  0.03784092  0.69962933  1
  Bi2+  Bi98  1  0.23672216  0.16498441  0.19576088  1
  Bi2+  Bi99  1  0.09864730  0.25758994  0.69204260  1
  Bi2+  Bi100  1  0.11529466  0.49733887  0.20089921  1
  Bi2+  Bi101  1  0.10462389  0.42162186  0.75950766  1
  Bi2+  Bi102  1  0.01488160  0.71808540  0.22820041  1
  Bi2+  Bi103  1  0.05470884  0.77243517  0.75143867  1
  Bi2+  Bi104  1  0.37908820  -0.00502383  0.21510663  1
  Bi2+  Bi105  1  0.33413891  -0.04860985  0.69801613  1
  Bi2+  Bi106  1  0.42673880  0.21221582  0.18554566  1
  Bi2+  Bi107  1  0.28751341  0.24620862  0.70921811  1
  Bi2+  Bi108  1  0.40179288  0.49363640  0.21283919  1
  Bi2+  Bi109  1  0.36998974  0.54779066  0.69182899  1
  Bi2+  Bi110  1  0.43748200  0.77384406  0.18678346  1
  Bi2+  Bi111  1  0.36318824  0.76117161  0.65091255  1
  Bi2+  Bi112  1  0.59528831  0.00044974  0.21502956  1
  Bi2+  Bi113  1  0.52447390  -0.04249392  0.74261454  1
  Bi2+  Bi114  1  0.62790300  0.28349422  0.20803595  1
  Bi2+  Bi115  1  0.65602178  0.25950065  0.69757564  1
  Bi2+  Bi116  1  0.62178693  0.54312405  0.21264855  1
  Bi2+  Bi117  1  0.72683136  0.49683028  0.70165835  1
  Bi2+  Bi118  1  0.62541224  0.71973677  0.16557495  1
  Bi2+  Bi119  1  0.53306342  0.75882568  0.71202503  1
  Bi2+  Bi120  1  0.84932600  -0.06509879  0.21615606  1
  Bi2+  Bi121  1  0.79677123  0.03068690  0.69835173  1
  Bi2+  Bi122  1  0.92085942  0.24060741  0.20026803  1
  Bi2+  Bi123  1  0.90010181  0.26403510  0.71185233  1
  Bi2+  Bi124  1  0.85221023  0.50123928  0.21907600  1
  Bi2+  Bi125  1  0.92669589  0.53630322  0.71892419  1
  Bi2+  Bi126  1  0.81938192  0.71800850  0.20605479  1
  Bi2+  Bi127  1  0.88711251  0.80421918  0.69770483  1
  S2-  S128  1  0.04214120  0.12388700  0.16520635  1
  S2-  S129  1  -0.12618101  0.15218105  0.63764915  1
  S2-  S130  1  0.06386343  0.33915781  0.17177017  1
  S2-  S131  1  -0.00449014  0.48572662  0.63815529  1
  S2-  S132  1  -0.03498545  0.51071882  0.14721387  1
  S2-  S133  1  0.01461189  0.75564394  0.64340363  1
  S2-  S134  1  -0.09267075  0.85802335  0.13811042  1
  S2-  S135  1  -0.02455195  0.98047906  0.63966983  1
  S2-  S136  1  0.25646251  0.00321305  0.14061434  1
  S2-  S137  1  0.32706795  0.10747618  0.64761821  1
  S2-  S138  1  0.25866034  0.44631678  0.15595487  1
  S2-  S139  1  0.35634964  0.38035035  0.66012917  1
  S2-  S140  1  0.11899223  0.63756749  0.14939950  1
  S2-  S141  1  0.21103015  0.53567820  0.65176680  1
  S2-  S142  1  0.27299687  0.78246474  0.14699204  1
  S2-  S143  1  0.19163838  0.91053349  0.65629484  1
  S2-  S144  1  0.60176483  0.15612674  0.14705302  1
  S2-  S145  1  0.50372639  0.22932532  0.67110043  1
  S2-  S146  1  0.53888629  0.41684998  0.15742212  1
  S2-  S147  1  0.57653933  0.42152438  0.68468903  1
  S2-  S148  1  0.39814944  0.62081854  0.14517333  1
  S2-  S149  1  0.60557344  0.64336270  0.65410005  1
  S2-  S150  1  0.48109055  0.97946405  0.13526212  1
  S2-  S151  1  0.49749503  0.96127059  0.64389153  1
  S2-  S152  1  0.83666986  0.10713307  0.18217881  1
  S2-  S153  1  0.66096795  0.11297935  0.65344341  1
  S2-  S154  1  0.77519812  0.29496037  0.15015686  1
  S2-  S155  1  0.78203301  0.35974532  0.64822737  1
  S2-  S156  1  0.74221290  0.51167567  0.13871381  1
  S2-  S157  1  0.81812756  0.65420812  0.67150355  1
  S2-  S158  1  0.71316080  0.95910594  0.15085075  1
  S2-  S159  1  0.73628028  0.88324815  0.66632292  1
  S2-  S160  1  0.23074304  0.00294168  0.35493341  1
  S2-  S161  1  0.21461345  0.00135281  0.85712687  1
  S2-  S162  1  0.12312263  0.19640550  0.35394562  1
  S2-  S163  1  0.23574575  0.25404461  0.85932445  1
  S2-  S164  1  0.10636291  0.44242609  0.33207729  1
  S2-  S165  1  0.18004412  0.51206554  0.85144683  1
  S2-  S166  1  0.12987151  0.64731490  0.35682540  1
  S2-  S167  1  0.02570955  0.73267537  0.85707257  1
  S2-  S168  1  0.49880042  0.02177327  0.35500499  1
  S2-  S169  1  0.42787661  0.06259859  0.82732407  1
  S2-  S170  1  0.45431353  0.26393346  0.36348643  1
  S2-  S171  1  0.44168336  0.29334792  0.84238829  1
  S2-  S172  1  0.36674909  0.56229533  0.35945376  1
  S2-  S173  1  0.39876313  0.51405435  0.84209825  1
  S2-  S174  1  0.34545665  0.78987296  0.32790319  1
  S2-  S175  1  0.25072446  0.73792613  0.86456520  1
  S2-  S176  1  0.72666609  -0.01408563  0.35539270  1
  S2-  S177  1  0.64767048  -0.01458595  0.84326670  1
  S2-  S178  1  0.72041604  0.22158108  0.34439210  1
  S2-  S179  1  0.64314609  0.22704708  0.83145996  1
  S2-  S180  1  0.61261782  0.40911529  0.35154089  1
  S2-  S181  1  0.62188387  0.46883768  0.84102296  1
  S2-  S182  1  0.61162245  0.64392334  0.36523330  1
  S2-  S183  1  0.61339274  0.73714927  0.84121530  1
  S2-  S184  1  0.90510383  0.09621737  0.34516247  1
  S2-  S185  1  0.86448844  -0.09368146  0.85153604  1
  S2-  S186  1  0.92678452  0.28560790  0.30395670  1
  S2-  S187  1  0.86145126  0.14373076  0.86313409  1
  S2-  S188  1  0.84069935  0.46724887  0.33301928  1
  S2-  S189  1  0.84524208  0.52801954  0.83862244  1
  S2-  S190  1  0.87883383  0.66542239  0.36461157  1
  S2-  S191  1  0.81634120  0.72401725  0.81917403  1
  S2-  S192  1  -0.00575416  0.13196417  0.45573723  1
  S2-  S193  1  0.00490014  0.12873127  0.95783662  1
  S2-  S194  1  -0.00938756  0.37818343  0.44530813  1
  S2-  S195  1  0.00174705  0.37786076  0.96595809  1
  S2-  S196  1  -0.00483635  0.63260665  0.46481107  1
  S2-  S197  1  0.00138097  0.62443979  0.96035620  1
  S2-  S198  1  -0.00745707  0.88009471  0.45317874  1
  S2-  S199  1  0.00285870  0.88185526  0.95108482  1
  S2-  S200  1  0.24554335  0.13645423  0.45727511  1
  S2-  S201  1  0.25160491  0.12997361  0.95782499  1
  S2-  S202  1  0.24445433  0.37803760  0.45384200  1
  S2-  S203  1  0.25225336  0.37955050  0.95990032  1
  S2-  S204  1  0.24564446  0.62823680  0.45982605  1
  S2-  S205  1  0.25102444  0.62564049  0.96840724  1
  S2-  S206  1  0.24581504  0.87549758  0.44988710  1
  S2-  S207  1  0.25078170  0.87799701  0.95869093  1
  S2-  S208  1  0.49654753  0.13388764  0.46143857  1
  S2-  S209  1  0.49550821  0.13133020  0.95110873  1
  S2-  S210  1  0.49350522  0.38420363  0.46604574  1
  S2-  S211  1  0.49637806  0.37971830  0.95371189  1
  S2-  S212  1  0.49039061  0.62648263  0.46586372  1
  S2-  S213  1  0.49746315  0.63097609  0.95241482  1
  S2-  S214  1  0.49328525  0.87317834  0.44700821  1
  S2-  S215  1  0.49711989  0.87597476  0.94617654  1
  S2-  S216  1  0.74026481  0.13386285  0.45278289  1
  S2-  S217  1  0.74188496  0.13067757  0.95960932  1
  S2-  S218  1  0.74658651  0.37866159  0.44543147  1
  S2-  S219  1  0.75001727  0.37699273  0.95091872  1
  S2-  S220  1  0.74352727  0.63288256  0.46733937  1
  S2-  S221  1  0.75137407  0.62765200  0.95055954  1
  S2-  S222  1  0.74212727  0.87242972  0.45753284  1
  S2-  S223  1  0.74812983  0.87687463  0.95682706  1
  S2-  S224  1  0.12055214  0.00096769  0.04706719  1
  S2-  S225  1  0.11846222  0.00401103  0.54014894  1
  S2-  S226  1  0.12822545  0.25203941  0.05032998  1
  S2-  S227  1  0.11673299  0.25515764  0.55185240  1
  S2-  S228  1  0.12769686  0.49983528  0.05193190  1
  S2-  S229  1  0.12131889  0.49997951  0.53810896  1
  S2-  S230  1  0.12476755  0.75719235  0.04616373  1
  S2-  S231  1  0.12208967  0.75349001  0.54263182  1
  S2-  S232  1  0.37661265  0.00312296  0.03166823  1
  S2-  S233  1  0.36767828  0.00577438  0.53735900  1
  S2-  S234  1  0.37634257  0.24983115  0.04506449  1
  S2-  S235  1  0.36548108  0.25587387  0.55571959  1
  S2-  S236  1  0.37737557  0.50129172  0.04728296  1
  S2-  S237  1  0.36948538  0.50176607  0.55497491  1
  S2-  S238  1  0.37981789  0.75552356  0.03957884  1
  S2-  S239  1  0.36929260  0.75375381  0.53756396  1
  S2-  S240  1  0.62884093  0.00155860  0.04327738  1
  S2-  S241  1  0.61945018  0.00258660  0.54101413  1
  S2-  S242  1  0.62468395  0.25347632  0.04220488  1
  S2-  S243  1  0.61369579  0.25497823  0.55164124  1
  S2-  S244  1  0.62004095  0.50498968  0.04150520  1
  S2-  S245  1  0.61574578  0.50031724  0.55180352  1
  S2-  S246  1  0.62712811  0.75415641  0.04484199  1
  S2-  S247  1  0.61677345  0.76039973  0.55066061  1
  S2-  S248  1  0.87355619  0.00743010  0.04675375  1
  S2-  S249  1  0.86690197  -0.00124989  0.53709282  1
  S2-  S250  1  0.87594847  0.25243557  0.04818842  1
  S2-  S251  1  0.87046488  0.25673976  0.53330431  1
  S2-  S252  1  0.87390784  0.50223234  0.04212413  1
  S2-  S253  1  0.86185250  0.50625485  0.54240801  1
  S2-  S254  1  0.87545158  0.74576674  0.03733637  1
  S2-  S255  1  0.86652992  0.75461164  0.55205269  1
