# generated using pymatgen
data_La9Ce10Pr6Nd4Sm3(BiS2)32
_symmetry_space_group_name_H-M   'P 1'
_cell_length_a   16.17322580
_cell_length_b   16.17469626
_cell_length_c   27.13235372
_cell_angle_alpha   89.23731414
_cell_angle_beta   89.90192885
_cell_angle_gamma   90.06948900
_symmetry_Int_Tables_number   1
_chemical_formula_structural   La9Ce10Pr6Nd4Sm3(BiS2)32
_chemical_formula_sum   'La18 Ce20 Pr12 Nd8 Sm6 Bi64 S128'
_cell_volume   7097.09810041
_cell_formula_units_Z   2
loop_
 _symmetry_equiv_pos_site_id
 _symmetry_equiv_pos_as_xyz
  1  'x, y, z'
loop_
 _atom_type_symbol
 _atom_type_oxidation_number
  La3+  3.0
  Ce3+  3.0
  Pr3+  3.0
  Nd3+  3.0
  Sm3+  3.0
  Bi2+  2.0
  S2-  -2.0
loop_
 _atom_site_type_symbol
 _atom_site_label
 _atom_site_symmetry_multiplicity
 _atom_site_fract_x
 _atom_site_fract_y
 _atom_site_fract_z
 _atom_site_occupancy
  La3+  La0  1  0.89499685  0.75684230  0.41104132  1
  La3+  La1  1  0.13182778  0.25944708  0.93710645  1
  La3+  La2  1  0.24082908  0.86418327  0.08080486  1
  La3+  La3  1  0.63934709  0.75586069  0.42084889  1
  La3+  La4  1  0.27297521  0.12636284  0.56093294  1
  La3+  La5  1  0.13611718  0.00301045  0.93502083  1
  La3+  La6  1  0.25518086  0.86917324  0.57925527  1
  La3+  La7  1  0.12479326  0.75882002  0.91927078  1
  La3+  La8  1  0.62375531  0.26239522  0.93216878  1
  La3+  La9  1  0.14228761  0.50129001  0.44046513  1
  La3+  La10  1  0.64665136  0.50713657  0.43111602  1
  La3+  La11  1  0.38818577  0.75412893  0.44474895  1
  La3+  La12  1  0.00611177  0.62684599  0.06193062  1
  La3+  La13  1  0.50870297  0.37685316  0.09297637  1
  La3+  La14  1  0.39723120  0.25884132  0.41833738  1
  La3+  La15  1  0.26670430  0.61420508  0.60964455  1
  La3+  La16  1  0.90090959  0.01112596  0.42307210  1
  La3+  La17  1  0.75029179  0.62193277  0.07171969  1
  Ce3+  Ce18  1  0.14098623  0.75284000  0.43351620  1
  Ce3+  Ce19  1  0.75236520  0.88254505  0.06579009  1
  Ce3+  Ce20  1  0.62658853  0.50341505  0.93921961  1
  Ce3+  Ce21  1  0.75094043  0.12742242  0.05576235  1
  Ce3+  Ce22  1  0.39277786  0.50399196  0.43982792  1
  Ce3+  Ce23  1  0.87211310  0.75629265  0.94447008  1
  Ce3+  Ce24  1  0.89333114  0.50199568  0.45212763  1
  Ce3+  Ce25  1  0.50153839  0.88105386  0.05929398  1
  Ce3+  Ce26  1  0.39365330  0.00135217  0.44156576  1
  Ce3+  Ce27  1  0.50265849  0.12895223  0.06607474  1
  Ce3+  Ce28  1  0.76618823  0.63142343  0.55778932  1
  Ce3+  Ce29  1  0.01907526  0.62779949  0.55849304  1
  Ce3+  Ce30  1  0.51452347  0.62441856  0.56081025  1
  Ce3+  Ce31  1  0.89404050  0.25032048  0.44566862  1
  Ce3+  Ce32  1  0.02218290  0.12528426  0.55982262  1
  Ce3+  Ce33  1  0.87726979  0.50091764  0.94490679  1
  Ce3+  Ce34  1  0.62824623  0.75541412  0.94788617  1
  Ce3+  Ce35  1  0.76023574  0.37280511  0.56550635  1
  Ce3+  Ce36  1  0.25301375  0.12659190  0.06927172  1
  Ce3+  Ce37  1  0.25230684  0.63040561  0.04906985  1
  Pr3+  Pr38  1  0.64440877  0.25691675  0.42523112  1
  Pr3+  Pr39  1  0.02472828  0.37513702  0.57169231  1
  Pr3+  Pr40  1  0.77063390  0.11548219  0.56575317  1
  Pr3+  Pr41  1  0.75301146  0.36495943  0.06645893  1
  Pr3+  Pr42  1  0.52477134  0.12633601  0.55536369  1
  Pr3+  Pr43  1  0.37455622  0.00510705  0.94479679  1
  Pr3+  Pr44  1  0.11870729  0.50871216  0.92655124  1
  Pr3+  Pr45  1  0.51519574  0.87266587  0.56325580  1
  Pr3+  Pr46  1  0.24512025  0.38258064  0.07407906  1
  Pr3+  Pr47  1  0.76769863  0.86961548  0.55949929  1
  Pr3+  Pr48  1  0.51613551  0.37664195  0.56147730  1
  Pr3+  Pr49  1  0.88206273  0.24461068  0.92868204  1
  Nd3+  Nd50  1  0.62459548  0.01423938  0.93146477  1
  Nd3+  Nd51  1  0.15319333  0.00369099  0.43142748  1
  Nd3+  Nd52  1  0.01884813  0.87549438  0.55027455  1
  Nd3+  Nd53  1  0.00284728  0.36852464  0.06739834  1
  Nd3+  Nd54  1  0.14750827  0.25339403  0.43324125  1
  Nd3+  Nd55  1  0.27202361  0.37419708  0.56283412  1
  Nd3+  Nd56  1  0.00885999  0.12423839  0.06420214  1
  Nd3+  Nd57  1  0.38121577  0.75555931  0.93502065  1
  Sm3+  Sm58  1  0.37722025  0.50420751  0.94575119  1
  Sm3+  Sm59  1  -0.00667443  0.87617446  0.06573617  1
  Sm3+  Sm60  1  0.64667415  0.00033880  0.43367226  1
  Sm3+  Sm61  1  0.87757294  0.00186599  0.93884605  1
  Sm3+  Sm62  1  0.37753164  0.26064256  0.95409634  1
  Sm3+  Sm63  1  0.50036250  0.62892905  0.06129980  1
  Bi2+  Bi64  1  -0.11071132  0.12378176  0.25535244  1
  Bi2+  Bi65  1  -0.03655379  0.10872089  0.76528858  1
  Bi2+  Bi66  1  -0.03235001  0.35281186  0.29225954  1
  Bi2+  Bi67  1  -0.01677166  0.34512542  0.80437173  1
  Bi2+  Bi68  1  0.01123759  0.60333233  0.29349436  1
  Bi2+  Bi69  1  -0.06836669  0.59369020  0.78036750  1
  Bi2+  Bi70  1  0.01156705  0.88369164  0.28392046  1
  Bi2+  Bi71  1  0.00217128  0.86557442  0.77575098  1
  Bi2+  Bi72  1  0.11737646  0.09028531  0.25743598  1
  Bi2+  Bi73  1  0.26420698  0.08731553  0.76074908  1
  Bi2+  Bi74  1  0.23316084  0.36677841  0.30626257  1
  Bi2+  Bi75  1  0.23952007  0.32877274  0.79751002  1
  Bi2+  Bi76  1  0.24268413  0.73779693  0.30072454  1
  Bi2+  Bi77  1  0.27439936  0.59901477  0.80241143  1
  Bi2+  Bi78  1  0.20495846  0.92545652  0.29222610  1
  Bi2+  Bi79  1  0.25787218  0.88080157  0.80490840  1
  Bi2+  Bi80  1  0.54841403  0.11065283  0.27463738  1
  Bi2+  Bi81  1  0.46001769  0.05614032  0.75633488  1
  Bi2+  Bi82  1  0.51860277  0.37765953  0.28552088  1
  Bi2+  Bi83  1  0.50480703  0.30628270  0.79697736  1
  Bi2+  Bi84  1  0.50060100  0.66027091  0.28074704  1
  Bi2+  Bi85  1  0.54860205  0.60476955  0.79926127  1
  Bi2+  Bi86  1  0.47552096  0.92687833  0.30562409  1
  Bi2+  Bi87  1  0.50847780  0.89002046  0.80655472  1
  Bi2+  Bi88  1  0.72360079  0.12367473  0.32330080  1
  Bi2+  Bi89  1  0.72826997  0.10607804  0.79250173  1
  Bi2+  Bi90  1  0.77065553  0.31266541  0.29758725  1
  Bi2+  Bi91  1  0.70873001  0.38783361  0.77197636  1
  Bi2+  Bi92  1  0.75502999  0.56916537  0.29414925  1
  Bi2+  Bi93  1  0.74362043  0.56960930  0.81587796  1
  Bi2+  Bi94  1  0.75216209  0.93550851  0.27868041  1
  Bi2+  Bi95  1  0.75238367  0.83172662  0.79726446  1
  Bi2+  Bi96  1  -0.01087502  -0.00158322  0.18827783  1
  Bi2+  Bi97  1  0.11974189  0.00165200  0.70188508  1
  Bi2+  Bi98  1  0.12881040  0.27331995  0.19400827  1
  Bi2+  Bi99  1  0.08836459  0.24492558  0.69443710  1
  Bi2+  Bi100  1  0.15977136  0.51370143  0.23129618  1
  Bi2+  Bi101  1  0.09863978  0.48439219  0.70998673  1
  Bi2+  Bi102  1  0.10593196  0.72184423  0.20223699  1
  Bi2+  Bi103  1  0.13432198  0.73857044  0.72281653  1
  Bi2+  Bi104  1  0.39689376  0.03565445  0.21159001  1
  Bi2+  Bi105  1  0.34076553  -0.07777443  0.70127185  1
  Bi2+  Bi106  1  0.36935308  0.21828530  0.23179204  1
  Bi2+  Bi107  1  0.36169003  0.27682115  0.71965059  1
  Bi2+  Bi108  1  0.32756646  0.56761728  0.27714131  1
  Bi2+  Bi109  1  0.46235713  0.48870422  0.72675863  1
  Bi2+  Bi110  1  0.35796591  0.76863675  0.20447288  1
  Bi2+  Bi111  1  0.48112252  0.78400576  0.71695067  1
  Bi2+  Bi112  1  0.58443284  0.00403300  0.17022310  1
  Bi2+  Bi113  1  0.61461564  0.02239102  0.68424411  1
  Bi2+  Bi114  1  0.63312136  0.27246430  0.20818734  1
  Bi2+  Bi115  1  0.56016628  0.24920409  0.69057768  1
  Bi2+  Bi116  1  0.58323828  0.54826804  0.19696210  1
  Bi2+  Bi117  1  0.61752139  0.54845779  0.67175242  1
  Bi2+  Bi118  1  0.60742859  0.83327202  0.23156518  1
  Bi2+  Bi119  1  0.67404466  0.71904016  0.71868993  1
  Bi2+  Bi120  1  0.78066686  0.02480741  0.17520464  1
  Bi2+  Bi121  1  0.84438244  -0.03977061  0.72890582  1
  Bi2+  Bi122  1  0.86869629  0.31728821  0.19321427  1
  Bi2+  Bi123  1  0.85186578  0.26496213  0.73475508  1
  Bi2+  Bi124  1  0.89620789  0.50080060  0.22200995  1
  Bi2+  Bi125  1  0.80631071  0.51778185  0.70473726  1
  Bi2+  Bi126  1  0.84481306  0.73804925  0.21677908  1
  Bi2+  Bi127  1  0.89531709  0.74325439  0.71072286  1
  S2-  S128  1  -0.01164343  0.23657954  0.13878977  1
  S2-  S129  1  -0.01362116  0.11098667  0.65662555  1
  S2-  S130  1  0.10837455  0.42486992  0.14269200  1
  S2-  S131  1  -0.03619699  0.36063226  0.67033622  1
  S2-  S132  1  -0.04155318  0.64426306  0.15943804  1
  S2-  S133  1  0.08441762  0.62519626  0.65123275  1
  S2-  S134  1  0.09205129  0.85883525  0.14644072  1
  S2-  S135  1  0.09672307  0.87922171  0.64114524  1
  S2-  S136  1  0.16765148  0.11981015  0.15410471  1
  S2-  S137  1  0.21372049  0.13698309  0.65620032  1
  S2-  S138  1  0.28490533  0.31455096  0.17099908  1
  S2-  S139  1  0.16198426  0.36702703  0.64500425  1
  S2-  S140  1  0.23753901  0.69690744  0.13866285  1
  S2-  S141  1  0.24913949  0.53650634  0.70609991  1
  S2-  S142  1  0.29602034  0.91591923  0.17395437  1
  S2-  S143  1  0.26300390  0.75904510  0.66505642  1
  S2-  S144  1  0.50409158  0.22355254  0.14893744  1
  S2-  S145  1  0.46504272  0.11258719  0.65062060  1
  S2-  S146  1  0.46723417  0.42845393  0.19307211  1
  S2-  S147  1  0.39307553  0.36654772  0.63796709  1
  S2-  S148  1  0.45873750  0.63501173  0.15782820  1
  S2-  S149  1  0.43856377  0.60514042  0.65124324  1
  S2-  S150  1  0.50098887  0.83992920  0.15568774  1
  S2-  S151  1  0.59255109  0.86163804  0.65399890  1
  S2-  S152  1  0.74935568  0.21984339  0.13773621  1
  S2-  S153  1  0.68809532  0.16530114  0.65196452  1
  S2-  S154  1  0.66207113  0.41532226  0.14879107  1
  S2-  S155  1  0.63860368  0.37519144  0.63726463  1
  S2-  S156  1  0.72290908  0.66106002  0.17044765  1
  S2-  S157  1  0.78350728  0.74171705  0.63393370  1
  S2-  S158  1  0.86019473  0.86358268  0.14326160  1
  S2-  S159  1  0.77853394  0.98031291  0.63808067  1
  S2-  S160  1  0.06090627  0.02014841  0.34657202  1
  S2-  S161  1  0.10452867  -0.10014998  0.85637893  1
  S2-  S162  1  0.09489516  0.27363823  0.33738933  1
  S2-  S163  1  0.10975384  0.23220826  0.83784984  1
  S2-  S164  1  0.12918689  0.50212969  0.33911003  1
  S2-  S165  1  0.18275927  0.46494215  0.83523466  1
  S2-  S166  1  0.04220245  0.74485184  0.35042715  1
  S2-  S167  1  0.12968519  0.67932368  0.82626774  1
  S2-  S168  1  0.32453608  -0.00655364  0.35214859  1
  S2-  S169  1  0.27579653  0.02584124  0.86108722  1
  S2-  S170  1  0.30322763  0.22855285  0.33080125  1
  S2-  S171  1  0.37143816  0.25714007  0.85491074  1
  S2-  S172  1  0.39236615  0.43665036  0.34860061  1
  S2-  S173  1  0.40303771  0.52118742  0.84750051  1
  S2-  S174  1  0.44452055  0.77334919  0.34836981  1
  S2-  S175  1  0.34090538  0.75197682  0.83688358  1
  S2-  S176  1  0.63420110  -0.10572108  0.35391569  1
  S2-  S177  1  0.66378026  -0.03727252  0.83786989  1
  S2-  S178  1  0.52347242  0.24050246  0.34813257  1
  S2-  S179  1  0.61489634  0.15600043  0.85104447  1
  S2-  S180  1  0.65657830  0.39695473  0.35216525  1
  S2-  S181  1  0.60918013  0.39658733  0.86187207  1
  S2-  S182  1  0.62542163  0.62428942  0.35186664  1
  S2-  S183  1  0.57922394  0.74935006  0.85348054  1
  S2-  S184  1  0.87939330  -0.09778302  0.34516272  1
  S2-  S185  1  0.87915857  0.09506387  0.85420241  1
  S2-  S186  1  0.88942468  0.15923940  0.36118549  1
  S2-  S187  1  0.82862574  0.31383999  0.84029624  1
  S2-  S188  1  0.89060000  0.51490592  0.35462839  1
  S2-  S189  1  0.97259986  0.48853864  0.86081205  1
  S2-  S190  1  0.80903093  0.71513167  0.31876597  1
  S2-  S191  1  0.89345506  0.80391248  0.85130303  1
  S2-  S192  1  0.02701792  0.13106999  0.45486821  1
  S2-  S193  1  0.00876242  0.12473721  0.95490392  1
  S2-  S194  1  0.01756183  0.37459879  0.45905065  1
  S2-  S195  1  0.00150514  0.37406794  0.95951573  1
  S2-  S196  1  0.01667416  0.62608738  0.45372200  1
  S2-  S197  1  -0.00280122  0.63414652  0.95194395  1
  S2-  S198  1  0.02408678  0.88122732  0.44717803  1
  S2-  S199  1  -0.00414516  0.88107068  0.96040876  1
  S2-  S200  1  0.27102386  0.13067105  0.45137292  1
  S2-  S201  1  0.25510852  0.13559989  0.96271412  1
  S2-  S202  1  0.26914440  0.37668342  0.45381987  1
  S2-  S203  1  0.25405080  0.38421449  0.95846189  1
  S2-  S204  1  0.26615350  0.62707242  0.43615178  1
  S2-  S205  1  0.25341722  0.62986649  0.94483405  1
  S2-  S206  1  0.26427434  0.87634128  0.45930945  1
  S2-  S207  1  0.25665685  0.87331347  0.95851133  1
  S2-  S208  1  0.52033819  0.12078603  0.44770607  1
  S2-  S209  1  0.49620837  0.13183836  0.95786210  1
  S2-  S210  1  0.51834744  0.38174835  0.45441300  1
  S2-  S211  1  0.49559698  0.38338925  0.96399051  1
  S2-  S212  1  0.51366051  0.62870988  0.45482883  1
  S2-  S213  1  0.50193517  0.62822921  0.95620707  1
  S2-  S214  1  0.51692969  0.87984028  0.45696138  1
  S2-  S215  1  0.50361721  0.88296295  0.95257882  1
  S2-  S216  1  0.76338959  0.12594563  0.45787491  1
  S2-  S217  1  0.75199640  0.12848128  0.95201343  1
  S2-  S218  1  0.77270858  0.37598510  0.45850576  1
  S2-  S219  1  0.75544230  0.37987732  0.95873550  1
  S2-  S220  1  0.77356459  0.63251800  0.45143631  1
  S2-  S221  1  0.75138257  0.62777459  0.95985123  1
  S2-  S222  1  0.76941520  0.87789111  0.45133402  1
  S2-  S223  1  0.74969392  0.88462306  0.95650170  1
  S2-  S224  1  0.12814626  -0.00112318  0.04593401  1
  S2-  S225  1  0.14546023  0.00298516  0.54027179  1
  S2-  S226  1  0.13267443  0.25266640  0.04533474  1
  S2-  S227  1  0.14506398  0.25017517  0.54160165  1
  S2-  S228  1  0.12848137  0.50715161  0.03515566  1
  S2-  S229  1  0.14737259  0.50466950  0.54865221  1
  S2-  S230  1  0.12207632  0.75201062  0.03441861  1
  S2-  S231  1  0.14494455  0.74512797  0.54123962  1
  S2-  S232  1  0.37502989  0.00186959  0.05238184  1
  S2-  S233  1  0.38986168  -0.00502737  0.54902488  1
  S2-  S234  1  0.37318148  0.25713489  0.05666942  1
  S2-  S235  1  0.39646170  0.24734920  0.53587437  1
  S2-  S236  1  0.37734898  0.50305912  0.05457823  1
  S2-  S237  1  0.38418726  0.50937130  0.54386964  1
  S2-  S238  1  0.37985580  0.75358407  0.04359324  1
  S2-  S239  1  0.38674994  0.74949269  0.55323763  1
  S2-  S240  1  0.62610841  0.00411326  0.04103869  1
  S2-  S241  1  0.64028666  -0.00369110  0.53885224  1
  S2-  S242  1  0.62207784  0.25192301  0.04114129  1
  S2-  S243  1  0.64415875  0.25058403  0.53499998  1
  S2-  S244  1  0.62168178  0.50533665  0.04600348  1
  S2-  S245  1  0.64466313  0.50697830  0.53962528  1
  S2-  S246  1  0.62701327  0.75283167  0.05407824  1
  S2-  S247  1  0.63788930  0.74863174  0.53666493  1
  S2-  S248  1  0.87843710  0.00684060  0.04315575  1
  S2-  S249  1  0.90081986  0.00060604  0.53638568  1
  S2-  S250  1  0.87958330  0.24543428  0.03615646  1
  S2-  S251  1  0.89118444  0.25022859  0.55351553  1
  S2-  S252  1  0.87796119  0.49684219  0.05528350  1
  S2-  S253  1  0.89132850  0.50108570  0.55846026  1
  S2-  S254  1  0.87335382  0.74881655  0.04775665  1
  S2-  S255  1  0.90008693  0.75134926  0.53505134  1
