# generated using pymatgen
data_La9Ce10Pr6Nd4Sm3(BiS2)32
_symmetry_space_group_name_H-M   'P 1'
_cell_length_a   16.25635007
_cell_length_b   16.23529770
_cell_length_c   27.09859654
_cell_angle_alpha   90.06113563
_cell_angle_beta   89.97706957
_cell_angle_gamma   90.00990988
_symmetry_Int_Tables_number   1
_chemical_formula_structural   La9Ce10Pr6Nd4Sm3(BiS2)32
_chemical_formula_sum   'La18 Ce20 Pr12 Nd8 Sm6 Bi64 S128'
_cell_volume   7152.03794318
_cell_formula_units_Z   2
loop_
 _symmetry_equiv_pos_site_id
 _symmetry_equiv_pos_as_xyz
  1  'x, y, z'
loop_
 _atom_type_symbol
 _atom_type_oxidation_number
  La3+  3.0
  Ce3+  3.0
  Pr3+  3.0
  Nd3+  3.0
  Sm3+  3.0
  Bi2+  2.0
  S2-  -2.0
loop_
 _atom_site_type_symbol
 _atom_site_label
 _atom_site_symmetry_multiplicity
 _atom_site_fract_x
 _atom_site_fract_y
 _atom_site_fract_z
 _atom_site_occupancy
  La3+  La0  1  0.25667456  0.88716864  0.58999905  1
  La3+  La1  1  0.00109921  0.87912804  0.06246780  1
  La3+  La2  1  0.13663812  -0.00701969  0.41851859  1
  La3+  La3  1  0.61957229  0.74862059  0.93732585  1
  La3+  La4  1  0.12539893  0.01271825  0.93324107  1
  La3+  La5  1  -0.01084727  0.13067053  0.06707397  1
  La3+  La6  1  0.88282570  0.51193949  0.40299040  1
  La3+  La7  1  0.50221694  0.37631119  0.55769670  1
  La3+  La8  1  0.86891258  0.24215190  0.42020750  1
  La3+  La9  1  0.74624507  0.37496809  0.06841341  1
  La3+  La10  1  0.24238778  0.12508770  0.10336011  1
  La3+  La11  1  0.87455741  0.00241320  0.44547711  1
  La3+  La12  1  0.86220241  0.25477444  0.92618306  1
  La3+  La13  1  0.62760186  0.76138337  0.43362959  1
  La3+  La14  1  0.37171164  0.00263578  0.94216687  1
  La3+  La15  1  0.73818224  0.63650157  0.09733306  1
  La3+  La16  1  -0.00340935  0.62918252  0.05998701  1
  La3+  La17  1  0.37212771  0.50047962  0.93290632  1
  Ce3+  Ce18  1  0.24785789  0.37450906  0.06345891  1
  Ce3+  Ce19  1  0.12798853  0.50349210  0.43434215  1
  Ce3+  Ce20  1  0.62859617  -0.00052505  0.45651834  1
  Ce3+  Ce21  1  -0.00361964  0.37748987  0.05543966  1
  Ce3+  Ce22  1  0.37779508  0.50410392  0.44050043  1
  Ce3+  Ce23  1  0.49573388  0.37759938  0.05964233  1
  Ce3+  Ce24  1  0.00603284  0.88046627  0.55910626  1
  Ce3+  Ce25  1  0.62736204  0.50686535  0.43800322  1
  Ce3+  Ce26  1  0.62719472  0.25060573  0.43351311  1
  Ce3+  Ce27  1  0.75716361  0.37768927  0.54557969  1
  Ce3+  Ce28  1  0.37746856  0.24868457  0.43899760  1
  Ce3+  Ce29  1  0.00337550  0.12740777  0.55666120  1
  Ce3+  Ce30  1  0.11898449  0.24989267  0.94163386  1
  Ce3+  Ce31  1  0.24795903  0.62480770  0.05361801  1
  Ce3+  Ce32  1  0.25092924  0.12222039  0.55114145  1
  Ce3+  Ce33  1  0.75498858  0.62677228  0.55830982  1
  Ce3+  Ce34  1  0.87730332  0.75007462  0.43930166  1
  Ce3+  Ce35  1  0.50297323  0.12635637  0.55639464  1
  Ce3+  Ce36  1  -0.00008902  0.37629517  0.54669489  1
  Ce3+  Ce37  1  0.49755286  0.87676732  0.06192360  1
  Pr3+  Pr38  1  0.74384478  0.12447467  0.06171844  1
  Pr3+  Pr39  1  0.50298226  0.62791817  0.56059395  1
  Pr3+  Pr40  1  0.87026836  0.50385209  0.94443978  1
  Pr3+  Pr41  1  0.87361268  0.75140852  0.93483173  1
  Pr3+  Pr42  1  0.49181555  0.62603967  0.06891874  1
  Pr3+  Pr43  1  0.38062657  -0.00977505  0.43251662  1
  Pr3+  Pr44  1  0.24852351  0.87395186  0.06218186  1
  Pr3+  Pr45  1  0.13047292  0.75393025  0.44638595  1
  Pr3+  Pr46  1  0.75414211  0.13950046  0.57734425  1
  Pr3+  Pr47  1  0.87047691  -0.00128896  0.93554726  1
  Pr3+  Pr48  1  0.25080947  0.61811127  0.57378955  1
  Pr3+  Pr49  1  0.12115945  0.24955591  0.42736628  1
  Nd3+  Nd50  1  0.36952773  0.75351487  0.93800371  1
  Nd3+  Nd51  1  0.12264842  0.49992549  0.94020695  1
  Nd3+  Nd52  1  0.50287169  0.87855832  0.57284502  1
  Nd3+  Nd53  1  0.00414525  0.62683551  0.55849929  1
  Nd3+  Nd54  1  0.49716868  0.12741318  0.06400012  1
  Nd3+  Nd55  1  0.61815443  0.25209767  0.93089281  1
  Nd3+  Nd56  1  0.24775832  0.37494071  0.55132299  1
  Nd3+  Nd57  1  0.75644755  0.86771549  0.57583646  1
  Sm3+  Sm58  1  0.37487503  0.75323986  0.45299023  1
  Sm3+  Sm59  1  0.37478259  0.25133168  0.94154245  1
  Sm3+  Sm60  1  0.62240125  0.50526782  0.95090489  1
  Sm3+  Sm61  1  0.12186836  0.75524576  0.93402316  1
  Sm3+  Sm62  1  0.62199315  -0.00000400  0.93471585  1
  Sm3+  Sm63  1  0.74441931  0.87575906  0.05743699  1
  Bi2+  Bi64  1  -0.03778828  0.13077216  0.27780392  1
  Bi2+  Bi65  1  0.01736143  0.09677001  0.80199924  1
  Bi2+  Bi66  1  0.05963517  0.37534231  0.28369707  1
  Bi2+  Bi67  1  -0.00238476  0.36871271  0.78905674  1
  Bi2+  Bi68  1  0.07653341  0.63419090  0.27854535  1
  Bi2+  Bi69  1  -0.02239680  0.56782119  0.80602739  1
  Bi2+  Bi70  1  0.00409452  0.81315636  0.29431077  1
  Bi2+  Bi71  1  -0.01574192  0.76344039  0.79779232  1
  Bi2+  Bi72  1  0.24340609  0.13599327  0.29852531  1
  Bi2+  Bi73  1  0.22495801  0.13991762  0.77012490  1
  Bi2+  Bi74  1  0.28451150  0.45645954  0.27274190  1
  Bi2+  Bi75  1  0.20446185  0.36064431  0.80201917  1
  Bi2+  Bi76  1  0.26539471  0.65211038  0.30204636  1
  Bi2+  Bi77  1  0.25716450  0.55075752  0.76370655  1
  Bi2+  Bi78  1  0.27624261  0.84997815  0.29403550  1
  Bi2+  Bi79  1  0.22989342  0.87737582  0.80132249  1
  Bi2+  Bi80  1  0.52679899  0.15207240  0.30731419  1
  Bi2+  Bi81  1  0.50461647  0.14813366  0.78143004  1
  Bi2+  Bi82  1  0.52440020  0.35579820  0.28622589  1
  Bi2+  Bi83  1  0.49329518  0.39861516  0.79815838  1
  Bi2+  Bi84  1  0.47992023  0.64087972  0.28167550  1
  Bi2+  Bi85  1  0.56096352  0.62801005  0.80511181  1
  Bi2+  Bi86  1  0.52416356  0.88550911  0.29590589  1
  Bi2+  Bi87  1  0.47178532  0.88951517  0.81067868  1
  Bi2+  Bi88  1  0.71928028  0.10351997  0.29402575  1
  Bi2+  Bi89  1  0.75824456  0.12452522  0.78632051  1
  Bi2+  Bi90  1  0.71592179  0.36312237  0.27479505  1
  Bi2+  Bi91  1  0.70416067  0.35364793  0.76801787  1
  Bi2+  Bi92  1  0.73157919  0.60560985  0.29746349  1
  Bi2+  Bi93  1  0.78579014  0.60856179  0.79527922  1
  Bi2+  Bi94  1  0.73879308  0.87326949  0.27960287  1
  Bi2+  Bi95  1  0.72753150  0.86566815  0.77285246  1
  Bi2+  Bi96  1  0.10277463  -0.01271204  0.21660606  1
  Bi2+  Bi97  1  0.10706134  -0.00429777  0.69339463  1
  Bi2+  Bi98  1  0.12941152  0.26264376  0.20567680  1
  Bi2+  Bi99  1  0.12000646  0.26474059  0.70866073  1
  Bi2+  Bi100  1  0.14925267  0.47629689  0.19336694  1
  Bi2+  Bi101  1  0.11888221  0.46151112  0.69624108  1
  Bi2+  Bi102  1  0.10156790  0.76372731  0.19177544  1
  Bi2+  Bi103  1  0.11502719  0.72274105  0.70913192  1
  Bi2+  Bi104  1  0.46314911  0.02190718  0.22883332  1
  Bi2+  Bi105  1  0.38042805  0.01784854  0.70901063  1
  Bi2+  Bi106  1  0.40368097  0.26337008  0.21258464  1
  Bi2+  Bi107  1  0.35962779  0.27650630  0.75160007  1
  Bi2+  Bi108  1  0.33405910  0.52145294  0.16465207  1
  Bi2+  Bi109  1  0.40591384  0.47381874  0.70270402  1
  Bi2+  Bi110  1  0.36485703  0.73221011  0.21116624  1
  Bi2+  Bi111  1  0.43510949  0.73362321  0.73752053  1
  Bi2+  Bi112  1  0.62311602  0.02511499  0.15832934  1
  Bi2+  Bi113  1  0.58124552  -0.01648840  0.73793333  1
  Bi2+  Bi114  1  0.61886719  0.20845183  0.20682359  1
  Bi2+  Bi115  1  0.61243696  0.22912507  0.69188821  1
  Bi2+  Bi116  1  0.51745163  0.50301548  0.20226158  1
  Bi2+  Bi117  1  0.64764017  0.52751797  0.71632466  1
  Bi2+  Bi118  1  0.60773281  0.83128077  0.19684800  1
  Bi2+  Bi119  1  0.62126536  0.73138256  0.71239621  1
  Bi2+  Bi120  1  0.80232303  0.00798434  0.20713304  1
  Bi2+  Bi121  1  0.91077391  -0.02323122  0.70954398  1
  Bi2+  Bi122  1  0.86543618  0.26009311  0.20960806  1
  Bi2+  Bi123  1  0.86645178  0.30246223  0.71167196  1
  Bi2+  Bi124  1  0.89929612  0.49744369  0.20697747  1
  Bi2+  Bi125  1  0.83528460  0.49617184  0.70075987  1
  Bi2+  Bi126  1  0.87838771  0.76487367  0.21409748  1
  Bi2+  Bi127  1  0.88394442  0.68793762  0.70527708  1
  S2-  S128  1  0.07665374  0.12460643  0.15487507  1
  S2-  S129  1  -0.01577269  0.11007690  0.65460698  1
  S2-  S130  1  -0.02669444  0.35859153  0.15281538  1
  S2-  S131  1  0.00484967  0.35054016  0.64416777  1
  S2-  S132  1  -0.02665983  0.63554513  0.16027701  1
  S2-  S133  1  0.02633424  0.60176911  0.65712293  1
  S2-  S134  1  -0.02581495  0.88938994  0.16253976  1
  S2-  S135  1  -0.00197339  0.85995140  0.65726461  1
  S2-  S136  1  0.23948969  0.07358705  0.20779847  1
  S2-  S137  1  0.24540376  0.05095814  0.64120550  1
  S2-  S138  1  0.26236841  0.28498721  0.14982073  1
  S2-  S139  1  0.26005533  0.44668276  0.64136785  1
  S2-  S140  1  0.22923930  0.68411154  0.14418179  1
  S2-  S141  1  0.24723910  0.65667045  0.67387982  1
  S2-  S142  1  0.19373611  0.89584803  0.15780439  1
  S2-  S143  1  0.20499172  0.85882425  0.69212666  1
  S2-  S144  1  0.40796994  0.12678554  0.15031846  1
  S2-  S145  1  0.47517871  0.13102171  0.65252956  1
  S2-  S146  1  0.52472899  0.33477853  0.15262502  1
  S2-  S147  1  0.51408472  0.37100012  0.65798988  1
  S2-  S148  1  0.58340559  0.63594569  0.15446384  1
  S2-  S149  1  0.46414138  0.61915577  0.65921716  1
  S2-  S150  1  0.44304782  0.85424849  0.15422155  1
  S2-  S151  1  0.40438300  0.88489946  0.65421931  1
  S2-  S152  1  0.85492458  0.14074057  0.14114512  1
  S2-  S153  1  0.72972280  0.11842518  0.67983031  1
  S2-  S154  1  0.75860358  0.37788570  0.16950054  1
  S2-  S155  1  0.75741710  0.30245188  0.63280993  1
  S2-  S156  1  0.77514888  0.58983059  0.19420290  1
  S2-  S157  1  0.75259981  0.71978933  0.64109974  1
  S2-  S158  1  0.75907006  0.79296584  0.14425033  1
  S2-  S159  1  0.77589761  0.91823918  0.67316507  1
  S2-  S160  1  0.08898735  0.07355919  0.32927707  1
  S2-  S161  1  0.10131836  -0.04961485  0.83815283  1
  S2-  S162  1  0.17401653  0.28949564  0.33312990  1
  S2-  S163  1  0.14969841  0.15372683  0.86178200  1
  S2-  S164  1  0.04188662  0.51686877  0.34949370  1
  S2-  S165  1  0.14505025  0.51676892  0.84179166  1
  S2-  S166  1  0.13964812  0.84127239  0.35783626  1
  S2-  S167  1  0.15434826  0.74712860  0.83608992  1
  S2-  S168  1  0.28035663  -0.00217662  0.34898383  1
  S2-  S169  1  0.34489586  -0.00302257  0.84160651  1
  S2-  S170  1  0.37784017  0.22255565  0.34181050  1
  S2-  S171  1  0.48502561  0.25372798  0.86287829  1
  S2-  S172  1  0.39169352  0.52192961  0.34348764  1
  S2-  S173  1  0.38448852  0.52110714  0.83279911  1
  S2-  S174  1  0.40023998  0.83289327  0.36625938  1
  S2-  S175  1  0.36850116  0.76231293  0.83744076  1
  S2-  S176  1  0.64238439  -0.08290274  0.36945686  1
  S2-  S177  1  0.63072842  0.04775301  0.83968235  1
  S2-  S178  1  0.72832464  0.24821273  0.35352668  1
  S2-  S179  1  0.73248339  0.25457814  0.85354184  1
  S2-  S180  1  0.63015537  0.47686626  0.34037283  1
  S2-  S181  1  0.61548081  0.48741092  0.85286762  1
  S2-  S182  1  0.61276547  0.68952467  0.34078074  1
  S2-  S183  1  0.61968374  0.80939082  0.84321327  1
  S2-  S184  1  0.86068447  0.07599322  0.35503969  1
  S2-  S185  1  0.86483979  0.03658034  0.83556611  1
  S2-  S186  1  0.95793868  0.26935815  0.33425485  1
  S2-  S187  1  0.96206579  0.23077477  0.84418502  1
  S2-  S188  1  0.84410194  0.46568117  0.30408634  1
  S2-  S189  1  0.87007627  0.45143762  0.84846576  1
  S2-  S190  1  0.85773374  0.66816512  0.35264306  1
  S2-  S191  1  0.84927632  0.82681682  0.84486558  1
  S2-  S192  1  0.00518003  0.12243027  0.44978604  1
  S2-  S193  1  -0.00926474  0.12613360  0.95770240  1
  S2-  S194  1  -0.00026131  0.37954562  0.44276452  1
  S2-  S195  1  -0.00273425  0.37849221  0.95009754  1
  S2-  S196  1  0.00395561  0.63026165  0.45236046  1
  S2-  S197  1  0.00072715  0.62777509  0.94978492  1
  S2-  S198  1  -0.00006177  0.87629770  0.45210278  1
  S2-  S199  1  -0.00083215  0.87704630  0.95249383  1
  S2-  S200  1  0.25176623  0.12746588  0.44736959  1
  S2-  S201  1  0.25646917  0.13265835  0.95835041  1
  S2-  S202  1  0.25318835  0.37740208  0.44526023  1
  S2-  S203  1  0.24888384  0.37356123  0.95238063  1
  S2-  S204  1  0.25358185  0.62807788  0.45806136  1
  S2-  S205  1  0.24556705  0.62816925  0.94607678  1
  S2-  S206  1  0.25586367  0.87535119  0.46695486  1
  S2-  S207  1  0.24439968  0.87547880  0.95276562  1
  S2-  S208  1  0.50285234  0.12205312  0.44977141  1
  S2-  S209  1  0.49988653  0.12250732  0.95606590  1
  S2-  S210  1  0.50207629  0.37662392  0.44829114  1
  S2-  S211  1  0.49907884  0.38112585  0.95569764  1
  S2-  S212  1  0.50026192  0.63155845  0.45308299  1
  S2-  S213  1  0.49400201  0.62593389  0.95585559  1
  S2-  S214  1  0.50309489  0.87610484  0.46821649  1
  S2-  S215  1  0.49652288  0.87685136  0.95313220  1
  S2-  S216  1  0.74509104  0.12462920  0.46439897  1
  S2-  S217  1  0.74282482  0.12112405  0.95440866  1
  S2-  S218  1  0.75667626  0.38674626  0.44283250  1
  S2-  S219  1  0.74103384  0.38236751  0.95893940  1
  S2-  S220  1  0.75080027  0.62755317  0.45419246  1
  S2-  S221  1  0.74609741  0.62731016  0.94748951  1
  S2-  S222  1  0.75734021  0.87385721  0.46693753  1
  S2-  S223  1  0.74360928  0.87744539  0.95276551  1
  S2-  S224  1  0.12601711  0.00595899  0.04731053  1
  S2-  S225  1  0.12570473  0.00175039  0.54011551  1
  S2-  S226  1  0.12183289  0.25369188  0.04860884  1
  S2-  S227  1  0.12739745  0.25049178  0.53913613  1
  S2-  S228  1  0.12201221  0.50099917  0.04708866  1
  S2-  S229  1  0.12604202  0.50116835  0.54090605  1
  S2-  S230  1  0.12155200  0.75219153  0.04027917  1
  S2-  S231  1  0.13160808  0.75196720  0.55461306  1
  S2-  S232  1  0.37005585  0.00137098  0.05109200  1
  S2-  S233  1  0.38089619  0.00331941  0.54245350  1
  S2-  S234  1  0.37601920  0.25286575  0.04416318  1
  S2-  S235  1  0.37377172  0.25160472  0.54737609  1
  S2-  S236  1  0.37193975  0.49992170  0.04199375  1
  S2-  S237  1  0.37743766  0.50208154  0.54480816  1
  S2-  S238  1  0.37222007  0.75000278  0.04435961  1
  S2-  S239  1  0.37395265  0.75006509  0.55669497  1
  S2-  S240  1  0.62085580  -0.00178643  0.04035502  1
  S2-  S241  1  0.63097891  0.00089737  0.56324949  1
  S2-  S242  1  0.62114034  0.24991730  0.04386579  1
  S2-  S243  1  0.62550767  0.25199275  0.54015298  1
  S2-  S244  1  0.62317992  0.50493082  0.05537807  1
  S2-  S245  1  0.62892873  0.50286199  0.54841607  1
  S2-  S246  1  0.62027779  0.75143573  0.04536479  1
  S2-  S247  1  0.62312198  0.75440800  0.54744275  1
  S2-  S248  1  0.86744980  -0.00413144  0.04495173  1
  S2-  S249  1  0.87402127  0.00370395  0.55395943  1
  S2-  S250  1  0.86820761  0.25692406  0.03819016  1
  S2-  S251  1  0.87942605  0.24978370  0.53409471  1
  S2-  S252  1  0.86625534  0.50845498  0.05323415  1
  S2-  S253  1  0.87905202  0.50366555  0.54846928  1
  S2-  S254  1  0.87077603  0.75273153  0.04296336  1
  S2-  S255  1  0.88369708  0.75170789  0.54568662  1
