# generated using pymatgen
data_La9Ce10Pr6Nd4Sm3(BiS2)32
_symmetry_space_group_name_H-M   'P 1'
_cell_length_a   16.17230386
_cell_length_b   16.18928098
_cell_length_c   27.19187729
_cell_angle_alpha   90.28055011
_cell_angle_beta   89.99094886
_cell_angle_gamma   90.12564464
_symmetry_Int_Tables_number   1
_chemical_formula_structural   La9Ce10Pr6Nd4Sm3(BiS2)32
_chemical_formula_sum   'La18 Ce20 Pr12 Nd8 Sm6 Bi64 S128'
_cell_volume   7119.21960317
_cell_formula_units_Z   2
loop_
 _symmetry_equiv_pos_site_id
 _symmetry_equiv_pos_as_xyz
  1  'x, y, z'
loop_
 _atom_type_symbol
 _atom_type_oxidation_number
  La3+  3.0
  Ce3+  3.0
  Pr3+  3.0
  Nd3+  3.0
  Sm3+  3.0
  Bi2+  2.0
  S2-  -2.0
loop_
 _atom_site_type_symbol
 _atom_site_label
 _atom_site_symmetry_multiplicity
 _atom_site_fract_x
 _atom_site_fract_y
 _atom_site_fract_z
 _atom_site_occupancy
  La3+  La0  1  0.75132045  0.38690252  0.56139251  1
  La3+  La1  1  0.87437884  0.49471532  0.39248226  1
  La3+  La2  1  0.00220064  0.38549207  0.07344019  1
  La3+  La3  1  0.88524113  0.75821230  0.42372059  1
  La3+  La4  1  0.37732812  0.25979856  0.93293911  1
  La3+  La5  1  0.62723964  0.50851187  0.94163790  1
  La3+  La6  1  0.49392046  0.89037661  0.06464932  1
  La3+  La7  1  0.25293340  0.88502067  0.56278544  1
  La3+  La8  1  0.50712752  0.88639882  0.56914911  1
  La3+  La9  1  0.37638745  0.49857257  0.42993315  1
  La3+  La10  1  0.23969340  0.90217253  0.07002917  1
  La3+  La11  1  0.88229987  0.00790733  0.42356740  1
  La3+  La12  1  0.24818894  0.14019306  0.59812129  1
  La3+  La13  1  0.87915750  0.00401446  0.92507733  1
  La3+  La14  1  0.48948222  0.63755001  0.08363819  1
  La3+  La15  1  0.62825534  0.26182197  0.43510348  1
  La3+  La16  1  0.25314848  0.62994814  0.56924121  1
  La3+  La17  1  0.75365419  0.38969210  0.08918899  1
  Ce3+  Ce18  1  0.12450868  0.50642630  0.93908409  1
  Ce3+  Ce19  1  0.74734621  0.88282401  0.05527404  1
  Ce3+  Ce20  1  0.62909338  0.26145364  0.95432965  1
  Ce3+  Ce21  1  0.50730015  0.63471585  0.55466246  1
  Ce3+  Ce22  1  0.38223213  0.50633676  0.93292319  1
  Ce3+  Ce23  1  0.75293445  0.63493774  0.54832416  1
  Ce3+  Ce24  1  0.75684240  0.13144232  0.56045247  1
  Ce3+  Ce25  1  0.50298196  0.13153350  0.57391999  1
  Ce3+  Ce26  1  0.37880521  0.75926202  0.44353936  1
  Ce3+  Ce27  1  0.86276802  0.75559473  0.93283605  1
  Ce3+  Ce28  1  0.49714751  0.13078069  0.06143081  1
  Ce3+  Ce29  1  0.87799284  0.26001084  0.44348988  1
  Ce3+  Ce30  1  0.87194275  0.26374443  0.94761441  1
  Ce3+  Ce31  1  -0.00180878  0.63274320  0.55511782  1
  Ce3+  Ce32  1  0.25333351  0.63518152  0.05246128  1
  Ce3+  Ce33  1  0.37568090  0.25827481  0.45275614  1
  Ce3+  Ce34  1  0.37500665  0.76072147  0.94148810  1
  Ce3+  Ce35  1  0.37476458  0.01615490  0.92780572  1
  Ce3+  Ce36  1  0.00131460  0.88544388  0.55693687  1
  Ce3+  Ce37  1  0.12837904  0.75552379  0.44626457  1
  Pr3+  Pr38  1  0.11749035  0.26744369  0.92396469  1
  Pr3+  Pr39  1  0.62523505  0.01211432  0.42967473  1
  Pr3+  Pr40  1  0.24814841  0.38311845  0.06519804  1
  Pr3+  Pr41  1  0.12581397  0.25867969  0.44547778  1
  Pr3+  Pr42  1  0.62743152  0.51245244  0.42502895  1
  Pr3+  Pr43  1  0.13062496  -0.00343510  0.91421388  1
  Pr3+  Pr44  1  0.24831249  0.38575571  0.57342675  1
  Pr3+  Pr45  1  0.62242411  0.76247276  0.42362128  1
  Pr3+  Pr46  1  -0.00164804  0.63746048  0.05800197  1
  Pr3+  Pr47  1  0.74979174  0.13205323  0.06520884  1
  Pr3+  Pr48  1  0.49831248  0.38503919  0.07008344  1
  Pr3+  Pr49  1  0.61099470  0.76191791  0.93173410  1
  Nd3+  Nd50  1  -0.00296814  0.88643978  0.05683507  1
  Nd3+  Nd51  1  0.50301210  0.38690085  0.56512480  1
  Nd3+  Nd52  1  0.62804130  0.00961823  0.92923145  1
  Nd3+  Nd53  1  0.74052146  0.64390460  0.07547399  1
  Nd3+  Nd54  1  0.12970445  0.01218783  0.44430128  1
  Nd3+  Nd55  1  0.12476785  0.50512786  0.43538203  1
  Nd3+  Nd56  1  0.75405188  0.88512416  0.55355079  1
  Nd3+  Nd57  1  0.87002557  0.50951039  0.94448332  1
  Sm3+  Sm58  1  0.12545908  0.75884903  0.94153222  1
  Sm3+  Sm59  1  -0.00131588  0.13191252  0.56725467  1
  Sm3+  Sm60  1  -0.00004116  0.13353908  0.05084854  1
  Sm3+  Sm61  1  0.37808688  0.01203497  0.44680052  1
  Sm3+  Sm62  1  0.00265796  0.38571832  0.55933068  1
  Sm3+  Sm63  1  0.24323301  0.13733902  0.04384456  1
  Bi2+  Bi64  1  -0.04889239  0.09588025  0.30336599  1
  Bi2+  Bi65  1  -0.01478681  0.16626726  0.78718197  1
  Bi2+  Bi66  1  0.01000866  0.34976835  0.28900489  1
  Bi2+  Bi67  1  -0.02834554  0.36875623  0.75593661  1
  Bi2+  Bi68  1  0.02282657  0.63623385  0.28876008  1
  Bi2+  Bi69  1  -0.00146711  0.57439093  0.80213315  1
  Bi2+  Bi70  1  0.01578777  0.89677693  0.29769380  1
  Bi2+  Bi71  1  0.00676275  0.89690576  0.78536995  1
  Bi2+  Bi72  1  0.30098030  0.14394242  0.27511166  1
  Bi2+  Bi73  1  0.23207746  0.08057993  0.77342799  1
  Bi2+  Bi74  1  0.24438520  0.40452232  0.30930996  1
  Bi2+  Bi75  1  0.24082668  0.43091611  0.78980522  1
  Bi2+  Bi76  1  0.22131049  0.65907789  0.27975863  1
  Bi2+  Bi77  1  0.27359637  0.62605627  0.79639042  1
  Bi2+  Bi78  1  0.21098030  0.84768028  0.25289976  1
  Bi2+  Bi79  1  0.27280833  0.82265370  0.79759364  1
  Bi2+  Bi80  1  0.49380440  0.12075770  0.29655237  1
  Bi2+  Bi81  1  0.53070600  0.11162029  0.78569207  1
  Bi2+  Bi82  1  0.47281781  0.39008251  0.29033047  1
  Bi2+  Bi83  1  0.50163004  0.38925716  0.79806020  1
  Bi2+  Bi84  1  0.50564671  0.66095254  0.28636112  1
  Bi2+  Bi85  1  0.46845217  0.62066750  0.78080512  1
  Bi2+  Bi86  1  0.48925551  0.92202011  0.29831275  1
  Bi2+  Bi87  1  0.48529186  0.83592951  0.77425599  1
  Bi2+  Bi88  1  0.75916825  0.10381469  0.28978216  1
  Bi2+  Bi89  1  0.73902961  0.15717868  0.79336431  1
  Bi2+  Bi90  1  0.72767212  0.33157375  0.28579378  1
  Bi2+  Bi91  1  0.75965303  0.36672751  0.80733005  1
  Bi2+  Bi92  1  0.75915298  0.67178334  0.27395260  1
  Bi2+  Bi93  1  0.72091837  0.60723303  0.78211820  1
  Bi2+  Bi94  1  0.75271256  0.90957399  0.27119084  1
  Bi2+  Bi95  1  0.73546809  0.86818996  0.80509041  1
  Bi2+  Bi96  1  0.11871934  0.05131293  0.20138769  1
  Bi2+  Bi97  1  0.11862184  -0.01883080  0.70765890  1
  Bi2+  Bi98  1  0.17161782  0.26335188  0.21973855  1
  Bi2+  Bi99  1  0.13145916  0.25809707  0.71712539  1
  Bi2+  Bi100  1  0.15180930  0.48713224  0.22281612  1
  Bi2+  Bi101  1  0.12303451  0.51337802  0.70680741  1
  Bi2+  Bi102  1  0.08844184  0.72581852  0.19309496  1
  Bi2+  Bi103  1  0.08071874  0.71628236  0.72678886  1
  Bi2+  Bi104  1  0.36690097  0.01193718  0.20397441  1
  Bi2+  Bi105  1  0.41516413  -0.02747028  0.70414133  1
  Bi2+  Bi106  1  0.36071032  0.29027776  0.19378546  1
  Bi2+  Bi107  1  0.37402831  0.20110044  0.75143542  1
  Bi2+  Bi108  1  0.34416914  0.49133884  0.20659092  1
  Bi2+  Bi109  1  0.38919088  0.47170309  0.71716907  1
  Bi2+  Bi110  1  0.37698405  0.74193245  0.21777390  1
  Bi2+  Bi111  1  0.26604988  0.73174712  0.69528425  1
  Bi2+  Bi112  1  0.64941859  0.05383154  0.19755036  1
  Bi2+  Bi113  1  0.66985451  0.00599108  0.71307662  1
  Bi2+  Bi114  1  0.54680255  0.23103905  0.20686771  1
  Bi2+  Bi115  1  0.63447339  0.20129186  0.69935751  1
  Bi2+  Bi116  1  0.62957131  0.50566050  0.20675189  1
  Bi2+  Bi117  1  0.63306968  0.49584268  0.69180696  1
  Bi2+  Bi118  1  0.62968534  0.78896672  0.21209683  1
  Bi2+  Bi119  1  0.62708344  0.73910624  0.68925345  1
  Bi2+  Bi120  1  0.94130409  -0.04406483  0.19703589  1
  Bi2+  Bi121  1  0.86094429  -0.02404908  0.70195182  1
  Bi2+  Bi122  1  0.91428495  0.22124881  0.21831388  1
  Bi2+  Bi123  1  0.83060013  0.24457450  0.70418605  1
  Bi2+  Bi124  1  0.89324118  0.49089853  0.21623055  1
  Bi2+  Bi125  1  0.87130085  0.52341999  0.71645145  1
  Bi2+  Bi126  1  0.88983546  0.76782110  0.20623974  1
  Bi2+  Bi127  1  0.88251699  0.70841077  0.75304662  1
  S2-  S128  1  0.02939301  0.16130137  0.14781023  1
  S2-  S129  1  0.09590391  0.12718520  0.65235890  1
  S2-  S130  1  -0.10267660  0.36385945  0.15579462  1
  S2-  S131  1  0.04361420  0.37751087  0.65552381  1
  S2-  S132  1  0.00279328  0.58786240  0.15527826  1
  S2-  S133  1  0.00842375  0.61523367  0.65226396  1
  S2-  S134  1  0.08995187  0.91687834  0.13900265  1
  S2-  S135  1  -0.01221024  0.89488164  0.65468760  1
  S2-  S136  1  0.24774281  0.06715254  0.13422318  1
  S2-  S137  1  0.39155222  0.12825962  0.65819339  1
  S2-  S138  1  0.13409764  0.37624374  0.14356513  1
  S2-  S139  1  0.25456149  0.28653865  0.65849618  1
  S2-  S140  1  0.32629136  0.62861250  0.14094029  1
  S2-  S141  1  0.26402504  0.51367335  0.64531289  1
  S2-  S142  1  0.30403655  0.86660904  0.16246835  1
  S2-  S143  1  0.26398584  0.91621006  0.66202454  1
  S2-  S144  1  0.49789124  0.02214728  0.13908130  1
  S2-  S145  1  0.54797379  0.00848708  0.64046417  1
  S2-  S146  1  0.49155394  0.48677428  0.15330644  1
  S2-  S147  1  0.51917146  0.38100729  0.66551533  1
  S2-  S148  1  0.61885774  0.64150115  0.15519688  1
  S2-  S149  1  0.52360692  0.61072334  0.65169755  1
  S2-  S150  1  0.49862231  0.79124059  0.14916216  1
  S2-  S151  1  0.48699864  0.81651420  0.66498909  1
  S2-  S152  1  0.79024059  0.12827786  0.16361009  1
  S2-  S153  1  0.86952746  0.11242192  0.63765467  1
  S2-  S154  1  0.67537414  0.34138187  0.18289943  1
  S2-  S155  1  0.76621209  0.39577315  0.66238113  1
  S2-  S156  1  0.77595856  0.53274725  0.15426837  1
  S2-  S157  1  0.73656453  0.62660122  0.64656390  1
  S2-  S158  1  0.75820056  0.79408706  0.13934408  1
  S2-  S159  1  0.74051570  0.86630976  0.65422467  1
  S2-  S160  1  0.09289988  0.03197916  0.34759146  1
  S2-  S161  1  -0.00076227  0.03215459  0.84730235  1
  S2-  S162  1  0.13398325  0.28520524  0.34543647  1
  S2-  S163  1  0.13471036  0.19570538  0.82867665  1
  S2-  S164  1  0.03383164  0.49358204  0.34859839  1
  S2-  S165  1  0.11917381  0.40908356  0.85875935  1
  S2-  S166  1  0.05837976  0.76228520  0.35755844  1
  S2-  S167  1  0.12198061  0.82912225  0.85154687  1
  S2-  S168  1  0.36318763  0.01916266  0.34765743  1
  S2-  S169  1  0.27362351  -0.02319869  0.84955616  1
  S2-  S170  1  0.37537002  0.33423279  0.36371993  1
  S2-  S171  1  0.40416813  0.14615848  0.85305169  1
  S2-  S172  1  0.42374317  0.54086192  0.33475571  1
  S2-  S173  1  0.36682128  0.37887531  0.85812389  1
  S2-  S174  1  0.43432255  0.78148932  0.35163548  1
  S2-  S175  1  0.47322747  0.73588613  0.85994362  1
  S2-  S176  1  0.62266252  -0.10714714  0.35108013  1
  S2-  S177  1  0.59330448  -0.09960399  0.84892358  1
  S2-  S178  1  0.62916212  0.14279308  0.35872658  1
  S2-  S179  1  0.62402828  0.31644125  0.86057833  1
  S2-  S180  1  0.61199460  0.37918572  0.35412474  1
  S2-  S181  1  0.51594983  0.52089041  0.86117734  1
  S2-  S182  1  0.63541155  0.63891503  0.34840193  1
  S2-  S183  1  0.72968360  0.72320082  0.85902946  1
  S2-  S184  1  0.86518661  -0.11538472  0.34902693  1
  S2-  S185  1  0.75417031  0.02498404  0.85355084  1
  S2-  S186  1  0.86620971  0.31828204  0.35104252  1
  S2-  S187  1  0.90396023  0.28833549  0.85128633  1
  S2-  S188  1  0.77854854  0.48246571  0.29956729  1
  S2-  S189  1  0.75933942  0.49978974  0.86446727  1
  S2-  S190  1  0.87324521  0.65110591  0.34213550  1
  S2-  S191  1  0.88704425  0.85842922  0.85430729  1
  S2-  S192  1  0.00147411  0.13414063  0.45793660  1
  S2-  S193  1  -0.00325069  0.14093547  0.94846913  1
  S2-  S194  1  -0.00044746  0.38504951  0.45474804  1
  S2-  S195  1  -0.00448851  0.38941442  0.96173620  1
  S2-  S196  1  0.00421175  0.62868241  0.45171774  1
  S2-  S197  1  -0.00147094  0.63554729  0.94904639  1
  S2-  S198  1  0.00787193  0.88608229  0.45362026  1
  S2-  S199  1  0.00228375  0.87860766  0.95390842  1
  S2-  S200  1  0.25293024  0.13500730  0.45120160  1
  S2-  S201  1  0.24253051  0.13864702  0.94186114  1
  S2-  S202  1  0.24779978  0.38390718  0.46389834  1
  S2-  S203  1  0.24770718  0.38428498  0.95923907  1
  S2-  S204  1  0.25256378  0.62978125  0.45248169  1
  S2-  S205  1  0.24964373  0.63338100  0.94523081  1
  S2-  S206  1  0.25306109  0.88570604  0.45276903  1
  S2-  S207  1  0.24915632  0.88039072  0.95775567  1
  S2-  S208  1  0.49877029  0.13524291  0.46138835  1
  S2-  S209  1  0.50775861  0.13498959  0.95666566  1
  S2-  S210  1  0.50378438  0.38475621  0.45993394  1
  S2-  S211  1  0.50144560  0.38061354  0.96439019  1
  S2-  S212  1  0.50011853  0.63361418  0.45005354  1
  S2-  S213  1  0.49439064  0.63424601  0.96842285  1
  S2-  S214  1  0.49803758  0.88813035  0.45971071  1
  S2-  S215  1  0.49171151  0.89280942  0.95528388  1
  S2-  S216  1  0.75942265  0.13379596  0.45379398  1
  S2-  S217  1  0.75156337  0.13699183  0.95739144  1
  S2-  S218  1  0.75631876  0.38970852  0.45273070  1
  S2-  S219  1  0.75185601  0.38361337  0.97198765  1
  S2-  S220  1  0.75908188  0.62982681  0.44572754  1
  S2-  S221  1  0.74775070  0.63337588  0.96801158  1
  S2-  S222  1  0.75241457  0.88409620  0.44941488  1
  S2-  S223  1  0.74517982  0.88318534  0.95337232  1
  S2-  S224  1  0.11880974  0.01559613  0.02772517  1
  S2-  S225  1  0.12846495  0.01169408  0.55018129  1
  S2-  S226  1  0.12239671  0.25805225  0.03715578  1
  S2-  S227  1  0.12300469  0.25719970  0.55068878  1
  S2-  S228  1  0.12664602  0.51436223  0.04529553  1
  S2-  S229  1  0.12413902  0.50905150  0.54329252  1
  S2-  S230  1  0.12598784  0.76027687  0.04597644  1
  S2-  S231  1  0.12713156  0.75720212  0.55339369  1
  S2-  S232  1  0.36967271  0.01716005  0.03452392  1
  S2-  S233  1  0.37294630  0.01308539  0.55084099  1
  S2-  S234  1  0.37220520  0.25663030  0.04660682  1
  S2-  S235  1  0.37857597  0.26179264  0.55604693  1
  S2-  S236  1  0.37091269  0.50402855  0.04202219  1
  S2-  S237  1  0.38167762  0.50881512  0.54266450  1
  S2-  S238  1  0.36575944  0.76738290  0.04513613  1
  S2-  S239  1  0.37720068  0.75661481  0.55027496  1
  S2-  S240  1  0.62801296  0.00960607  0.03956382  1
  S2-  S241  1  0.63482334  0.01196228  0.53702447  1
  S2-  S242  1  0.62322142  0.25693111  0.06033635  1
  S2-  S243  1  0.62771195  0.25762560  0.54921235  1
  S2-  S244  1  0.62448222  0.50652369  0.05205517  1
  S2-  S245  1  0.62724058  0.50931526  0.53853125  1
  S2-  S246  1  0.61902923  0.76558580  0.04096486  1
  S2-  S247  1  0.62903169  0.76083135  0.53783079  1
  S2-  S248  1  0.87527795  0.00921373  0.04359328  1
  S2-  S249  1  0.87954155  0.00566464  0.53508782  1
  S2-  S250  1  0.87560648  0.25558738  0.05214477  1
  S2-  S251  1  0.88042134  0.26223239  0.54900622  1
  S2-  S252  1  0.87711298  0.51196997  0.04841197  1
  S2-  S253  1  0.87894437  0.50737499  0.55311665  1
  S2-  S254  1  0.87714897  0.76158042  0.04120120  1
  S2-  S255  1  0.87782492  0.76065801  0.54158860  1
