# generated using pymatgen
data_La9Ce10Pr6Nd4Sm3(BiS2)32
_symmetry_space_group_name_H-M   'P 1'
_cell_length_a   16.14444074
_cell_length_b   16.15213033
_cell_length_c   27.20184758
_cell_angle_alpha   90.01222634
_cell_angle_beta   89.72642114
_cell_angle_gamma   89.84727600
_symmetry_Int_Tables_number   1
_chemical_formula_structural   La9Ce10Pr6Nd4Sm3(BiS2)32
_chemical_formula_sum   'La18 Ce20 Pr12 Nd8 Sm6 Bi64 S128'
_cell_volume   7093.24096678
_cell_formula_units_Z   2
loop_
 _symmetry_equiv_pos_site_id
 _symmetry_equiv_pos_as_xyz
  1  'x, y, z'
loop_
 _atom_type_symbol
 _atom_type_oxidation_number
  La3+  3.0
  Ce3+  3.0
  Pr3+  3.0
  Nd3+  3.0
  Sm3+  3.0
  Bi2+  2.0
  S2-  -2.0
loop_
 _atom_site_type_symbol
 _atom_site_label
 _atom_site_symmetry_multiplicity
 _atom_site_fract_x
 _atom_site_fract_y
 _atom_site_fract_z
 _atom_site_occupancy
  La3+  La0  1  0.00712347  0.63251170  0.55884907  1
  La3+  La1  1  0.12953023  0.75895235  0.41129808  1
  La3+  La2  1  0.88400672  0.01293190  0.45434723  1
  La3+  La3  1  0.00918316  0.14639735  0.58718610  1
  La3+  La4  1  -0.00896042  0.61863513  0.08070176  1
  La3+  La5  1  0.12447552  0.24389407  0.93009190  1
  La3+  La6  1  0.38105731  0.51916983  0.42829724  1
  La3+  La7  1  0.50719555  0.64177157  0.56526143  1
  La3+  La8  1  0.38408871  0.01336323  0.41970832  1
  La3+  La9  1  -0.01139484  0.12331432  0.06395160  1
  La3+  La10  1  0.87626046  0.25862793  0.43555655  1
  La3+  La11  1  0.87699793  0.23801699  0.90820789  1
  La3+  La12  1  0.74446684  0.14229555  0.58925310  1
  La3+  La13  1  -0.00157944  0.88045500  0.58160835  1
  La3+  La14  1  0.26010139  0.64233980  0.57038625  1
  La3+  La15  1  0.87909461  0.74698957  0.93373169  1
  La3+  La16  1  0.38379096  0.49995941  0.93135151  1
  La3+  La17  1  0.63471110  0.48945502  0.39384130  1
  Ce3+  Ce18  1  0.38166717  0.25917494  0.44331205  1
  Ce3+  Ce19  1  0.75557588  0.88310887  0.56122251  1
  Ce3+  Ce20  1  0.74921811  0.62290288  0.05567364  1
  Ce3+  Ce21  1  0.37388474  -0.00355326  0.94469680  1
  Ce3+  Ce22  1  -0.00303685  0.37208177  0.04569791  1
  Ce3+  Ce23  1  0.61992759  0.75072465  0.94702575  1
  Ce3+  Ce24  1  0.62352799  0.49446212  0.94741977  1
  Ce3+  Ce25  1  0.25102591  0.37381428  0.05966265  1
  Ce3+  Ce26  1  0.87986285  0.50757940  0.43665053  1
  Ce3+  Ce27  1  0.12643458  0.74830218  0.95250734  1
  Ce3+  Ce28  1  0.63143040  0.01023801  0.44713249  1
  Ce3+  Ce29  1  0.88307413  0.76214312  0.43477278  1
  Ce3+  Ce30  1  0.25607702  0.88337076  0.55223353  1
  Ce3+  Ce31  1  0.25373287  0.38954403  0.55761463  1
  Ce3+  Ce32  1  0.63627599  0.25249903  0.43671030  1
  Ce3+  Ce33  1  0.62268761  -0.00293710  0.94205361  1
  Ce3+  Ce34  1  0.50152924  0.88718113  0.55886394  1
  Ce3+  Ce35  1  0.25085251  0.62100238  0.06516060  1
  Ce3+  Ce36  1  0.62404241  0.25049436  0.93649762  1
  Ce3+  Ce37  1  0.75217624  0.87800134  0.06212361  1
  Pr3+  Pr38  1  0.50248340  0.38640742  0.55910424  1
  Pr3+  Pr39  1  0.49552142  0.37137759  0.08021614  1
  Pr3+  Pr40  1  0.25648876  0.13182411  0.56592700  1
  Pr3+  Pr41  1  0.12850534  0.25563205  0.43316151  1
  Pr3+  Pr42  1  0.38693139  0.76231902  0.42615628  1
  Pr3+  Pr43  1  0.75258668  0.38460032  0.56340867  1
  Pr3+  Pr44  1  0.49973906  0.61960972  0.07405168  1
  Pr3+  Pr45  1  0.13180377  0.50953732  0.43102035  1
  Pr3+  Pr46  1  0.12510716  0.50317005  0.94126106  1
  Pr3+  Pr47  1  0.75458202  0.63056791  0.54661849  1
  Pr3+  Pr48  1  0.24821903  0.86607111  0.08264219  1
  Pr3+  Pr49  1  0.49462433  0.86971880  0.07792108  1
  Nd3+  Nd50  1  0.76082512  0.37052461  0.06275977  1
  Nd3+  Nd51  1  -0.00213114  0.86981123  0.07954803  1
  Nd3+  Nd52  1  0.24382459  0.12326017  0.06713588  1
  Nd3+  Nd53  1  0.38119569  0.74499067  0.93550730  1
  Nd3+  Nd54  1  0.75078115  0.12518252  0.04878013  1
  Nd3+  Nd55  1  0.49590715  0.12907237  0.05497767  1
  Nd3+  Nd56  1  0.87419282  0.50224931  0.93062251  1
  Nd3+  Nd57  1  0.63160717  0.75805705  0.43349047  1
  Sm3+  Sm58  1  0.00538006  0.38093836  0.55384724  1
  Sm3+  Sm59  1  0.88092192  -0.01056055  0.92780373  1
  Sm3+  Sm60  1  0.12447185  -0.00796253  0.94898142  1
  Sm3+  Sm61  1  0.12916975  0.00869327  0.45086248  1
  Sm3+  Sm62  1  0.50271608  0.13218394  0.55993477  1
  Sm3+  Sm63  1  0.37126984  0.25328766  0.93212862  1
  Bi2+  Bi64  1  -0.09587466  0.14394151  0.29369556  1
  Bi2+  Bi65  1  0.01265026  0.10714112  0.79451392  1
  Bi2+  Bi66  1  -0.01072021  0.35948257  0.28794947  1
  Bi2+  Bi67  1  -0.04108304  0.44193933  0.76268430  1
  Bi2+  Bi68  1  -0.01434747  0.54852424  0.31101622  1
  Bi2+  Bi69  1  0.05036944  0.60589324  0.79277672  1
  Bi2+  Bi70  1  0.03987843  0.91745742  0.30878638  1
  Bi2+  Bi71  1  0.02246265  0.85742640  0.79519262  1
  Bi2+  Bi72  1  0.18032203  0.17302521  0.29726609  1
  Bi2+  Bi73  1  0.26145448  0.11515789  0.78241925  1
  Bi2+  Bi74  1  0.19614815  0.37331313  0.32525812  1
  Bi2+  Bi75  1  0.23926059  0.36754850  0.79392146  1
  Bi2+  Bi76  1  0.26447511  0.54778609  0.28923614  1
  Bi2+  Bi77  1  0.23834240  0.66388655  0.77985433  1
  Bi2+  Bi78  1  0.28286523  0.91829249  0.27180975  1
  Bi2+  Bi79  1  0.24805603  0.85927243  0.77493688  1
  Bi2+  Bi80  1  0.45860474  0.08712151  0.28704472  1
  Bi2+  Bi81  1  0.49226799  0.04992327  0.76438859  1
  Bi2+  Bi82  1  0.50952086  0.36799650  0.26738111  1
  Bi2+  Bi83  1  0.48231269  0.32955689  0.78249989  1
  Bi2+  Bi84  1  0.49961453  0.62277443  0.28818527  1
  Bi2+  Bi85  1  0.48211689  0.62728925  0.79700524  1
  Bi2+  Bi86  1  0.53567839  0.88423908  0.28427128  1
  Bi2+  Bi87  1  0.43788225  0.87020049  0.80000577  1
  Bi2+  Bi88  1  0.72566697  0.05687681  0.25042232  1
  Bi2+  Bi89  1  0.71576388  0.12855183  0.79621482  1
  Bi2+  Bi90  1  0.75417598  0.33100188  0.29301665  1
  Bi2+  Bi91  1  0.78067969  0.44375136  0.81559199  1
  Bi2+  Bi92  1  0.81943308  0.64225594  0.28345987  1
  Bi2+  Bi93  1  0.76889362  0.64641461  0.80708561  1
  Bi2+  Bi94  1  0.77664521  0.89236471  0.30775082  1
  Bi2+  Bi95  1  0.73535461  0.87423315  0.79002165  1
  Bi2+  Bi96  1  0.17158389  0.03195827  0.20975567  1
  Bi2+  Bi97  1  0.22751447  -0.00098700  0.69289556  1
  Bi2+  Bi98  1  0.10173301  0.27156590  0.20853002  1
  Bi2+  Bi99  1  0.13720842  0.24926067  0.73083717  1
  Bi2+  Bi100  1  0.18054299  0.44728875  0.19953723  1
  Bi2+  Bi101  1  0.10408704  0.42582451  0.68414241  1
  Bi2+  Bi102  1  0.12771146  0.73518413  0.21023222  1
  Bi2+  Bi103  1  0.12449630  0.73494912  0.69356657  1
  Bi2+  Bi104  1  0.45944922  0.05648012  0.17793764  1
  Bi2+  Bi105  1  0.40888659  0.01956529  0.65787027  1
  Bi2+  Bi106  1  0.34518455  0.27622898  0.27296572  1
  Bi2+  Bi107  1  0.39664462  0.20078805  0.71172186  1
  Bi2+  Bi108  1  0.36644317  0.51634906  0.19243233  1
  Bi2+  Bi109  1  0.35237231  0.48795980  0.69355442  1
  Bi2+  Bi110  1  0.39050064  0.76704192  0.21546384  1
  Bi2+  Bi111  1  0.38885025  0.76656915  0.70212024  1
  Bi2+  Bi112  1  0.62401308  -0.06286610  0.18031579  1
  Bi2+  Bi113  1  0.60055379  -0.08723936  0.70727628  1
  Bi2+  Bi114  1  0.58987910  0.19986051  0.22547399  1
  Bi2+  Bi115  1  0.59882707  0.28733843  0.69889510  1
  Bi2+  Bi116  1  0.68216078  0.51655493  0.19733441  1
  Bi2+  Bi117  1  0.62108301  0.49853048  0.75943509  1
  Bi2+  Bi118  1  0.70059215  0.77314334  0.22585400  1
  Bi2+  Bi119  1  0.63233659  0.72708662  0.74307809  1
  Bi2+  Bi120  1  0.90879075  0.02125239  0.20487195  1
  Bi2+  Bi121  1  0.86830857  -0.02687305  0.72118149  1
  Bi2+  Bi122  1  0.82746952  0.26778216  0.19645404  1
  Bi2+  Bi123  1  0.87302426  0.23321798  0.71213397  1
  Bi2+  Bi124  1  0.91120352  0.49844268  0.20826324  1
  Bi2+  Bi125  1  0.79927464  0.49193826  0.70102029  1
  Bi2+  Bi126  1  0.89720364  0.80424163  0.23260386  1
  Bi2+  Bi127  1  0.86033023  0.71485833  0.70973732  1
  S2-  S128  1  0.06564404  0.13206963  0.15575217  1
  S2-  S129  1  -0.03271213  0.09064230  0.68694758  1
  S2-  S130  1  -0.08921620  0.36402167  0.13022608  1
  S2-  S131  1  -0.01430149  0.30430482  0.64315021  1
  S2-  S132  1  0.06448833  0.56151611  0.17331394  1
  S2-  S133  1  -0.01706619  0.65002350  0.65916580  1
  S2-  S134  1  -0.00718643  0.74305149  0.15344538  1
  S2-  S135  1  0.04849793  0.87657197  0.68167634  1
  S2-  S136  1  0.29452483  0.11777124  0.16303625  1
  S2-  S137  1  0.15852333  0.14687106  0.64964338  1
  S2-  S138  1  0.34346044  0.36834918  0.14217327  1
  S2-  S139  1  0.27500391  0.35443810  0.65292750  1
  S2-  S140  1  0.25671634  0.70107818  0.15474479  1
  S2-  S141  1  0.19815096  0.55553353  0.65478766  1
  S2-  S142  1  0.12955377  0.88434625  0.15931381  1
  S2-  S143  1  0.26087651  0.79172603  0.63608492  1
  S2-  S144  1  0.50569631  0.22513121  0.13954422  1
  S2-  S145  1  0.58560788  0.15256454  0.64577767  1
  S2-  S146  1  0.52393850  0.50641072  0.15349306  1
  S2-  S147  1  0.49395573  0.42488502  0.65984370  1
  S2-  S148  1  0.50658963  0.73615323  0.15202866  1
  S2-  S149  1  0.39666441  0.62432673  0.64447481  1
  S2-  S150  1  0.37079390  0.89662939  0.15459786  1
  S2-  S151  1  0.53018442  0.79128614  0.63969197  1
  S2-  S152  1  0.84324759  0.13354233  0.13339960  1
  S2-  S153  1  0.76872051  0.09308906  0.69235975  1
  S2-  S154  1  0.69526019  0.37234447  0.15818209  1
  S2-  S155  1  0.75435511  0.29602195  0.65196565  1
  S2-  S156  1  0.81588917  0.59770276  0.14431580  1
  S2-  S157  1  0.74905235  0.63360739  0.64850089  1
  S2-  S158  1  0.85651161  0.90188129  0.14050103  1
  S2-  S159  1  0.84075765  0.85776412  0.64521839  1
  S2-  S160  1  0.15376224  0.02484018  0.35215668  1
  S2-  S161  1  0.09301513  -0.01442942  0.85017326  1
  S2-  S162  1  -0.00046873  0.23334087  0.36107721  1
  S2-  S163  1  0.02083919  0.24217141  0.84560080  1
  S2-  S164  1  0.13171573  0.61242637  0.34875250  1
  S2-  S165  1  0.14549401  0.47579033  0.84103238  1
  S2-  S166  1  0.17603714  0.80591868  0.30663113  1
  S2-  S167  1  0.10917017  0.73953001  0.85432775  1
  S2-  S168  1  0.37616677  -0.11165070  0.34780126  1
  S2-  S169  1  0.37520930  0.02101318  0.84666454  1
  S2-  S170  1  0.37338893  0.16645827  0.36017743  1
  S2-  S171  1  0.24972682  0.22725686  0.85845453  1
  S2-  S172  1  0.47389931  0.48314230  0.34260714  1
  S2-  S173  1  0.38256248  0.37679608  0.85720384  1
  S2-  S174  1  0.36440810  0.65209905  0.34815346  1
  S2-  S175  1  0.34703485  0.62604361  0.85879875  1
  S2-  S176  1  0.57473601  0.01437627  0.35494746  1
  S2-  S177  1  0.64261755  -0.01453064  0.84411350  1
  S2-  S178  1  0.60503891  0.32848802  0.34846923  1
  S2-  S179  1  0.59415059  0.22870296  0.83949297  1
  S2-  S180  1  0.66179120  0.56517621  0.29985367  1
  S2-  S181  1  0.54744100  0.51232813  0.86098682  1
  S2-  S182  1  0.55927939  0.75537954  0.34236084  1
  S2-  S183  1  0.52003945  0.75612760  0.86677098  1
  S2-  S184  1  0.90038549  -0.00423203  0.35271921  1
  S2-  S185  1  0.86733492  0.08226471  0.84311267  1
  S2-  S186  1  0.76626521  0.20553165  0.36164519  1
  S2-  S187  1  0.80372365  0.26295324  0.81146466  1
  S2-  S188  1  0.80850590  0.44448744  0.35629887  1
  S2-  S189  1  0.91537024  0.62256914  0.85983677  1
  S2-  S190  1  0.98172113  0.78596519  0.35574839  1
  S2-  S191  1  0.89591931  0.86390864  0.85545617  1
  S2-  S192  1  0.00946931  0.13323207  0.46800288  1
  S2-  S193  1  0.00058712  0.11414228  0.95334733  1
  S2-  S194  1  0.00564049  0.38647400  0.45013544  1
  S2-  S195  1  -0.00255830  0.37852871  0.94078805  1
  S2-  S196  1  0.00260863  0.63474884  0.45156231  1
  S2-  S197  1  0.00209449  0.62368452  0.96665231  1
  S2-  S198  1  0.00808047  0.88532119  0.46444418  1
  S2-  S199  1  0.00270324  0.87169998  0.96518255  1
  S2-  S200  1  0.25180383  0.13335608  0.45847995  1
  S2-  S201  1  0.24677546  0.11604522  0.95923063  1
  S2-  S202  1  0.25763939  0.38359913  0.44976952  1
  S2-  S203  1  0.24658260  0.37543373  0.95556644  1
  S2-  S204  1  0.25260331  0.63916076  0.45521610  1
  S2-  S205  1  0.24991164  0.62397430  0.96055965  1
  S2-  S206  1  0.24975287  0.88235815  0.44776794  1
  S2-  S207  1  0.25283821  0.87027895  0.95415835  1
  S2-  S208  1  0.50749766  0.13525985  0.45669053  1
  S2-  S209  1  0.49658277  0.12631560  0.94913358  1
  S2-  S210  1  0.50566936  0.38281765  0.45302645  1
  S2-  S211  1  0.50053274  0.36836388  0.96377271  1
  S2-  S212  1  0.51744679  0.62911573  0.45131535  1
  S2-  S213  1  0.50374772  0.62405174  0.96753724  1
  S2-  S214  1  0.50961287  0.88527960  0.45347328  1
  S2-  S215  1  0.49834906  0.87657443  0.96621217  1
  S2-  S216  1  0.75243656  0.12918336  0.47198701  1
  S2-  S217  1  0.74763809  0.12143326  0.94465436  1
  S2-  S218  1  0.74724120  0.38615154  0.45916761  1
  S2-  S219  1  0.75184621  0.37284938  0.94784933  1
  S2-  S220  1  0.75437621  0.63167835  0.43918556  1
  S2-  S221  1  0.74404883  0.62382759  0.95046546  1
  S2-  S222  1  0.75595406  0.88471886  0.45302980  1
  S2-  S223  1  0.74747967  0.87335689  0.95388130  1
  S2-  S224  1  0.12322584  -0.00426860  0.05262858  1
  S2-  S225  1  0.12644352  0.00592041  0.55565500  1
  S2-  S226  1  0.12187900  0.24897670  0.04352456  1
  S2-  S227  1  0.13334064  0.26372325  0.54193899  1
  S2-  S228  1  0.12321540  0.49625632  0.04925138  1
  S2-  S229  1  0.12701918  0.50620402  0.53882584  1
  S2-  S230  1  0.12419647  0.74435093  0.05471391  1
  S2-  S231  1  0.12485090  0.76112298  0.54734075  1
  S2-  S232  1  0.37155431  0.00089096  0.04872595  1
  S2-  S233  1  0.37934631  0.00982594  0.53414604  1
  S2-  S234  1  0.36768542  0.24523916  0.03788506  1
  S2-  S235  1  0.38056723  0.25645058  0.54939579  1
  S2-  S236  1  0.37466738  0.49872370  0.04435513  1
  S2-  S237  1  0.37910000  0.51141541  0.53913932  1
  S2-  S238  1  0.37279167  0.74670751  0.04570679  1
  S2-  S239  1  0.38437264  0.76350579  0.53367847  1
  S2-  S240  1  0.62311054  0.00306789  0.04854129  1
  S2-  S241  1  0.62949201  0.00626808  0.55365862  1
  S2-  S242  1  0.63022054  0.25087730  0.04253815  1
  S2-  S243  1  0.62489883  0.26077510  0.54392332  1
  S2-  S244  1  0.63000999  0.49386637  0.05003199  1
  S2-  S245  1  0.62758614  0.51071334  0.55647994  1
  S2-  S246  1  0.62867274  0.75176204  0.05211537  1
  S2-  S247  1  0.63611756  0.76109639  0.53864021  1
  S2-  S248  1  0.87210059  -0.00202802  0.03342282  1
  S2-  S249  1  0.87866637  0.01599807  0.56185680  1
  S2-  S250  1  0.87426001  0.24800579  0.02479503  1
  S2-  S251  1  0.87777840  0.25919290  0.54436611  1
  S2-  S252  1  0.87302511  0.49908992  0.03537346  1
  S2-  S253  1  0.88112408  0.50435624  0.54589113  1
  S2-  S254  1  0.87021733  0.74845345  0.04411974  1
  S2-  S255  1  0.87903680  0.75683109  0.54022967  1
