# generated using pymatgen
data_La9Ce10Pr6Nd4Sm3(BiS2)32
_symmetry_space_group_name_H-M   'P 1'
_cell_length_a   16.17361049
_cell_length_b   16.17448998
_cell_length_c   27.17389022
_cell_angle_alpha   89.93576296
_cell_angle_beta   90.00047999
_cell_angle_gamma   90.04727401
_symmetry_Int_Tables_number   1
_chemical_formula_structural   La9Ce10Pr6Nd4Sm3(BiS2)32
_chemical_formula_sum   'La18 Ce20 Pr12 Nd8 Sm6 Bi64 S128'
_cell_volume   7108.68009957
_cell_formula_units_Z   2
loop_
 _symmetry_equiv_pos_site_id
 _symmetry_equiv_pos_as_xyz
  1  'x, y, z'
loop_
 _atom_type_symbol
 _atom_type_oxidation_number
  La3+  3.0
  Ce3+  3.0
  Pr3+  3.0
  Nd3+  3.0
  Sm3+  3.0
  Bi2+  2.0
  S2-  -2.0
loop_
 _atom_site_type_symbol
 _atom_site_label
 _atom_site_symmetry_multiplicity
 _atom_site_fract_x
 _atom_site_fract_y
 _atom_site_fract_z
 _atom_site_occupancy
  La3+  La0  1  0.74147755  0.61848590  0.06204078  1
  La3+  La1  1  0.72814865  0.60588457  0.57903669  1
  La3+  La2  1  0.23447460  0.36486254  0.09608890  1
  La3+  La3  1  -0.00888629  0.11568637  0.56676551  1
  La3+  La4  1  0.26603910  0.10742643  0.62095557  1
  La3+  La5  1  0.74517900  0.13786372  0.09803321  1
  La3+  La6  1  0.10171336  -0.00285247  0.92095973  1
  La3+  La7  1  0.61269739  0.74867535  0.93915968  1
  La3+  La8  1  0.35236644  0.48771933  0.42583436  1
  La3+  La9  1  0.36398053  0.24460778  0.93238388  1
  La3+  La10  1  0.73332581  0.85909264  0.56705885  1
  La3+  La11  1  0.60581036  0.73283414  0.41570842  1
  La3+  La12  1  0.73823662  0.86552455  0.08454126  1
  La3+  La13  1  0.23309115  0.36273585  0.56582475  1
  La3+  La14  1  0.84990089  0.22744603  0.42198234  1
  La3+  La15  1  0.86620312  0.49872540  0.88863178  1
  La3+  La16  1  0.49355063  0.36456187  0.07030476  1
  La3+  La17  1  0.60816041  0.49549635  0.92973538  1
  Ce3+  Ce18  1  0.85603322  0.74594239  0.93466272  1
  Ce3+  Ce19  1  0.10936280  0.48209688  0.42812945  1
  Ce3+  Ce20  1  0.11278940  0.24720275  0.94425574  1
  Ce3+  Ce21  1  0.35793393  -0.01283575  0.45522079  1
  Ce3+  Ce22  1  0.23919304  0.12016864  0.05969304  1
  Ce3+  Ce23  1  0.11572142  0.74095754  0.43835514  1
  Ce3+  Ce24  1  0.86208995  -0.00623450  0.95214262  1
  Ce3+  Ce25  1  0.36452251  0.49354049  0.94461452  1
  Ce3+  Ce26  1  0.73497827  0.36452158  0.55212469  1
  Ce3+  Ce27  1  -0.01111979  0.36787848  0.05881072  1
  Ce3+  Ce28  1  0.11217997  -0.00580027  0.44119335  1
  Ce3+  Ce29  1  0.10914525  0.74397295  0.94215578  1
  Ce3+  Ce30  1  0.74295257  0.36928064  0.04531865  1
  Ce3+  Ce31  1  0.85782029  -0.01640004  0.44076722  1
  Ce3+  Ce32  1  0.60548538  0.48771981  0.43307266  1
  Ce3+  Ce33  1  0.24113233  0.62071969  0.05383685  1
  Ce3+  Ce34  1  0.49000366  0.85713588  0.56633261  1
  Ce3+  Ce35  1  0.36959607  0.74629253  0.93811406  1
  Ce3+  Ce36  1  0.48536364  0.61438633  0.06993706  1
  Ce3+  Ce37  1  0.60910591  0.23561979  0.43892835  1
  Pr3+  Pr38  1  -0.01950959  0.86114122  0.56381705  1
  Pr3+  Pr39  1  -0.01394480  0.87445578  0.06830206  1
  Pr3+  Pr40  1  0.48338925  0.36352754  0.55642489  1
  Pr3+  Pr41  1  0.61799867  0.24098790  0.93219499  1
  Pr3+  Pr42  1  0.85556699  0.49008228  0.43404533  1
  Pr3+  Pr43  1  0.49106833  0.11250836  0.56081736  1
  Pr3+  Pr44  1  0.48949533  0.86550477  0.07967153  1
  Pr3+  Pr45  1  -0.00787225  0.61653971  0.05978133  1
  Pr3+  Pr46  1  0.86792685  0.24310383  0.93300500  1
  Pr3+  Pr47  1  -0.00629992  0.11742271  0.06884670  1
  Pr3+  Pr48  1  0.35686803  0.74227267  0.43979671  1
  Pr3+  Pr49  1  0.85936668  0.73585400  0.43831045  1
  Nd3+  Nd50  1  0.23904882  0.87286048  0.05105621  1
  Nd3+  Nd51  1  0.22476381  0.86197820  0.57606569  1
  Nd3+  Nd52  1  0.35650335  0.23261643  0.44205250  1
  Nd3+  Nd53  1  0.73881045  0.11600960  0.56800043  1
  Nd3+  Nd54  1  -0.01808568  0.36404369  0.55033743  1
  Nd3+  Nd55  1  -0.01499252  0.61230770  0.55342912  1
  Nd3+  Nd56  1  0.11009597  0.23649521  0.43312075  1
  Nd3+  Nd57  1  0.48314863  0.61242906  0.55706990  1
  Sm3+  Sm58  1  0.48867509  0.12557769  0.05918154  1
  Sm3+  Sm59  1  0.61009252  -0.01515555  0.44032498  1
  Sm3+  Sm60  1  0.36511104  -0.00527284  0.94438224  1
  Sm3+  Sm61  1  0.11110874  0.49511096  0.93851804  1
  Sm3+  Sm62  1  0.23339910  0.60983691  0.56307163  1
  Sm3+  Sm63  1  0.61674879  -0.00276148  0.95542885  1
  Bi2+  Bi64  1  0.03760022  0.11005737  0.27020105  1
  Bi2+  Bi65  1  -0.06272466  0.14782110  0.79730366  1
  Bi2+  Bi66  1  -0.00624646  0.39989865  0.28687861  1
  Bi2+  Bi67  1  0.08691040  0.37186722  0.78980743  1
  Bi2+  Bi68  1  0.03063092  0.71596167  0.31283640  1
  Bi2+  Bi69  1  0.01556302  0.64679575  0.78380622  1
  Bi2+  Bi70  1  0.05143491  0.90539035  0.27837121  1
  Bi2+  Bi71  1  -0.04215391  0.87932532  0.79181469  1
  Bi2+  Bi72  1  0.24685538  0.13481148  0.29105735  1
  Bi2+  Bi73  1  0.23853468  0.11826128  0.82264164  1
  Bi2+  Bi74  1  0.24980778  0.39682425  0.29498812  1
  Bi2+  Bi75  1  0.27720862  0.41019084  0.79407435  1
  Bi2+  Bi76  1  0.24276651  0.66114233  0.28165699  1
  Bi2+  Bi77  1  0.27705604  0.60765974  0.79628771  1
  Bi2+  Bi78  1  0.23331423  0.92191211  0.31243150  1
  Bi2+  Bi79  1  0.24460704  0.80165824  0.78691244  1
  Bi2+  Bi80  1  0.46193729  0.15072736  0.27307560  1
  Bi2+  Bi81  1  0.55366847  0.14742306  0.78527738  1
  Bi2+  Bi82  1  0.54750267  0.33193824  0.30821573  1
  Bi2+  Bi83  1  0.47720712  0.41574192  0.78066164  1
  Bi2+  Bi84  1  0.48161729  0.59879328  0.29195095  1
  Bi2+  Bi85  1  0.47125483  0.64428302  0.77559010  1
  Bi2+  Bi86  1  0.43928482  0.88158516  0.29454369  1
  Bi2+  Bi87  1  0.58640235  0.87014496  0.80963196  1
  Bi2+  Bi88  1  0.79410828  0.15965035  0.28403216  1
  Bi2+  Bi89  1  0.73668868  0.08609890  0.77892537  1
  Bi2+  Bi90  1  0.73694562  0.40990857  0.29010902  1
  Bi2+  Bi91  1  0.71799043  0.37238064  0.79076330  1
  Bi2+  Bi92  1  0.77820449  0.63630046  0.30376171  1
  Bi2+  Bi93  1  0.76764195  0.62306889  0.77181288  1
  Bi2+  Bi94  1  0.75611028  0.90825950  0.30301488  1
  Bi2+  Bi95  1  0.77108531  0.84429186  0.76866391  1
  Bi2+  Bi96  1  0.19718441  0.02410151  0.19599584  1
  Bi2+  Bi97  1  0.12173444  -0.03548412  0.71560438  1
  Bi2+  Bi98  1  0.12366419  0.23891015  0.20718601  1
  Bi2+  Bi99  1  0.10122958  0.23819406  0.71189653  1
  Bi2+  Bi100  1  0.06103465  0.56671716  0.24132460  1
  Bi2+  Bi101  1  0.14448924  0.51676015  0.71613340  1
  Bi2+  Bi102  1  0.11481657  0.75167745  0.20926161  1
  Bi2+  Bi103  1  0.23504284  0.69590430  0.68924379  1
  Bi2+  Bi104  1  0.40740531  0.00268231  0.19639905  1
  Bi2+  Bi105  1  0.40554913  -0.09445245  0.77098402  1
  Bi2+  Bi106  1  0.41511790  0.29826421  0.21009523  1
  Bi2+  Bi107  1  0.37303213  0.24827441  0.71855123  1
  Bi2+  Bi108  1  0.35329871  0.57487554  0.19838237  1
  Bi2+  Bi109  1  0.41390984  0.54418349  0.68076198  1
  Bi2+  Bi110  1  0.35612321  0.80300232  0.20774580  1
  Bi2+  Bi111  1  0.41475989  0.77305706  0.68537596  1
  Bi2+  Bi112  1  0.59099642  0.01302705  0.23494710  1
  Bi2+  Bi113  1  0.60595550  0.05307324  0.68934385  1
  Bi2+  Bi114  1  0.65414920  0.27200491  0.21965711  1
  Bi2+  Bi115  1  0.67566498  0.23396734  0.69448286  1
  Bi2+  Bi116  1  0.59851148  0.48701346  0.22416904  1
  Bi2+  Bi117  1  0.61022018  0.44539452  0.70183943  1
  Bi2+  Bi118  1  0.60608123  0.75459103  0.21703966  1
  Bi2+  Bi119  1  0.60534683  0.74118142  0.70939289  1
  Bi2+  Bi120  1  0.90722481  0.00610076  0.20098748  1
  Bi2+  Bi121  1  0.87630862  -0.00334575  0.71312123  1
  Bi2+  Bi122  1  0.92164289  0.32545991  0.18965401  1
  Bi2+  Bi123  1  0.87236061  0.25093709  0.70658450  1
  Bi2+  Bi124  1  0.83478735  0.49644783  0.20454870  1
  Bi2+  Bi125  1  0.89630163  0.49231938  0.68481255  1
  Bi2+  Bi126  1  0.85545636  0.72553058  0.21533060  1
  Bi2+  Bi127  1  0.95299714  0.75385631  0.69584493  1
  S2-  S128  1  -0.09858943  0.16359000  0.15284279  1
  S2-  S129  1  0.09381310  0.10559160  0.65368558  1
  S2-  S130  1  0.07536269  0.37675413  0.14617537  1
  S2-  S131  1  -0.01348401  0.34800881  0.65172816  1
  S2-  S132  1  -0.04934365  0.60389515  0.15954417  1
  S2-  S133  1  0.02110246  0.59608522  0.65127760  1
  S2-  S134  1  0.03928378  0.99251590  0.14092376  1
  S2-  S135  1  0.07894046  0.84863642  0.64988622  1
  S2-  S136  1  0.25561766  0.20602478  0.14597826  1
  S2-  S137  1  0.27907383  0.11778985  0.72976725  1
  S2-  S138  1  0.28618620  0.41932387  0.19112312  1
  S2-  S139  1  0.23831554  0.27652807  0.65619170  1
  S2-  S140  1  0.21063054  0.62128261  0.14959496  1
  S2-  S141  1  0.25154100  0.49510552  0.63861848  1
  S2-  S142  1  0.22827694  0.86960664  0.15125884  1
  S2-  S143  1  0.25614017  0.94551319  0.66349087  1
  S2-  S144  1  0.50102587  0.22864369  0.14014734  1
  S2-  S145  1  0.43916568  0.12687127  0.65662494  1
  S2-  S146  1  0.49380583  0.48803679  0.14505263  1
  S2-  S147  1  0.46092211  0.37305405  0.65691334  1
  S2-  S148  1  0.48057439  0.72270461  0.14844057  1
  S2-  S149  1  0.58005088  0.60391967  0.64229840  1
  S2-  S150  1  0.61044449  0.88041199  0.15666461  1
  S2-  S151  1  0.60631518  0.86918558  0.64134604  1
  S2-  S152  1  0.73331851  0.05054857  0.18894962  1
  S2-  S153  1  0.86347681  0.12042163  0.63998937  1
  S2-  S154  1  0.73006119  0.30720554  0.13613780  1
  S2-  S155  1  0.74606896  0.44733523  0.63924369  1
  S2-  S156  1  0.72593395  0.69886785  0.15296702  1
  S2-  S157  1  0.80976260  0.64228166  0.66972797  1
  S2-  S158  1  0.87378028  0.85785815  0.15318897  1
  S2-  S159  1  0.85765328  0.86572082  0.64133446  1
  S2-  S160  1  0.11075492  0.10817361  0.36115024  1
  S2-  S161  1  0.15097287  -0.02228374  0.82250630  1
  S2-  S162  1  0.11391668  0.35515223  0.35333006  1
  S2-  S163  1  0.08655278  0.20086099  0.85082679  1
  S2-  S164  1  0.22553043  0.52266925  0.35443862  1
  S2-  S165  1  0.03509400  0.50259577  0.84953898  1
  S2-  S166  1  0.23432887  0.76004746  0.36496997  1
  S2-  S167  1  0.10274009  0.75037087  0.84384404  1
  S2-  S168  1  0.36090915  0.00405583  0.35673952  1
  S2-  S169  1  0.37329873  0.02013668  0.84713137  1
  S2-  S170  1  0.31247043  0.26204656  0.34536419  1
  S2-  S171  1  0.34379303  0.26136260  0.83174091  1
  S2-  S172  1  0.42706558  0.45882785  0.33182895  1
  S2-  S173  1  0.46581646  0.50228963  0.86421440  1
  S2-  S174  1  0.45830919  0.74423162  0.35445067  1
  S2-  S175  1  0.48565417  0.74705828  0.86402182  1
  S2-  S176  1  0.62743372  -0.01473716  0.34096741  1
  S2-  S177  1  0.60956677  0.01934575  0.85562889  1
  S2-  S178  1  0.69747660  0.20811761  0.35687086  1
  S2-  S179  1  0.57688577  0.29309686  0.83827821  1
  S2-  S180  1  0.62693045  0.58444032  0.35272595  1
  S2-  S181  1  0.70018493  0.52502858  0.84360832  1
  S2-  S182  1  0.66171660  0.77908198  0.31587478  1
  S2-  S183  1  0.72653789  0.78902110  0.86370164  1
  S2-  S184  1  0.85313994  0.03697557  0.34683434  1
  S2-  S185  1  0.93823793  0.00404310  0.86274156  1
  S2-  S186  1  0.90535430  0.25560784  0.32638684  1
  S2-  S187  1  0.84773281  0.28025549  0.83453979  1
  S2-  S188  1  0.89214946  0.52336997  0.33714087  1
  S2-  S189  1  0.85656764  0.47369226  0.77869013  1
  S2-  S190  1  0.86844480  0.78448099  0.34039551  1
  S2-  S191  1  0.88178133  0.65933928  0.84629811  1
  S2-  S192  1  -0.02120987  0.11215742  0.45626266  1
  S2-  S193  1  -0.01142295  0.12200441  0.96099515  1
  S2-  S194  1  -0.02454487  0.36049680  0.44596266  1
  S2-  S195  1  -0.01263052  0.37310606  0.94991130  1
  S2-  S196  1  -0.01170907  0.61385057  0.44691614  1
  S2-  S197  1  -0.01317612  0.61767882  0.95385378  1
  S2-  S198  1  -0.01322662  0.86295441  0.45232597  1
  S2-  S199  1  -0.01464947  0.86589532  0.95723027  1
  S2-  S200  1  0.23659456  0.11167478  0.45810837  1
  S2-  S201  1  0.23841508  0.11736774  0.95129178  1
  S2-  S202  1  0.23602663  0.35920736  0.45683456  1
  S2-  S203  1  0.23607139  0.37253723  0.94165198  1
  S2-  S204  1  0.23264934  0.61501412  0.46064207  1
  S2-  S205  1  0.23817404  0.62001714  0.94642066  1
  S2-  S206  1  0.23360735  0.86784270  0.46798640  1
  S2-  S207  1  0.23996706  0.87066295  0.94434626  1
  S2-  S208  1  0.48729924  0.11065981  0.45182327  1
  S2-  S209  1  0.48929733  0.11897172  0.95454313  1
  S2-  S210  1  0.48255914  0.35876579  0.44943330  1
  S2-  S211  1  0.48994687  0.36383109  0.95866003  1
  S2-  S212  1  0.47949012  0.61024508  0.45187225  1
  S2-  S213  1  0.48465414  0.62012648  0.96544185  1
  S2-  S214  1  0.48785721  0.86472924  0.45842418  1
  S2-  S215  1  0.48887092  0.87909851  0.96571241  1
  S2-  S216  1  0.73109099  0.10594197  0.46144432  1
  S2-  S217  1  0.74224102  0.11783753  0.94385335  1
  S2-  S218  1  0.73163118  0.36446884  0.44596933  1
  S2-  S219  1  0.74231740  0.37226827  0.94059199  1
  S2-  S220  1  0.73403477  0.61348118  0.45595774  1
  S2-  S221  1  0.74027509  0.61728774  0.95434941  1
  S2-  S222  1  0.73080570  0.85966977  0.45247716  1
  S2-  S223  1  0.73731478  0.87609839  0.97177110  1
  S2-  S224  1  0.11797276  -0.00487225  0.03276706  1
  S2-  S225  1  0.10646364  -0.01669449  0.54685156  1
  S2-  S226  1  0.11661215  0.24506845  0.04770052  1
  S2-  S227  1  0.10500971  0.24486244  0.54029571  1
  S2-  S228  1  0.11881958  0.49245516  0.04316883  1
  S2-  S229  1  0.10689809  0.48866114  0.53797617  1
  S2-  S230  1  0.11296876  0.74854050  0.04892633  1
  S2-  S231  1  0.11093903  0.73278006  0.54516082  1
  S2-  S232  1  0.36678144  -0.00235028  0.05127694  1
  S2-  S233  1  0.36710866  -0.01563746  0.55948703  1
  S2-  S234  1  0.36021611  0.24722269  0.04105394  1
  S2-  S235  1  0.36174481  0.23396769  0.54874004  1
  S2-  S236  1  0.35415145  0.48599528  0.04935707  1
  S2-  S237  1  0.36095618  0.48819878  0.53657941  1
  S2-  S238  1  0.36174923  0.74808583  0.04476990  1
  S2-  S239  1  0.35593840  0.73630824  0.55037126  1
  S2-  S240  1  0.61563872  0.00975464  0.05929932  1
  S2-  S241  1  0.61505784  -0.00863993  0.54454940  1
  S2-  S242  1  0.62136530  0.23830325  0.03813056  1
  S2-  S243  1  0.61237604  0.23920650  0.54767128  1
  S2-  S244  1  0.61743474  0.49296474  0.04235783  1
  S2-  S245  1  0.60635528  0.48559855  0.53852125  1
  S2-  S246  1  0.61130118  0.74388540  0.04695579  1
  S2-  S247  1  0.60858316  0.73391414  0.53973041  1
  S2-  S248  1  0.85650819  0.00322782  0.05601749  1
  S2-  S249  1  0.85756338  -0.01141675  0.54387454  1
  S2-  S250  1  0.86529585  0.24413791  0.03952587  1
  S2-  S251  1  0.85658224  0.24179713  0.53727026  1
  S2-  S252  1  0.86631280  0.49190680  0.05278574  1
  S2-  S253  1  0.85973537  0.49096234  0.54037917  1
  S2-  S254  1  0.86798566  0.74241817  0.04542923  1
  S2-  S255  1  0.85692405  0.73054495  0.54449852  1
