# generated using pymatgen
data_La9Ce10Pr6Nd4Sm3(BiS2)32
_symmetry_space_group_name_H-M   'P 1'
_cell_length_a   16.16836549
_cell_length_b   16.19897010
_cell_length_c   27.21577247
_cell_angle_alpha   90.35295550
_cell_angle_beta   89.88539072
_cell_angle_gamma   89.98067392
_symmetry_Int_Tables_number   1
_chemical_formula_structural   La9Ce10Pr6Nd4Sm3(BiS2)32
_chemical_formula_sum   'La18 Ce20 Pr12 Nd8 Sm6 Bi64 S128'
_cell_volume   7127.95667535
_cell_formula_units_Z   2
loop_
 _symmetry_equiv_pos_site_id
 _symmetry_equiv_pos_as_xyz
  1  'x, y, z'
loop_
 _atom_type_symbol
 _atom_type_oxidation_number
  La3+  3.0
  Ce3+  3.0
  Pr3+  3.0
  Nd3+  3.0
  Sm3+  3.0
  Bi2+  2.0
  S2-  -2.0
loop_
 _atom_site_type_symbol
 _atom_site_label
 _atom_site_symmetry_multiplicity
 _atom_site_fract_x
 _atom_site_fract_y
 _atom_site_fract_z
 _atom_site_occupancy
  La3+  La0  1  -0.00527027  0.87951704  0.57548319  1
  La3+  La1  1  0.49434334  0.36862601  0.09219669  1
  La3+  La2  1  0.12357997  0.75990078  0.43398179  1
  La3+  La3  1  0.62009773  0.75130100  0.42959557  1
  La3+  La4  1  0.86820014  0.00634389  0.43938934  1
  La3+  La5  1  0.00190427  0.38446699  0.56586413  1
  La3+  La6  1  0.87202635  0.75047511  0.93587537  1
  La3+  La7  1  0.62933482  0.25541341  0.42237062  1
  La3+  La8  1  0.24021115  0.62736420  0.59443560  1
  La3+  La9  1  0.11062015  0.25521700  0.92425516  1
  La3+  La10  1  0.62060678  0.50392281  0.42298475  1
  La3+  La11  1  0.24042723  0.13417580  0.06662917  1
  La3+  La12  1  0.73862003  0.87747205  0.07330633  1
  La3+  La13  1  0.62064901  0.74466632  0.93076305  1
  La3+  La14  1  0.13201287  0.75590411  0.92134966  1
  La3+  La15  1  0.24082739  0.63591944  0.07497746  1
  La3+  La16  1  0.73765902  0.63150532  0.07637629  1
  La3+  La17  1  0.12215551  0.51157405  0.42607866  1
  Ce3+  Ce18  1  0.37008896  0.25401026  0.94012826  1
  Ce3+  Ce19  1  0.61783531  0.50136126  0.94525863  1
  Ce3+  Ce20  1  0.11743499  0.00354569  0.43315882  1
  Ce3+  Ce21  1  0.37073413  0.75792091  0.44785730  1
  Ce3+  Ce22  1  0.87335960  0.50535338  0.44476557  1
  Ce3+  Ce23  1  0.11732194  0.25545761  0.43455228  1
  Ce3+  Ce24  1  0.11822813  -0.00042135  0.93661584  1
  Ce3+  Ce25  1  0.50449250  0.13457517  0.54980060  1
  Ce3+  Ce26  1  0.86874728  0.50225965  0.94826922  1
  Ce3+  Ce27  1  0.87058128  0.75911349  0.44057974  1
  Ce3+  Ce28  1  0.24982044  0.88328858  0.56810699  1
  Ce3+  Ce29  1  0.24114830  0.37951755  0.05730023  1
  Ce3+  Ce30  1  0.62843476  -0.00290169  0.42744033  1
  Ce3+  Ce31  1  -0.00224422  0.63267562  0.55413296  1
  Ce3+  Ce32  1  -0.00411670  0.13176118  0.55913444  1
  Ce3+  Ce33  1  0.74191541  0.38357560  0.07125602  1
  Ce3+  Ce34  1  0.74279604  0.38026990  0.55952301  1
  Ce3+  Ce35  1  0.24768600  0.37812338  0.55783558  1
  Ce3+  Ce36  1  0.50383609  0.88228552  0.56275685  1
  Ce3+  Ce37  1  0.49719776  0.63119758  0.55804373  1
  Pr3+  Pr38  1  0.74374118  0.12769567  0.07193498  1
  Pr3+  Pr39  1  0.86373800  0.25509970  0.93976268  1
  Pr3+  Pr40  1  -0.01084090  0.12924796  0.05248531  1
  Pr3+  Pr41  1  0.49100533  0.62747822  0.06659935  1
  Pr3+  Pr42  1  0.36881556  0.50628269  0.43962554  1
  Pr3+  Pr43  1  0.74400504  0.63205001  0.55645460  1
  Pr3+  Pr44  1  -0.00450516  0.62657774  0.06450285  1
  Pr3+  Pr45  1  0.86090221  0.00041272  0.93312786  1
  Pr3+  Pr46  1  0.74103877  0.14129370  0.57337161  1
  Pr3+  Pr47  1  0.49260937  0.88232134  0.06139760  1
  Pr3+  Pr48  1  -0.00791130  0.87445474  0.05959074  1
  Pr3+  Pr49  1  0.74425910  0.88782566  0.57177207  1
  Nd3+  Nd50  1  0.24659991  0.13343629  0.56354934  1
  Nd3+  Nd51  1  0.49636268  0.38449474  0.55431357  1
  Nd3+  Nd52  1  0.37035274  0.25305353  0.43338273  1
  Nd3+  Nd53  1  0.23917657  0.88531763  0.06821839  1
  Nd3+  Nd54  1  0.36829062  0.00448752  0.93930760  1
  Nd3+  Nd55  1  0.87490102  0.25690617  0.43562523  1
  Nd3+  Nd56  1  0.37296350  0.00623783  0.44555447  1
  Nd3+  Nd57  1  -0.00558173  0.37894584  0.06864241  1
  Sm3+  Sm58  1  0.62304438  0.25210168  0.93959852  1
  Sm3+  Sm59  1  0.11952951  0.50413713  0.94210762  1
  Sm3+  Sm60  1  0.36709020  0.75096261  0.94778679  1
  Sm3+  Sm61  1  0.36807815  0.49946704  0.95193432  1
  Sm3+  Sm62  1  0.62115873  -0.00593508  0.93591887  1
  Sm3+  Sm63  1  0.49453555  0.13077757  0.05603012  1
  Bi2+  Bi64  1  -0.00117207  0.12280784  0.28537167  1
  Bi2+  Bi65  1  0.09405056  0.10352008  0.75194015  1
  Bi2+  Bi66  1  -0.03359011  0.37901913  0.29723121  1
  Bi2+  Bi67  1  0.01295570  0.38055452  0.80846027  1
  Bi2+  Bi68  1  0.01875840  0.56334753  0.29347510  1
  Bi2+  Bi69  1  -0.06334193  0.62253159  0.79684587  1
  Bi2+  Bi70  1  0.01001677  0.87587451  0.29686845  1
  Bi2+  Bi71  1  0.02737646  0.87655249  0.78417447  1
  Bi2+  Bi72  1  0.18262976  0.13667665  0.33063537  1
  Bi2+  Bi73  1  0.27608296  0.09343648  0.79381911  1
  Bi2+  Bi74  1  0.21278864  0.26175777  0.24843677  1
  Bi2+  Bi75  1  0.30050842  0.36044053  0.78454635  1
  Bi2+  Bi76  1  0.26142367  0.68436586  0.28221860  1
  Bi2+  Bi77  1  0.25331862  0.59959338  0.81299521  1
  Bi2+  Bi78  1  0.26816024  0.88235185  0.28523450  1
  Bi2+  Bi79  1  0.27298247  0.90079302  0.77848314  1
  Bi2+  Bi80  1  0.44381503  0.12358475  0.29021897  1
  Bi2+  Bi81  1  0.53781879  0.18226041  0.80243547  1
  Bi2+  Bi82  1  0.47256070  0.38757617  0.28293723  1
  Bi2+  Bi83  1  0.57111346  0.37249990  0.81105401  1
  Bi2+  Bi84  1  0.48000990  0.63293806  0.29553751  1
  Bi2+  Bi85  1  0.51188206  0.62418757  0.79688305  1
  Bi2+  Bi86  1  0.50537006  0.92327048  0.29092088  1
  Bi2+  Bi87  1  0.51872809  0.89968526  0.77888753  1
  Bi2+  Bi88  1  0.63314099  0.12249012  0.31335741  1
  Bi2+  Bi89  1  0.72236597  0.13566175  0.78181533  1
  Bi2+  Bi90  1  0.72296770  0.32284151  0.27627831  1
  Bi2+  Bi91  1  0.76251600  0.37118144  0.79139738  1
  Bi2+  Bi92  1  0.75173663  0.59142119  0.27824005  1
  Bi2+  Bi93  1  0.69186291  0.56210682  0.76075608  1
  Bi2+  Bi94  1  0.76750259  0.87519894  0.29367296  1
  Bi2+  Bi95  1  0.76951767  0.88629064  0.80569091  1
  Bi2+  Bi96  1  0.17196659  0.03347384  0.23473134  1
  Bi2+  Bi97  1  0.22889153  0.02617121  0.68011185  1
  Bi2+  Bi98  1  0.03764857  0.26275958  0.19056830  1
  Bi2+  Bi99  1  0.14488210  0.27435238  0.71665971  1
  Bi2+  Bi100  1  0.13304580  0.44315413  0.20270622  1
  Bi2+  Bi101  1  0.11026725  0.50119927  0.70334356  1
  Bi2+  Bi102  1  0.10490954  0.78251889  0.21348992  1
  Bi2+  Bi103  1  0.12576755  0.74385888  0.71271282  1
  Bi2+  Bi104  1  0.46430519  -0.01603453  0.18211444  1
  Bi2+  Bi105  1  0.38825605  -0.08833654  0.67577752  1
  Bi2+  Bi106  1  0.33558448  0.13457966  0.19178829  1
  Bi2+  Bi107  1  0.35586562  0.17917819  0.70142847  1
  Bi2+  Bi108  1  0.38477563  0.61087993  0.19956703  1
  Bi2+  Bi109  1  0.44593104  0.46654999  0.73684396  1
  Bi2+  Bi110  1  0.38313509  0.80653140  0.20231591  1
  Bi2+  Bi111  1  0.41401655  0.74697539  0.73472746  1
  Bi2+  Bi112  1  0.66035308  0.00297484  0.22279562  1
  Bi2+  Bi113  1  0.50819242  0.05569645  0.71060392  1
  Bi2+  Bi114  1  0.62535502  0.19950263  0.20113700  1
  Bi2+  Bi115  1  0.62029960  0.28347605  0.70058892  1
  Bi2+  Bi116  1  0.62464312  0.50164116  0.20529612  1
  Bi2+  Bi117  1  0.60857133  0.47070484  0.66869845  1
  Bi2+  Bi118  1  0.63868252  0.75884562  0.21362613  1
  Bi2+  Bi119  1  0.61386888  0.75282675  0.70628652  1
  Bi2+  Bi120  1  0.90857879  -0.02695510  0.21134129  1
  Bi2+  Bi121  1  0.90479140  -0.01058306  0.70160275  1
  Bi2+  Bi122  1  0.82851574  0.20654902  0.20300184  1
  Bi2+  Bi123  1  0.85287833  0.18466238  0.70782770  1
  Bi2+  Bi124  1  0.87762789  0.39579761  0.19343769  1
  Bi2+  Bi125  1  0.86341987  0.49040346  0.72275361  1
  Bi2+  Bi126  1  0.87224238  0.70967408  0.22865779  1
  Bi2+  Bi127  1  0.87842778  0.71147205  0.70490237  1
  S2-  S128  1  -0.03333799  0.12013403  0.15275929  1
  S2-  S129  1  -0.00022098  0.12769371  0.65855089  1
  S2-  S130  1  0.00212599  0.49587889  0.14535851  1
  S2-  S131  1  0.02164227  0.36667061  0.66646270  1
  S2-  S132  1  -0.00941657  0.70991436  0.15490342  1
  S2-  S133  1  0.02730242  0.63498078  0.65195578  1
  S2-  S134  1  0.02777542  0.91114684  0.15809655  1
  S2-  S135  1  0.05350192  0.88977012  0.67544100  1
  S2-  S136  1  0.23121283  0.01345904  0.14061618  1
  S2-  S137  1  0.24843212  0.25805366  0.63628320  1
  S2-  S138  1  0.23429603  0.32076924  0.14782889  1
  S2-  S139  1  0.22631976  0.46871843  0.64025604  1
  S2-  S140  1  0.22350558  0.55644465  0.16507432  1
  S2-  S141  1  0.23955961  0.61789808  0.71095669  1
  S2-  S142  1  0.23142303  0.77488245  0.14540964  1
  S2-  S143  1  0.23787830  0.78113805  0.64623376  1
  S2-  S144  1  0.47621636  0.21236200  0.14387443  1
  S2-  S145  1  0.58757605  0.14531280  0.63507970  1
  S2-  S146  1  0.45332559  0.44675580  0.18226294  1
  S2-  S147  1  0.47107379  0.36167993  0.65329928  1
  S2-  S148  1  0.59476945  0.63974862  0.14787430  1
  S2-  S149  1  0.49218235  0.65393527  0.65509468  1
  S2-  S150  1  0.59451038  0.86825362  0.14390772  1
  S2-  S151  1  0.61130026  0.87700376  0.64098654  1
  S2-  S152  1  0.77004568  0.00417528  0.14438809  1
  S2-  S153  1  0.77158642  0.04232349  0.65832706  1
  S2-  S154  1  0.64110975  0.35353855  0.15063385  1
  S2-  S155  1  0.76425509  0.28268405  0.64055538  1
  S2-  S156  1  0.76449076  0.50809207  0.14792420  1
  S2-  S157  1  0.74673873  0.66462099  0.65636041  1
  S2-  S158  1  0.77253528  0.75900548  0.15112337  1
  S2-  S159  1  0.85997179  0.85203578  0.64750225  1
  S2-  S160  1  0.14388794  -0.11982178  0.35991058  1
  S2-  S161  1  0.14638704  -0.08948847  0.85457599  1
  S2-  S162  1  -0.00067035  0.24978947  0.35952399  1
  S2-  S163  1  0.16545568  0.30004052  0.82813809  1
  S2-  S164  1  0.11799014  0.43517190  0.33349860  1
  S2-  S165  1  0.11916685  0.51052245  0.84277372  1
  S2-  S166  1  0.12564098  0.64716550  0.34970914  1
  S2-  S167  1  0.05301424  0.72215124  0.83020694  1
  S2-  S168  1  0.36625978  -0.00425614  0.34573713  1
  S2-  S169  1  0.39032958  -0.02295599  0.84069049  1
  S2-  S170  1  0.39376417  0.27806579  0.33430746  1
  S2-  S171  1  0.38067123  0.24160325  0.84246602  1
  S2-  S172  1  0.39001498  0.50165318  0.33741309  1
  S2-  S173  1  0.36014000  0.49016040  0.85333880  1
  S2-  S174  1  0.38173856  0.74771280  0.34950547  1
  S2-  S175  1  0.28466130  0.73722802  0.86174608  1
  S2-  S176  1  0.75780632  0.00905115  0.35823292  1
  S2-  S177  1  0.73227873  0.02621069  0.86101146  1
  S2-  S178  1  0.60747389  0.38387598  0.34609019  1
  S2-  S179  1  0.74170678  0.24923020  0.86432734  1
  S2-  S180  1  0.62513803  0.62837577  0.34949519  1
  S2-  S181  1  0.63418747  0.60334914  0.86413596  1
  S2-  S182  1  0.62240845  0.86007354  0.35097890  1
  S2-  S183  1  0.61769699  0.86521071  0.85749040  1
  S2-  S184  1  0.98288850  0.00825840  0.35949421  1
  S2-  S185  1  0.91960010  -0.03899244  0.83509492  1
  S2-  S186  1  0.76970757  0.23539875  0.35520931  1
  S2-  S187  1  0.96972538  0.25328046  0.85674399  1
  S2-  S188  1  0.86635964  0.51125358  0.34492042  1
  S2-  S189  1  0.88085962  0.47536220  0.85175839  1
  S2-  S190  1  0.88671655  0.77079393  0.34234965  1
  S2-  S191  1  0.81320029  0.74436388  0.83966307  1
  S2-  S192  1  -0.00225019  0.13120172  0.45754332  1
  S2-  S193  1  -0.00961960  0.12249623  0.94729512  1
  S2-  S194  1  -0.00174684  0.38510664  0.45659372  1
  S2-  S195  1  -0.00453332  0.38156646  0.96086539  1
  S2-  S196  1  -0.00668720  0.63325476  0.44994490  1
  S2-  S197  1  -0.00193192  0.62619125  0.95324817  1
  S2-  S198  1  -0.00528331  0.87934020  0.46324996  1
  S2-  S199  1  -0.00458884  0.87551740  0.95101417  1
  S2-  S200  1  0.24621221  0.12919711  0.45680976  1
  S2-  S201  1  0.24103382  0.12924688  0.95059693  1
  S2-  S202  1  0.24634993  0.37811893  0.44769176  1
  S2-  S203  1  0.24186354  0.37753924  0.95100868  1
  S2-  S204  1  0.24946879  0.63360799  0.45329235  1
  S2-  S205  1  0.24603793  0.62305873  0.96333965  1
  S2-  S206  1  0.25079805  0.88522378  0.46247960  1
  S2-  S207  1  0.25034882  0.88097497  0.96191136  1
  S2-  S208  1  0.49932180  0.13023952  0.44356182  1
  S2-  S209  1  0.49900401  0.12658940  0.95007911  1
  S2-  S210  1  0.49193643  0.37892067  0.44891217  1
  S2-  S211  1  0.49476541  0.37575304  0.95221912  1
  S2-  S212  1  0.49302768  0.62912970  0.45245314  1
  S2-  S213  1  0.48574959  0.62549937  0.95884726  1
  S2-  S214  1  0.49542616  0.88189906  0.45520804  1
  S2-  S215  1  0.48776797  0.87673153  0.95448510  1
  S2-  S216  1  0.74600876  0.13362654  0.46330112  1
  S2-  S217  1  0.74060316  0.12751599  0.96538016  1
  S2-  S218  1  0.75018655  0.38419624  0.45305825  1
  S2-  S219  1  0.74080322  0.38091498  0.96206633  1
  S2-  S220  1  0.75049316  0.62962822  0.45036343  1
  S2-  S221  1  0.74691877  0.62488580  0.96428345  1
  S2-  S222  1  0.74567914  0.87590461  0.46105680  1
  S2-  S223  1  0.74263273  0.87330222  0.96058960  1
  S2-  S224  1  0.11349664  0.00600961  0.04107970  1
  S2-  S225  1  0.12278277  0.00737376  0.54889965  1
  S2-  S226  1  0.11459963  0.25405096  0.04002333  1
  S2-  S227  1  0.11956723  0.25510592  0.54141782  1
  S2-  S228  1  0.12150593  0.50315898  0.04576153  1
  S2-  S229  1  0.12276684  0.51136543  0.53925639  1
  S2-  S230  1  0.11828525  0.75571661  0.03895423  1
  S2-  S231  1  0.12217487  0.75487332  0.54562715  1
  S2-  S232  1  0.37005736  0.01020344  0.04499115  1
  S2-  S233  1  0.37658285  0.01214823  0.55140184  1
  S2-  S234  1  0.36807672  0.25493065  0.04408472  1
  S2-  S235  1  0.37674279  0.25443463  0.53916872  1
  S2-  S236  1  0.36919678  0.49915529  0.05682245  1
  S2-  S237  1  0.37050866  0.50951645  0.54790836  1
  S2-  S238  1  0.37006837  0.75660451  0.05096787  1
  S2-  S239  1  0.37441752  0.75591089  0.55209954  1
  S2-  S240  1  0.61552544  0.00861407  0.04303524  1
  S2-  S241  1  0.62166708  0.00747017  0.53724557  1
  S2-  S242  1  0.61878566  0.25012604  0.04322652  1
  S2-  S243  1  0.61968591  0.26494861  0.53422575  1
  S2-  S244  1  0.60894970  0.49714206  0.04924174  1
  S2-  S245  1  0.62060925  0.50720597  0.53597992  1
  S2-  S246  1  0.61239184  0.75248005  0.03930187  1
  S2-  S247  1  0.62021116  0.75293515  0.53992895  1
  S2-  S248  1  0.86935927  0.00138785  0.04096929  1
  S2-  S249  1  0.87290031  0.00871813  0.54813881  1
  S2-  S250  1  0.86624916  0.25712463  0.05061653  1
  S2-  S251  1  0.87731671  0.25982438  0.54255323  1
  S2-  S252  1  0.87074593  0.50333586  0.04883305  1
  S2-  S253  1  0.86994431  0.50626137  0.55387454  1
  S2-  S254  1  0.87002745  0.75089999  0.04393309  1
  S2-  S255  1  0.87089393  0.75248542  0.54447442  1
