# generated using pymatgen
data_La9Ce10Pr6Nd4Sm3(BiS2)32
_symmetry_space_group_name_H-M   'P 1'
_cell_length_a   16.23299124
_cell_length_b   16.13879967
_cell_length_c   27.24275905
_cell_angle_alpha   90.06479950
_cell_angle_beta   89.77652490
_cell_angle_gamma   89.94812123
_symmetry_Int_Tables_number   1
_chemical_formula_structural   La9Ce10Pr6Nd4Sm3(BiS2)32
_chemical_formula_sum   'La18 Ce20 Pr12 Nd8 Sm6 Bi64 S128'
_cell_volume   7137.02327728
_cell_formula_units_Z   2
loop_
 _symmetry_equiv_pos_site_id
 _symmetry_equiv_pos_as_xyz
  1  'x, y, z'
loop_
 _atom_type_symbol
 _atom_type_oxidation_number
  La3+  3.0
  Ce3+  3.0
  Pr3+  3.0
  Nd3+  3.0
  Sm3+  3.0
  Bi2+  2.0
  S2-  -2.0
loop_
 _atom_site_type_symbol
 _atom_site_label
 _atom_site_symmetry_multiplicity
 _atom_site_fract_x
 _atom_site_fract_y
 _atom_site_fract_z
 _atom_site_occupancy
  La3+  La0  1  -0.01123026  0.11608050  0.56687756  1
  La3+  La1  1  0.62404716  -0.01822998  0.92733066  1
  La3+  La2  1  -0.01294061  0.35921180  0.07850854  1
  La3+  La3  1  -0.01261203  0.60793846  0.08090220  1
  La3+  La4  1  0.24739912  0.11371355  0.04936232  1
  La3+  La5  1  0.11245906  0.24171573  0.89631439  1
  La3+  La6  1  -0.00024775  0.11304638  0.07002443  1
  La3+  La7  1  0.24902227  0.61550425  0.08290677  1
  La3+  La8  1  0.73681076  0.35645396  0.06751885  1
  La3+  La9  1  0.61754318  -0.00611609  0.43962310  1
  La3+  La10  1  0.37184202  0.48851102  0.40450372  1
  La3+  La11  1  0.36753716  0.73076752  0.92733547  1
  La3+  La12  1  0.37465092  0.23981097  0.89595583  1
  La3+  La13  1  0.12204657  0.49019437  0.94446280  1
  La3+  La14  1  0.24424352  0.35999953  0.05744738  1
  La3+  La15  1  0.11143471  0.73902193  0.41211258  1
  La3+  La16  1  -0.00686059  0.85737539  0.08606393  1
  La3+  La17  1  0.87781345  0.73272898  0.93383125  1
  Ce3+  Ce18  1  -0.00413371  0.61448236  0.55905861  1
  Ce3+  Ce19  1  0.74847764  0.11586831  0.56422576  1
  Ce3+  Ce20  1  0.36759616  -0.00451030  0.44337313  1
  Ce3+  Ce21  1  0.24627320  0.86045215  0.05510921  1
  Ce3+  Ce22  1  0.74671436  0.86171327  0.06175946  1
  Ce3+  Ce23  1  0.87107723  0.24138074  0.43459939  1
  Ce3+  Ce24  1  0.87431017  0.23910123  0.94236202  1
  Ce3+  Ce25  1  0.49264833  0.86881377  0.56224410  1
  Ce3+  Ce26  1  0.49192767  0.36420081  0.56369504  1
  Ce3+  Ce27  1  0.36720125  -0.01469003  0.92559711  1
  Ce3+  Ce28  1  0.86966825  0.48949211  0.44261295  1
  Ce3+  Ce29  1  0.37205359  0.48760823  0.94322299  1
  Ce3+  Ce30  1  0.62131788  0.73638042  0.93260563  1
  Ce3+  Ce31  1  0.37160173  0.23662338  0.43695385  1
  Ce3+  Ce32  1  0.73950706  0.11013910  0.05357479  1
  Ce3+  Ce33  1  -0.00494506  0.36606467  0.55691792  1
  Ce3+  Ce34  1  0.36867945  0.73685519  0.43873690  1
  Ce3+  Ce35  1  0.87160496  -0.01031221  0.43943315  1
  Ce3+  Ce36  1  0.61486206  0.73936670  0.44416655  1
  Ce3+  Ce37  1  0.11881726  -0.00869325  0.43860964  1
  Pr3+  Pr38  1  0.87933720  -0.01305324  0.94733987  1
  Pr3+  Pr39  1  0.48937552  0.11050035  0.57967231  1
  Pr3+  Pr40  1  0.11963436  -0.01259365  0.93824721  1
  Pr3+  Pr41  1  0.23735065  0.11637780  0.56924748  1
  Pr3+  Pr42  1  0.62504853  0.23036809  0.92016817  1
  Pr3+  Pr43  1  0.11763185  0.23936401  0.43056432  1
  Pr3+  Pr44  1  0.24394448  0.61481448  0.55803507  1
  Pr3+  Pr45  1  0.49771571  0.35866727  0.05811830  1
  Pr3+  Pr46  1  0.87322592  0.48259756  0.93667972  1
  Pr3+  Pr47  1  0.49588275  0.61469993  0.06530225  1
  Pr3+  Pr48  1  0.12462228  0.49169963  0.42937827  1
  Pr3+  Pr49  1  0.74445536  0.61173353  0.05620704  1
  Nd3+  Nd50  1  -0.00582115  0.86200753  0.55771497  1
  Nd3+  Nd51  1  0.74301312  0.36766279  0.56021990  1
  Nd3+  Nd52  1  0.49623230  0.86150239  0.05354307  1
  Nd3+  Nd53  1  0.62081599  0.48220637  0.93515649  1
  Nd3+  Nd54  1  0.61657631  0.48754405  0.43391233  1
  Nd3+  Nd55  1  0.74183873  0.61541099  0.55363817  1
  Nd3+  Nd56  1  0.24623934  0.36312172  0.56033967  1
  Nd3+  Nd57  1  0.24159973  0.86235232  0.55056127  1
  Sm3+  Sm58  1  0.86942394  0.73780489  0.43862742  1
  Sm3+  Sm59  1  0.49436900  0.11031622  0.04443131  1
  Sm3+  Sm60  1  0.49322649  0.61278350  0.55889422  1
  Sm3+  Sm61  1  0.61902625  0.24052303  0.45413276  1
  Sm3+  Sm62  1  0.11527315  0.73273426  0.94776498  1
  Sm3+  Sm63  1  0.74531970  0.86260592  0.55312364  1
  Bi2+  Bi64  1  0.06856569  0.15868456  0.28300382  1
  Bi2+  Bi65  1  -0.01944155  0.09136694  0.78920204  1
  Bi2+  Bi66  1  -0.08810555  0.37545902  0.30946930  1
  Bi2+  Bi67  1  -0.03156170  0.36743893  0.78753739  1
  Bi2+  Bi68  1  -0.02510523  0.63874883  0.28358615  1
  Bi2+  Bi69  1  0.01561666  0.64863229  0.79946835  1
  Bi2+  Bi70  1  0.00808789  0.89760426  0.29728906  1
  Bi2+  Bi71  1  -0.04104492  0.87831032  0.78687695  1
  Bi2+  Bi72  1  0.27851118  0.10795749  0.29025931  1
  Bi2+  Bi73  1  0.25082496  0.05059949  0.77348700  1
  Bi2+  Bi74  1  0.29542098  0.35523766  0.27377804  1
  Bi2+  Bi75  1  0.21074238  0.42065370  0.78501608  1
  Bi2+  Bi76  1  0.24115064  0.60808603  0.28842813  1
  Bi2+  Bi77  1  0.24601674  0.70622116  0.80608132  1
  Bi2+  Bi78  1  0.32611923  0.90806645  0.28713559  1
  Bi2+  Bi79  1  0.16196845  0.88561132  0.80333575  1
  Bi2+  Bi80  1  0.52739876  0.10056985  0.29691398  1
  Bi2+  Bi81  1  0.51092825  0.12933755  0.77790133  1
  Bi2+  Bi82  1  0.52348918  0.37265093  0.28247167  1
  Bi2+  Bi83  1  0.59850619  0.38292512  0.77700943  1
  Bi2+  Bi84  1  0.51901578  0.63360558  0.27309980  1
  Bi2+  Bi85  1  0.51236075  0.67237704  0.81688272  1
  Bi2+  Bi86  1  0.51408660  0.87492139  0.30141986  1
  Bi2+  Bi87  1  0.49471865  0.88528136  0.78877500  1
  Bi2+  Bi88  1  0.76110420  0.22566791  0.31494613  1
  Bi2+  Bi89  1  0.76975341  0.18170865  0.79159567  1
  Bi2+  Bi90  1  0.71135018  0.41739876  0.30574556  1
  Bi2+  Bi91  1  0.76053927  0.36592452  0.84320602  1
  Bi2+  Bi92  1  0.72198584  0.60430022  0.27601722  1
  Bi2+  Bi93  1  0.69649857  0.63798199  0.78443850  1
  Bi2+  Bi94  1  0.71194901  0.84310445  0.28191194  1
  Bi2+  Bi95  1  0.75788300  0.82426353  0.78376864  1
  Bi2+  Bi96  1  0.19538859  -0.01350827  0.20104971  1
  Bi2+  Bi97  1  0.10331507  -0.02413958  0.70447511  1
  Bi2+  Bi98  1  0.14949641  0.25394161  0.19878006  1
  Bi2+  Bi99  1  0.15291001  0.24768425  0.69464100  1
  Bi2+  Bi100  1  0.12530799  0.46273591  0.22210396  1
  Bi2+  Bi101  1  0.09772791  0.54486050  0.71537028  1
  Bi2+  Bi102  1  0.12833347  0.77629145  0.21174633  1
  Bi2+  Bi103  1  0.14227186  0.73661067  0.70541846  1
  Bi2+  Bi104  1  0.43837241  0.00928624  0.20835810  1
  Bi2+  Bi105  1  0.36506300  -0.05440768  0.70568887  1
  Bi2+  Bi106  1  0.42088202  0.22383001  0.22408341  1
  Bi2+  Bi107  1  0.38233415  0.29957156  0.70953525  1
  Bi2+  Bi108  1  0.47366271  0.49243025  0.19568846  1
  Bi2+  Bi109  1  0.37197045  0.57084278  0.76214879  1
  Bi2+  Bi110  1  0.38415043  0.75535278  0.21630703  1
  Bi2+  Bi111  1  0.36846169  0.74853951  0.71312462  1
  Bi2+  Bi112  1  0.70976600  -0.01476332  0.19910951  1
  Bi2+  Bi113  1  0.66904504  0.02825380  0.74311411  1
  Bi2+  Bi114  1  0.61847333  0.22378819  0.20062295  1
  Bi2+  Bi115  1  0.66367349  0.23017259  0.69939621  1
  Bi2+  Bi116  1  0.62718228  0.60836856  0.17391905  1
  Bi2+  Bi117  1  0.63320326  0.49666024  0.68750351  1
  Bi2+  Bi118  1  0.63766705  0.80693171  0.17614442  1
  Bi2+  Bi119  1  0.56705054  0.75650402  0.71357673  1
  Bi2+  Bi120  1  0.85081415  0.07251775  0.25775575  1
  Bi2+  Bi121  1  0.83795512  -0.02766564  0.69771829  1
  Bi2+  Bi122  1  0.87620987  0.25406227  0.21887417  1
  Bi2+  Bi123  1  0.88399213  0.25956653  0.70565790  1
  Bi2+  Bi124  1  0.86471488  0.50045158  0.21229480  1
  Bi2+  Bi125  1  0.83982489  0.50468096  0.77397263  1
  Bi2+  Bi126  1  0.85117636  0.75417500  0.21350914  1
  Bi2+  Bi127  1  0.84234956  0.71610385  0.70156864  1
  S2-  S128  1  0.00388593  0.22379737  0.14947943  1
  S2-  S129  1  0.10387302  0.10996394  0.64127548  1
  S2-  S130  1  0.01273715  0.47881294  0.15531821  1
  S2-  S131  1  0.01029490  0.33285675  0.65345062  1
  S2-  S132  1  0.00579496  0.72414765  0.15958352  1
  S2-  S133  1  -0.01882794  0.63863970  0.65636272  1
  S2-  S134  1  0.04698554  0.94447131  0.17479678  1
  S2-  S135  1  -0.02272725  0.89724819  0.65479868  1
  S2-  S136  1  0.23669959  0.12558960  0.15151254  1
  S2-  S137  1  0.29710428  0.17093997  0.66219853  1
  S2-  S138  1  0.24792014  0.38104090  0.16020899  1
  S2-  S139  1  0.25513100  0.37799155  0.66181845  1
  S2-  S140  1  0.18868903  0.60119849  0.18506995  1
  S2-  S141  1  0.23004400  0.61333905  0.65895253  1
  S2-  S142  1  0.25565434  0.82668378  0.15215500  1
  S2-  S143  1  0.22448583  0.87639223  0.64916222  1
  S2-  S144  1  0.51339577  0.11768043  0.14315622  1
  S2-  S145  1  0.50534896  0.18369632  0.67405438  1
  S2-  S146  1  0.60548381  0.35081431  0.13974951  1
  S2-  S147  1  0.48975809  0.39767112  0.66027858  1
  S2-  S148  1  0.38995327  0.62394102  0.14747982  1
  S2-  S149  1  0.52440490  0.61667267  0.65609341  1
  S2-  S150  1  0.47541075  0.85983365  0.15379815  1
  S2-  S151  1  0.49543403  0.96705080  0.64230998  1
  S2-  S152  1  0.74852720  0.13881456  0.15023765  1
  S2-  S153  1  0.85913394  0.11996105  0.64064422  1
  S2-  S154  1  0.83768819  0.36798819  0.14958862  1
  S2-  S155  1  0.75687201  0.36851087  0.65998156  1
  S2-  S156  1  0.83482942  0.61532843  0.14350021  1
  S2-  S157  1  0.75349668  0.60235271  0.65203740  1
  S2-  S158  1  0.84033035  0.87250078  0.14663840  1
  S2-  S159  1  0.75187040  0.84432694  0.65084188  1
  S2-  S160  1  0.09808096  0.01661140  0.34207984  1
  S2-  S161  1  0.10758035  0.07483191  0.84911710  1
  S2-  S162  1  0.19376603  0.23862280  0.33669383  1
  S2-  S163  1  0.16545452  0.25639990  0.79168842  1
  S2-  S164  1  0.09910262  0.60364506  0.34866309  1
  S2-  S165  1  0.08391355  0.40922123  0.85621407  1
  S2-  S166  1  0.13993516  0.80889259  0.31720722  1
  S2-  S167  1  0.13530414  0.62016147  0.86917340  1
  S2-  S168  1  0.38932483  0.10318896  0.36771850  1
  S2-  S169  1  0.37047476  0.09055096  0.83894922  1
  S2-  S170  1  0.39345265  0.33115343  0.35281002  1
  S2-  S171  1  0.34668635  0.34834520  0.81126635  1
  S2-  S172  1  0.23118035  0.46428020  0.34292627  1
  S2-  S173  1  0.35317561  0.58429338  0.86298541  1
  S2-  S174  1  0.35044061  0.65594349  0.35151917  1
  S2-  S175  1  0.37485627  0.86278803  0.85531016  1
  S2-  S176  1  0.63580894  -0.01758270  0.33966938  1
  S2-  S177  1  0.63818617  0.08884135  0.84590629  1
  S2-  S178  1  0.60236769  0.20976834  0.35857675  1
  S2-  S179  1  0.52322582  0.25951576  0.83883478  1
  S2-  S180  1  0.52221944  0.50547189  0.35062969  1
  S2-  S181  1  0.56029498  0.50459952  0.84241056  1
  S2-  S182  1  0.60032628  0.74016488  0.34706965  1
  S2-  S183  1  0.63472763  0.85110847  0.85585465  1
  S2-  S184  1  0.87428931  -0.01506029  0.34216394  1
  S2-  S185  1  0.87567827  -0.00808795  0.84541438  1
  S2-  S186  1  0.98295965  0.23150329  0.35923627  1
  S2-  S187  1  0.95326446  0.22929216  0.85324662  1
  S2-  S188  1  0.89229589  0.53505749  0.34967920  1
  S2-  S189  1  0.88774484  0.59984391  0.85892330  1
  S2-  S190  1  0.93491300  0.75835251  0.34786989  1
  S2-  S191  1  1.00641496  0.78014129  0.86777750  1
  S2-  S192  1  -0.00675332  0.11226463  0.45826123  1
  S2-  S193  1  0.00045775  0.11571326  0.96025329  1
  S2-  S194  1  -0.00315865  0.37083268  0.45169620  1
  S2-  S195  1  -0.00545236  0.35983401  0.96214518  1
  S2-  S196  1  -0.00742879  0.61581555  0.45520089  1
  S2-  S197  1  -0.00658225  0.60903567  0.96872208  1
  S2-  S198  1  -0.00558119  0.86305321  0.45151177  1
  S2-  S199  1  0.00014486  0.86614299  0.97146217  1
  S2-  S200  1  0.23970298  0.11534807  0.45843886  1
  S2-  S201  1  0.24558064  0.11990806  0.94283917  1
  S2-  S202  1  0.24696855  0.36571741  0.45402254  1
  S2-  S203  1  0.25045590  0.35679914  0.94513190  1
  S2-  S204  1  0.24232044  0.61702041  0.45265953  1
  S2-  S205  1  0.24799512  0.61320417  0.97151746  1
  S2-  S206  1  0.24404732  0.86370338  0.44354246  1
  S2-  S207  1  0.23856942  0.85773884  0.95052389  1
  S2-  S208  1  0.49831268  0.11566414  0.47055544  1
  S2-  S209  1  0.49287167  0.11112309  0.94269415  1
  S2-  S210  1  0.49766138  0.36464208  0.45764786  1
  S2-  S211  1  0.49341405  0.35921792  0.94967891  1
  S2-  S212  1  0.49217876  0.61318400  0.45497031  1
  S2-  S213  1  0.49902303  0.61071551  0.95784202  1
  S2-  S214  1  0.49064397  0.86679043  0.45431756  1
  S2-  S215  1  0.49608093  0.85920269  0.95084816  1
  S2-  S216  1  0.74610960  0.11693334  0.45615649  1
  S2-  S217  1  0.75164112  0.11054925  0.94881657  1
  S2-  S218  1  0.74252852  0.36519466  0.45265770  1
  S2-  S219  1  0.74291289  0.35862384  0.95708859  1
  S2-  S220  1  0.74222758  0.61556829  0.44658503  1
  S2-  S221  1  0.74208788  0.60862642  0.94903435  1
  S2-  S222  1  0.74477455  0.86161157  0.44748462  1
  S2-  S223  1  0.75460074  0.85998163  0.95461505  1
  S2-  S224  1  0.12287456  -0.01297642  0.04756577  1
  S2-  S225  1  0.11701401  -0.01460288  0.54282811  1
  S2-  S226  1  0.12233804  0.23894566  0.04903990  1
  S2-  S227  1  0.11855004  0.24413828  0.54022521  1
  S2-  S228  1  0.12447286  0.48859116  0.05315269  1
  S2-  S229  1  0.12043312  0.48950270  0.54483290  1
  S2-  S230  1  0.12137578  0.73593726  0.05346400  1
  S2-  S231  1  0.11787578  0.73908968  0.54319413  1
  S2-  S232  1  0.37233464  -0.01511560  0.03800288  1
  S2-  S233  1  0.36186758  -0.00953364  0.54748768  1
  S2-  S234  1  0.37526542  0.23532569  0.05011374  1
  S2-  S235  1  0.37019023  0.23916927  0.54719499  1
  S2-  S236  1  0.37363210  0.48479183  0.04872178  1
  S2-  S237  1  0.37001098  0.49231746  0.55330830  1
  S2-  S238  1  0.37223629  0.73998468  0.04071029  1
  S2-  S239  1  0.37136992  0.74004298  0.54842918  1
  S2-  S240  1  0.61923547  -0.01461224  0.03966964  1
  S2-  S241  1  0.62677363  -0.01105719  0.54770436  1
  S2-  S242  1  0.61642809  0.23025008  0.03135445  1
  S2-  S243  1  0.62126805  0.23893410  0.55773980  1
  S2-  S244  1  0.61804886  0.48892157  0.04203483  1
  S2-  S245  1  0.61766309  0.49106742  0.54264436  1
  S2-  S246  1  0.62136331  0.73871824  0.04019869  1
  S2-  S247  1  0.61709346  0.74119117  0.54990513  1
  S2-  S248  1  0.87067802  -0.00658277  0.05239651  1
  S2-  S249  1  0.86710758  -0.01619917  0.54391136  1
  S2-  S250  1  0.86605156  0.23153687  0.04681011  1
  S2-  S251  1  0.86703893  0.24679274  0.54151586  1
  S2-  S252  1  0.86442295  0.48221350  0.04258953  1
  S2-  S253  1  0.86784616  0.49144065  0.54960093  1
  S2-  S254  1  0.86790087  0.73884000  0.04307662  1
  S2-  S255  1  0.86809932  0.73881534  0.54326115  1
