# generated using pymatgen
data_La9Ce10Pr6Nd4Sm3(BiS2)32
_symmetry_space_group_name_H-M   'P 1'
_cell_length_a   16.20216735
_cell_length_b   16.14601641
_cell_length_c   27.16090146
_cell_angle_alpha   89.71779471
_cell_angle_beta   90.02342934
_cell_angle_gamma   90.00692626
_symmetry_Int_Tables_number   1
_chemical_formula_structural   La9Ce10Pr6Nd4Sm3(BiS2)32
_chemical_formula_sum   'La18 Ce20 Pr12 Nd8 Sm6 Bi64 S128'
_cell_volume   7105.21748325
_cell_formula_units_Z   2
loop_
 _symmetry_equiv_pos_site_id
 _symmetry_equiv_pos_as_xyz
  1  'x, y, z'
loop_
 _atom_type_symbol
 _atom_type_oxidation_number
  La3+  3.0
  Ce3+  3.0
  Pr3+  3.0
  Nd3+  3.0
  Sm3+  3.0
  Bi2+  2.0
  S2-  -2.0
loop_
 _atom_site_type_symbol
 _atom_site_label
 _atom_site_symmetry_multiplicity
 _atom_site_fract_x
 _atom_site_fract_y
 _atom_site_fract_z
 _atom_site_occupancy
  La3+  La0  1  0.51630179  0.87400276  0.07452347  1
  La3+  La1  1  0.64442992  0.51175274  0.91375933  1
  La3+  La2  1  0.01634312  0.37676379  0.07684202  1
  La3+  La3  1  0.51343771  0.12427232  0.07423009  1
  La3+  La4  1  0.11711346  0.75038438  0.42476861  1
  La3+  La5  1  0.49258744  0.62985469  0.56335527  1
  La3+  La6  1  0.63807193  0.75560376  0.93215432  1
  La3+  La7  1  0.24266213  0.36818026  0.57739486  1
  La3+  La8  1  0.76473654  0.12916091  0.07580058  1
  La3+  La9  1  0.63508784  0.25655073  0.92891646  1
  La3+  La10  1  0.37515117  0.75926160  0.38280276  1
  La3+  La11  1  0.14170006  0.49971947  0.92996028  1
  La3+  La12  1  0.13477989  0.75931794  0.93050689  1
  La3+  La13  1  0.86971368  0.50079923  0.43135471  1
  La3+  La14  1  0.73595319  0.38233754  0.56988302  1
  La3+  La15  1  0.52268187  0.61201399  0.09639992  1
  La3+  La16  1  0.86661560  0.01125670  0.41994344  1
  La3+  La17  1  0.01428307  0.12474399  0.10864119  1
  Ce3+  Ce18  1  0.75747980  0.38070448  0.05411197  1
  Ce3+  Ce19  1  -0.01040457  0.13212497  0.55155883  1
  Ce3+  Ce20  1  -0.00741672  0.38260169  0.56588472  1
  Ce3+  Ce21  1  0.23775564  0.87669451  0.55681303  1
  Ce3+  Ce22  1  0.11683794  0.00337656  0.43982373  1
  Ce3+  Ce23  1  0.36917944  0.25573091  0.43563678  1
  Ce3+  Ce24  1  0.74522075  0.13021518  0.55869780  1
  Ce3+  Ce25  1  0.51184787  0.37544169  0.04755295  1
  Ce3+  Ce26  1  0.39215510  0.75592802  0.94503553  1
  Ce3+  Ce27  1  0.12025322  0.50255643  0.44289979  1
  Ce3+  Ce28  1  0.76353789  0.87253688  0.05944018  1
  Ce3+  Ce29  1  0.38534025  0.50199693  0.93858041  1
  Ce3+  Ce30  1  0.61585348  0.75461639  0.43459099  1
  Ce3+  Ce31  1  0.14160397  0.24982764  0.95081410  1
  Ce3+  Ce32  1  0.26712831  0.37505271  0.06503112  1
  Ce3+  Ce33  1  0.76102264  0.62213751  0.05609141  1
  Ce3+  Ce34  1  0.02187208  0.62248878  0.06870574  1
  Ce3+  Ce35  1  0.36785611  -0.00002842  0.44150921  1
  Ce3+  Ce36  1  0.26286813  0.62530126  0.05329834  1
  Ce3+  Ce37  1  0.88997458  0.00445014  0.94937744  1
  Pr3+  Pr38  1  0.13968891  0.00325429  0.94749896  1
  Pr3+  Pr39  1  0.63953130  0.00746884  0.94321760  1
  Pr3+  Pr40  1  0.61393394  0.50646977  0.43646401  1
  Pr3+  Pr41  1  0.11863829  0.25804758  0.42780657  1
  Pr3+  Pr42  1  0.37552795  0.24457629  0.91235558  1
  Pr3+  Pr43  1  0.01400549  0.87435800  0.07447186  1
  Pr3+  Pr44  1  0.74596067  0.63264006  0.55493597  1
  Pr3+  Pr45  1  0.89217216  0.25206463  0.94668296  1
  Pr3+  Pr46  1  0.24149171  0.12899865  0.55514707  1
  Pr3+  Pr47  1  0.39343447  -0.00280681  0.93751494  1
  Pr3+  Pr48  1  0.49320420  0.87806071  0.56032788  1
  Pr3+  Pr49  1  0.26413300  0.12593700  0.07248193  1
  Nd3+  Nd50  1  0.26256341  0.87598799  0.06571166  1
  Nd3+  Nd51  1  -0.00146135  0.62618490  0.56686934  1
  Nd3+  Nd52  1  0.24218764  0.62912666  0.55597377  1
  Nd3+  Nd53  1  0.89476900  0.50289649  0.93527643  1
  Nd3+  Nd54  1  0.87257688  0.75393740  0.43037381  1
  Nd3+  Nd55  1  0.61041308  0.25310877  0.43654995  1
  Nd3+  Nd56  1  -0.00437487  0.87397147  0.56776883  1
  Nd3+  Nd57  1  0.50101451  0.12690056  0.56878908  1
  Sm3+  Sm58  1  0.48748607  0.37244883  0.56963590  1
  Sm3+  Sm59  1  0.89345884  0.75291275  0.95189919  1
  Sm3+  Sm60  1  0.74704579  0.87913338  0.54647212  1
  Sm3+  Sm61  1  0.85745962  0.26022970  0.43087863  1
  Sm3+  Sm62  1  0.36679701  0.50911116  0.44027381  1
  Sm3+  Sm63  1  0.61456674  0.00231331  0.43892045  1
  Bi2+  Bi64  1  -0.00654117  0.08917059  0.29520270  1
  Bi2+  Bi65  1  -0.00602808  0.09227295  0.79431206  1
  Bi2+  Bi66  1  0.04210059  0.44840304  0.31289503  1
  Bi2+  Bi67  1  -0.00520710  0.31233174  0.78059607  1
  Bi2+  Bi68  1  -0.09263526  0.61935586  0.31719668  1
  Bi2+  Bi69  1  -0.02976602  0.60977497  0.79871960  1
  Bi2+  Bi70  1  0.08305924  0.83657250  0.28104727  1
  Bi2+  Bi71  1  0.00828793  0.83360896  0.81067774  1
  Bi2+  Bi72  1  0.27928980  0.22587339  0.30888547  1
  Bi2+  Bi73  1  0.18604657  0.11753289  0.80075084  1
  Bi2+  Bi74  1  0.22466272  0.40167976  0.34243648  1
  Bi2+  Bi75  1  0.18878926  0.39939222  0.79410708  1
  Bi2+  Bi76  1  0.23075569  0.63084254  0.29005455  1
  Bi2+  Bi77  1  0.29099123  0.68209472  0.76087056  1
  Bi2+  Bi78  1  0.29615876  1.03282301  0.30036571  1
  Bi2+  Bi79  1  0.26183398  0.87236586  0.79374816  1
  Bi2+  Bi80  1  0.47382773  0.13027891  0.28913983  1
  Bi2+  Bi81  1  0.51011738  0.09271678  0.79463342  1
  Bi2+  Bi82  1  0.48632228  0.37814904  0.28473487  1
  Bi2+  Bi83  1  0.44212130  0.45535429  0.80219169  1
  Bi2+  Bi84  1  0.48295695  0.62109482  0.27449009  1
  Bi2+  Bi85  1  0.48208304  0.64337720  0.77354497  1
  Bi2+  Bi86  1  0.60480533  0.89082148  0.29924574  1
  Bi2+  Bi87  1  0.52428434  0.82734846  0.80068285  1
  Bi2+  Bi88  1  0.73798785  0.15739435  0.28503300  1
  Bi2+  Bi89  1  0.76907521  0.11990535  0.78595728  1
  Bi2+  Bi90  1  0.76981000  0.39256608  0.28727783  1
  Bi2+  Bi91  1  0.75617971  0.37305559  0.79688439  1
  Bi2+  Bi92  1  0.71613859  0.57986627  0.30612486  1
  Bi2+  Bi93  1  0.73507923  0.66615604  0.76166561  1
  Bi2+  Bi94  1  0.76416433  0.77687126  0.30670521  1
  Bi2+  Bi95  1  0.77137357  0.92268131  0.78548342  1
  Bi2+  Bi96  1  0.15932919  -0.01832405  0.21675945  1
  Bi2+  Bi97  1  0.17383436  -0.01018756  0.71372158  1
  Bi2+  Bi98  1  0.13940511  0.26299080  0.22620602  1
  Bi2+  Bi99  1  0.12692667  0.22423499  0.70729067  1
  Bi2+  Bi100  1  0.09615796  0.55852767  0.22239261  1
  Bi2+  Bi101  1  0.09972433  0.49343254  0.70599924  1
  Bi2+  Bi102  1  0.06383748  0.74291216  0.18219409  1
  Bi2+  Bi103  1  0.10530442  0.74569688  0.70462802  1
  Bi2+  Bi104  1  0.37238208  0.09808345  0.19325130  1
  Bi2+  Bi105  1  0.36044319  0.02657541  0.72972262  1
  Bi2+  Bi106  1  0.40312828  0.27497844  0.15447861  1
  Bi2+  Bi107  1  0.36789543  0.26808110  0.71758814  1
  Bi2+  Bi108  1  0.31487014  0.39688470  0.23420042  1
  Bi2+  Bi109  1  0.30492746  0.49723750  0.71817869  1
  Bi2+  Bi110  1  0.34332388  0.72688824  0.17957208  1
  Bi2+  Bi111  1  0.39461712  0.83133824  0.70967399  1
  Bi2+  Bi112  1  0.62514981  0.01444876  0.21272929  1
  Bi2+  Bi113  1  0.63446770  0.00594009  0.72173510  1
  Bi2+  Bi114  1  0.57279079  0.25463057  0.21798993  1
  Bi2+  Bi115  1  0.62956757  0.25852435  0.69524475  1
  Bi2+  Bi116  1  0.66621673  0.47249801  0.19844659  1
  Bi2+  Bi117  1  0.62817289  0.52612141  0.71374245  1
  Bi2+  Bi118  1  0.65751607  0.76403203  0.20624099  1
  Bi2+  Bi119  1  0.63517679  0.76009826  0.67997565  1
  Bi2+  Bi120  1  0.86523917  -0.03912154  0.22336299  1
  Bi2+  Bi121  1  0.90966896  -0.00369521  0.70539646  1
  Bi2+  Bi122  1  0.86352971  0.25801082  0.22056997  1
  Bi2+  Bi123  1  0.87967808  0.19147333  0.69860592  1
  Bi2+  Bi124  1  0.87025888  0.54469024  0.21374587  1
  Bi2+  Bi125  1  0.90121595  0.46572538  0.73222129  1
  Bi2+  Bi126  1  0.87685240  0.74288817  0.20973584  1
  Bi2+  Bi127  1  0.87408164  0.79779744  0.71916995  1
  S2-  S128  1  -0.13867733  0.11667732  0.16442231  1
  S2-  S129  1  0.02225454  0.11754360  0.64811941  1
  S2-  S130  1  0.00625095  0.27811205  0.16474251  1
  S2-  S131  1  0.10304435  0.35694501  0.64241444  1
  S2-  S132  1  -0.00655647  0.50951221  0.14350419  1
  S2-  S133  1  -0.03861235  0.50620466  0.64024836  1
  S2-  S134  1  0.01072963  0.96681338  0.16172714  1
  S2-  S135  1  -0.02842723  0.74426443  0.63991851  1
  S2-  S136  1  0.16943854  0.13117679  0.16156399  1
  S2-  S137  1  0.25535672  0.21404812  0.64279769  1
  S2-  S138  1  0.19809456  0.38116227  0.15648236  1
  S2-  S139  1  0.37246804  0.39717666  0.64682231  1
  S2-  S140  1  0.20142352  0.63423451  0.14523978  1
  S2-  S141  1  0.15892721  0.63342680  0.64474995  1
  S2-  S142  1  0.26803029  0.89123463  0.16636686  1
  S2-  S143  1  0.13618307  0.87671579  0.63846614  1
  S2-  S144  1  0.49728770  -0.00714641  0.15132999  1
  S2-  S145  1  0.47896828  0.21914753  0.65414230  1
  S2-  S146  1  0.54887945  0.44181080  0.13495929  1
  S2-  S147  1  0.59892363  0.39751813  0.64535067  1
  S2-  S148  1  0.41976758  0.58420618  0.18265420  1
  S2-  S149  1  0.51061832  0.62889395  0.66451946  1
  S2-  S150  1  0.51334852  0.76520401  0.15579304  1
  S2-  S151  1  0.53709091  0.89977042  0.65773166  1
  S2-  S152  1  0.64069963  0.14600455  0.14877772  1
  S2-  S153  1  0.65186784  0.11377235  0.64131087  1
  S2-  S154  1  0.77591578  0.35835928  0.15086374  1
  S2-  S155  1  0.78318076  0.31401144  0.66189913  1
  S2-  S156  1  0.68173712  0.62268322  0.14489204  1
  S2-  S157  1  0.74044595  0.60252382  0.65566157  1
  S2-  S158  1  0.73559178  0.90353764  0.15564488  1
  S2-  S159  1  0.75467512  0.85143886  0.64386923  1
  S2-  S160  1  0.09811483  -0.01335392  0.34229907  1
  S2-  S161  1  0.13498139  -0.09675478  0.86419591  1
  S2-  S162  1  0.08041398  0.21365385  0.32736038  1
  S2-  S163  1  0.21199232  0.25996977  0.86008122  1
  S2-  S164  1  0.11363502  0.59326620  0.35888383  1
  S2-  S165  1  0.01532414  0.48934413  0.85966409  1
  S2-  S166  1  0.21500627  0.77976859  0.33983983  1
  S2-  S167  1  0.10243015  0.69068110  0.83542381  1
  S2-  S168  1  0.39607754  -0.06775742  0.35194648  1
  S2-  S169  1  0.37840894  0.09615960  0.85452963  1
  S2-  S170  1  0.48511883  0.25563357  0.36196075  1
  S2-  S171  1  0.42035128  0.29600927  0.81402274  1
  S2-  S172  1  0.36572902  0.58679313  0.34952840  1
  S2-  S173  1  0.27986376  0.49539504  0.85886527  1
  S2-  S174  1  0.38283709  0.75140803  0.27133440  1
  S2-  S175  1  0.39186721  0.85827611  0.86505396  1
  S2-  S176  1  0.65412643  0.03603586  0.34454766  1
  S2-  S177  1  0.58606595  -0.04258659  0.85130219  1
  S2-  S178  1  0.70385646  0.27279117  0.35214941  1
  S2-  S179  1  0.64232349  0.18850758  0.83553318  1
  S2-  S180  1  0.56625310  0.49684805  0.33884182  1
  S2-  S181  1  0.60907668  0.40843487  0.83285521  1
  S2-  S182  1  0.54198148  0.73740798  0.34657433  1
  S2-  S183  1  0.64689243  0.66486770  0.84530643  1
  S2-  S184  1  0.87739330  -0.04653332  0.31748006  1
  S2-  S185  1  0.90918044  -0.02468884  0.85239973  1
  S2-  S186  1  0.86801903  0.14995486  0.35315211  1
  S2-  S187  1  0.87331868  0.26579635  0.84536965  1
  S2-  S188  1  0.89615570  0.37857804  0.35726832  1
  S2-  S189  1  0.79398087  0.49941689  0.85047937  1
  S2-  S190  1  0.98631838  0.76594281  0.35400105  1
  S2-  S191  1  0.88874663  0.73850847  0.85318041  1
  S2-  S192  1  -0.00611286  0.13263059  0.44804184  1
  S2-  S193  1  0.01613565  0.12636634  0.94880468  1
  S2-  S194  1  -0.00258650  0.37735789  0.45834686  1
  S2-  S195  1  0.01746821  0.37327579  0.96232466  1
  S2-  S196  1  -0.00993980  0.62481944  0.45895004  1
  S2-  S197  1  0.01474698  0.62988530  0.96043655  1
  S2-  S198  1  -0.01194629  0.88618304  0.45614324  1
  S2-  S199  1  0.01046170  0.87884071  0.96649600  1
  S2-  S200  1  0.24360101  0.12901227  0.44705792  1
  S2-  S201  1  0.26457498  0.12401711  0.96337905  1
  S2-  S202  1  0.24698256  0.37831399  0.45984185  1
  S2-  S203  1  0.26802805  0.37188993  0.96033478  1
  S2-  S204  1  0.24837710  0.63214966  0.45312580  1
  S2-  S205  1  0.26271709  0.63621155  0.94865015  1
  S2-  S206  1  0.24312552  0.88019238  0.45241470  1
  S2-  S207  1  0.26464581  0.87731406  0.96158730  1
  S2-  S208  1  0.49242283  0.12106854  0.45914332  1
  S2-  S209  1  0.51301230  0.12885120  0.95651125  1
  S2-  S210  1  0.48913594  0.38505330  0.46026039  1
  S2-  S211  1  0.50193551  0.37246304  0.94276901  1
  S2-  S212  1  0.48932930  0.63188423  0.45538307  1
  S2-  S213  1  0.50817207  0.62776080  0.93952723  1
  S2-  S214  1  0.49369447  0.87679185  0.45442202  1
  S2-  S215  1  0.51846782  0.87638801  0.96543530  1
  S2-  S216  1  0.73737453  0.12770824  0.45471582  1
  S2-  S217  1  0.76439154  0.12912666  0.95662837  1
  S2-  S218  1  0.73661556  0.38181953  0.45667916  1
  S2-  S219  1  0.76384500  0.37600254  0.94991044  1
  S2-  S220  1  0.74313040  0.63170359  0.44667597  1
  S2-  S221  1  0.76955320  0.63227697  0.95244171  1
  S2-  S222  1  0.74376940  0.88118397  0.44162277  1
  S2-  S223  1  0.76610113  0.87647925  0.95174572  1
  S2-  S224  1  0.13723242  0.00107377  0.05439765  1
  S2-  S225  1  0.11453776  0.00635439  0.54392014  1
  S2-  S226  1  0.13851418  0.24776317  0.05456697  1
  S2-  S227  1  0.11634754  0.25017859  0.53625360  1
  S2-  S228  1  0.14306095  0.49935011  0.04106541  1
  S2-  S229  1  0.12294298  0.50042639  0.54589010  1
  S2-  S230  1  0.13907414  0.75412229  0.04339694  1
  S2-  S231  1  0.11775713  0.75356087  0.53564894  1
  S2-  S232  1  0.38595874  0.00011055  0.04718288  1
  S2-  S233  1  0.36778940  0.00394086  0.55296893  1
  S2-  S234  1  0.38893646  0.24855889  0.04471578  1
  S2-  S235  1  0.37335672  0.24804290  0.54039975  1
  S2-  S236  1  0.38880563  0.50398151  0.04631259  1
  S2-  S237  1  0.36694964  0.50602134  0.54608985  1
  S2-  S238  1  0.38863655  0.74756721  0.05061916  1
  S2-  S239  1  0.36442975  0.75523406  0.56391533  1
  S2-  S240  1  0.64349079  0.00075115  0.04855439  1
  S2-  S241  1  0.62135292  -0.00111457  0.54238024  1
  S2-  S242  1  0.63742422  0.25475341  0.04055367  1
  S2-  S243  1  0.61595662  0.25396006  0.54335947  1
  S2-  S244  1  0.63708930  0.50422606  0.02879648  1
  S2-  S245  1  0.61645773  0.50940281  0.54348214  1
  S2-  S246  1  0.63889602  0.74735294  0.04233078  1
  S2-  S247  1  0.61995673  0.75668371  0.54243317  1
  S2-  S248  1  0.88869696  -0.00021161  0.05406492  1
  S2-  S249  1  0.86800706  0.00224320  0.54396167  1
  S2-  S250  1  0.89012181  0.25036143  0.05261679  1
  S2-  S251  1  0.86607160  0.25662499  0.54082570  1
  S2-  S252  1  0.88547216  0.50120926  0.04284713  1
  S2-  S253  1  0.86197602  0.50319511  0.53944855  1
  S2-  S254  1  0.88914789  0.74644990  0.05721187  1
  S2-  S255  1  0.86789862  0.75583686  0.53614441  1
