# generated using pymatgen
data_La9Ce10Pr6Nd4Sm3(BiS2)32
_symmetry_space_group_name_H-M   'P 1'
_cell_length_a   16.09565438
_cell_length_b   16.09056403
_cell_length_c   27.34604469
_cell_angle_alpha   89.73909204
_cell_angle_beta   90.10651660
_cell_angle_gamma   89.96673289
_symmetry_Int_Tables_number   1
_chemical_formula_structural   La9Ce10Pr6Nd4Sm3(BiS2)32
_chemical_formula_sum   'La18 Ce20 Pr12 Nd8 Sm6 Bi64 S128'
_cell_volume   7082.21483100
_cell_formula_units_Z   2
loop_
 _symmetry_equiv_pos_site_id
 _symmetry_equiv_pos_as_xyz
  1  'x, y, z'
loop_
 _atom_type_symbol
 _atom_type_oxidation_number
  La3+  3.0
  Ce3+  3.0
  Pr3+  3.0
  Nd3+  3.0
  Sm3+  3.0
  Bi2+  2.0
  S2-  -2.0
loop_
 _atom_site_type_symbol
 _atom_site_label
 _atom_site_symmetry_multiplicity
 _atom_site_fract_x
 _atom_site_fract_y
 _atom_site_fract_z
 _atom_site_occupancy
  La3+  La0  1  0.51927285  0.86421585  0.12383177  1
  La3+  La1  1  0.02652487  0.38306060  0.11446749  1
  La3+  La2  1  0.23495624  0.86174409  0.05817343  1
  La3+  La3  1  0.46402735  0.11485220  0.07321633  1
  La3+  La4  1  -0.02677938  0.12127705  0.06489280  1
  La3+  La5  1  0.34151821  0.72934722  0.40243614  1
  La3+  La6  1  0.08374958  0.23880789  0.92217957  1
  La3+  La7  1  0.62441451  -0.02151704  0.43140565  1
  La3+  La8  1  0.61551459  0.48879678  0.42541324  1
  La3+  La9  1  0.34663113  0.73172503  0.92466205  1
  La3+  La10  1  0.09444326  0.73721579  0.91502175  1
  La3+  La11  1  0.21376593  0.60551321  0.06261858  1
  La3+  La12  1  0.08799651  0.48966840  0.91937980  1
  La3+  La13  1  0.09779873  -0.01114949  0.92560011  1
  La3+  La14  1  0.21957142  0.11998936  0.05456575  1
  La3+  La15  1  0.74366544  0.59979694  0.56818322  1
  La3+  La16  1  0.72870958  0.61602051  0.06852876  1
  La3+  La17  1  0.24280146  0.36030118  0.56830207  1
  Ce3+  Ce18  1  0.36803961  -0.01100538  0.43804908  1
  Ce3+  Ce19  1  0.47397583  0.36166800  0.05803449  1
  Ce3+  Ce20  1  -0.00458302  0.36407768  0.55071355  1
  Ce3+  Ce21  1  0.49561462  0.86028935  0.55561899  1
  Ce3+  Ce22  1  0.35160047  0.48561141  0.92912761  1
  Ce3+  Ce23  1  0.84747010  -0.01024291  0.93035286  1
  Ce3+  Ce24  1  0.25295089  0.11518098  0.57689955  1
  Ce3+  Ce25  1  0.87335700  0.73368432  0.44811064  1
  Ce3+  Ce26  1  0.36908716  0.48483834  0.44363213  1
  Ce3+  Ce27  1  0.84255400  0.73868287  0.92841829  1
  Ce3+  Ce28  1  0.73422175  0.35681007  0.07389946  1
  Ce3+  Ce29  1  0.74392904  0.85859170  0.56749575  1
  Ce3+  Ce30  1  0.49182795  0.60953108  0.55498892  1
  Ce3+  Ce31  1  -0.01777771  0.86282467  0.05276846  1
  Ce3+  Ce32  1  0.12456099  -0.01369094  0.45668281  1
  Ce3+  Ce33  1  0.73086876  0.86552450  0.05421105  1
  Ce3+  Ce34  1  0.74652388  0.36212287  0.54696466  1
  Ce3+  Ce35  1  0.22478572  0.36415652  0.03539149  1
  Ce3+  Ce36  1  0.59546221  0.74094082  0.94675183  1
  Ce3+  Ce37  1  0.59227680  -0.01233121  0.94612466  1
  Pr3+  Pr38  1  -0.01055042  0.85948271  0.58539402  1
  Pr3+  Pr39  1  0.72140420  0.11073255  0.06285512  1
  Pr3+  Pr40  1  -0.02806796  0.61275600  0.05628077  1
  Pr3+  Pr41  1  0.87382634  -0.01443048  0.44396205  1
  Pr3+  Pr42  1  0.13508297  0.49559272  0.43884147  1
  Pr3+  Pr43  1  0.35232820  0.23864756  0.92192100  1
  Pr3+  Pr44  1  0.11791219  0.22591072  0.42707158  1
  Pr3+  Pr45  1  0.88492660  0.49815907  0.42189118  1
  Pr3+  Pr46  1  0.34575149  -0.00395974  0.92607219  1
  Pr3+  Pr47  1  -0.00366812  0.11540790  0.56556043  1
  Pr3+  Pr48  1  0.46812879  0.61767589  0.06431829  1
  Pr3+  Pr49  1  -0.01183970  0.60305395  0.58094334  1
  Nd3+  Nd50  1  0.49729763  0.11723543  0.57043780  1
  Nd3+  Nd51  1  0.24615534  0.61091534  0.58205365  1
  Nd3+  Nd52  1  0.49983738  0.36761611  0.56804032  1
  Nd3+  Nd53  1  0.86550999  0.24378195  0.41897535  1
  Nd3+  Nd54  1  0.36913624  0.23413388  0.43902378  1
  Nd3+  Nd55  1  0.83992778  0.24039275  0.93506471  1
  Nd3+  Nd56  1  0.61749469  0.23352863  0.43214294  1
  Nd3+  Nd57  1  0.74563699  0.11196931  0.55770891  1
  Sm3+  Sm58  1  0.12308517  0.73784464  0.46274090  1
  Sm3+  Sm59  1  0.62018726  0.73317542  0.44224258  1
  Sm3+  Sm60  1  0.60035867  0.48863743  0.95009532  1
  Sm3+  Sm61  1  0.84285760  0.48931956  0.94395579  1
  Sm3+  Sm62  1  0.60137362  0.23726304  0.93987157  1
  Sm3+  Sm63  1  0.25285228  0.86377362  0.57379514  1
  Bi2+  Bi64  1  -0.01371872  0.05885037  0.30076541  1
  Bi2+  Bi65  1  0.02233477  0.13097189  0.78757225  1
  Bi2+  Bi66  1  0.03436159  0.36184475  0.31073442  1
  Bi2+  Bi67  1  0.10034620  0.39500578  0.79029412  1
  Bi2+  Bi68  1  -0.03446658  0.67237181  0.26747009  1
  Bi2+  Bi69  1  -0.00514770  0.64152844  0.77889048  1
  Bi2+  Bi70  1  0.01677846  0.86267317  0.29649896  1
  Bi2+  Bi71  1  -0.03513958  0.88890015  0.77860504  1
  Bi2+  Bi72  1  0.23444451  0.14290188  0.29673272  1
  Bi2+  Bi73  1  0.28139300  0.14336282  0.78450835  1
  Bi2+  Bi74  1  0.28993854  0.42168750  0.29243509  1
  Bi2+  Bi75  1  0.28703476  0.41160474  0.75656166  1
  Bi2+  Bi76  1  0.15401992  0.61742154  0.30335949  1
  Bi2+  Bi77  1  0.26092175  0.66492695  0.79102684  1
  Bi2+  Bi78  1  0.18018950  0.96269250  0.26195689  1
  Bi2+  Bi79  1  0.27474915  0.90610751  0.77927694  1
  Bi2+  Bi80  1  0.50263882  0.18375910  0.31422848  1
  Bi2+  Bi81  1  0.58612215  0.19711212  0.78633451  1
  Bi2+  Bi82  1  0.47588032  0.37117987  0.34706266  1
  Bi2+  Bi83  1  0.49978078  0.37463885  0.78317897  1
  Bi2+  Bi84  1  0.50200861  0.54252917  0.28831489  1
  Bi2+  Bi85  1  0.56247407  0.63397587  0.78362708  1
  Bi2+  Bi86  1  0.49495706  0.86267075  0.32377864  1
  Bi2+  Bi87  1  0.58122717  0.91247095  0.76381380  1
  Bi2+  Bi88  1  0.71591285  0.10229032  0.28916332  1
  Bi2+  Bi89  1  0.76321154  0.10766094  0.80460454  1
  Bi2+  Bi90  1  0.74001025  0.43736527  0.28817104  1
  Bi2+  Bi91  1  0.70511282  0.39598244  0.78957904  1
  Bi2+  Bi92  1  0.74999555  0.71058919  0.30027702  1
  Bi2+  Bi93  1  0.76038295  0.63446888  0.81118735  1
  Bi2+  Bi94  1  0.80392022  0.89497154  0.26172466  1
  Bi2+  Bi95  1  0.77247484  0.90508994  0.80580778  1
  Bi2+  Bi96  1  0.09650730  0.05516871  0.17480404  1
  Bi2+  Bi97  1  0.13628065  0.04424282  0.70952562  1
  Bi2+  Bi98  1  0.19526266  0.21755146  0.19261244  1
  Bi2+  Bi99  1  0.03701953  0.30470406  0.69398282  1
  Bi2+  Bi100  1  0.18718833  0.50472047  0.20293592  1
  Bi2+  Bi101  1  0.11597152  0.53113017  0.70053618  1
  Bi2+  Bi102  1  0.11821960  0.76052165  0.21332809  1
  Bi2+  Bi103  1  0.14885333  0.78869644  0.70365518  1
  Bi2+  Bi104  1  0.38134405  0.00248273  0.20990126  1
  Bi2+  Bi105  1  0.45236924  0.06141643  0.74160556  1
  Bi2+  Bi106  1  0.39255016  0.29734482  0.22913809  1
  Bi2+  Bi107  1  0.37153961  0.25189137  0.69604918  1
  Bi2+  Bi108  1  0.43258768  0.48238472  0.18945028  1
  Bi2+  Bi109  1  0.43131317  0.53090725  0.72136734  1
  Bi2+  Bi110  1  0.36771150  0.74255894  0.21410766  1
  Bi2+  Bi111  1  0.43959446  0.75505767  0.72242743  1
  Bi2+  Bi112  1  0.70463410  0.01097920  0.18524549  1
  Bi2+  Bi113  1  0.63140018  0.05575822  0.68580172  1
  Bi2+  Bi114  1  0.59295417  0.25717111  0.21997443  1
  Bi2+  Bi115  1  0.66937098  0.29577429  0.69297286  1
  Bi2+  Bi116  1  0.62722358  0.45303223  0.19091794  1
  Bi2+  Bi117  1  0.69499188  0.56687241  0.70003792  1
  Bi2+  Bi118  1  0.71840056  0.62578716  0.20099324  1
  Bi2+  Bi119  1  0.62760057  0.77118884  0.68515948  1
  Bi2+  Bi120  1  0.89824599  0.03713495  0.18445149  1
  Bi2+  Bi121  1  0.81689532  0.00971040  0.70869170  1
  Bi2+  Bi122  1  0.79323681  0.28163717  0.22475138  1
  Bi2+  Bi123  1  0.86876739  0.26509269  0.75546945  1
  Bi2+  Bi124  1  0.88316060  0.51241951  0.21847024  1
  Bi2+  Bi125  1  0.91412434  0.45731795  0.75669415  1
  Bi2+  Bi126  1  0.93729982  0.84070261  0.18262897  1
  Bi2+  Bi127  1  0.81740445  0.74132282  0.72187377  1
  S2-  S128  1  0.02575165  0.21150997  0.14954792  1
  S2-  S129  1  0.01279513  0.14039798  0.66555683  1
  S2-  S130  1  0.03860104  0.41142846  0.22104028  1
  S2-  S131  1  -0.00777048  0.44659226  0.63810973  1
  S2-  S132  1  0.07849930  0.55943525  0.13211173  1
  S2-  S133  1  0.03192362  0.68575445  0.66979545  1
  S2-  S134  1  0.09920252  0.85266317  0.12996967  1
  S2-  S135  1  0.03135841  0.91829534  0.68055169  1
  S2-  S136  1  0.31124030  0.11201349  0.14205849  1
  S2-  S137  1  0.22637829  0.23994645  0.64640716  1
  S2-  S138  1  0.20620482  0.36515327  0.13385593  1
  S2-  S139  1  0.24270559  0.47434803  0.65017827  1
  S2-  S140  1  0.26784891  0.65186211  0.16090673  1
  S2-  S141  1  0.26795508  0.68855881  0.67655842  1
  S2-  S142  1  0.34138336  0.87544164  0.14515159  1
  S2-  S143  1  0.24940621  0.92136972  0.66887408  1
  S2-  S144  1  0.52128697  0.03725707  0.16068977  1
  S2-  S145  1  0.38113478  0.09656630  0.64655808  1
  S2-  S146  1  0.47046885  0.26249585  0.13805635  1
  S2-  S147  1  0.52387644  0.25412551  0.64298571  1
  S2-  S148  1  0.48644819  0.69462657  0.15476548  1
  S2-  S149  1  0.50688870  0.50768540  0.63568818  1
  S2-  S150  1  0.49724767  0.87138709  0.23068140  1
  S2-  S151  1  0.48583362  0.87161445  0.65372372  1
  S2-  S152  1  0.71356578  0.22202755  0.14306493  1
  S2-  S153  1  0.76848982  0.16025489  0.65275121  1
  S2-  S154  1  0.85745836  0.37969778  0.14920547  1
  S2-  S155  1  0.73001295  0.43274096  0.63579873  1
  S2-  S156  1  0.85850000  0.62947713  0.14073985  1
  S2-  S157  1  0.84155991  0.61313920  0.65139158  1
  S2-  S158  1  0.69344215  0.84803405  0.14991634  1
  S2-  S159  1  0.84135682  0.86508395  0.64813554  1
  S2-  S160  1  0.13022790  0.05117818  0.36500117  1
  S2-  S161  1  0.21537364  0.00162250  0.84721328  1
  S2-  S162  1  0.19323719  0.29762856  0.34265407  1
  S2-  S163  1  0.15418448  0.22972400  0.82596491  1
  S2-  S164  1  0.03872586  0.50837735  0.35506805  1
  S2-  S165  1  0.11450063  0.60253066  0.84132968  1
  S2-  S166  1  0.17174996  0.74081911  0.36754404  1
  S2-  S167  1  0.15711839  0.80335575  0.81926449  1
  S2-  S168  1  0.34431231  -0.11026606  0.35731246  1
  S2-  S169  1  0.40137030  0.11339445  0.85136070  1
  S2-  S170  1  0.36082142  0.11630981  0.36337826  1
  S2-  S171  1  0.36518334  0.36463983  0.84685642  1
  S2-  S172  1  0.27565320  0.54372210  0.36787643  1
  S2-  S173  1  0.35610703  0.59217858  0.85268791  1
  S2-  S174  1  0.42978668  0.69959480  0.31413940  1
  S2-  S175  1  0.37426484  0.78940222  0.82271170  1
  S2-  S176  1  0.57474354  0.02436077  0.33764948  1
  S2-  S177  1  0.63510003  0.00236342  0.85142238  1
  S2-  S178  1  0.72433964  0.22269244  0.35193318  1
  S2-  S179  1  0.71007776  0.25344304  0.86199834  1
  S2-  S180  1  0.65088944  0.57439807  0.33949047  1
  S2-  S181  1  0.60460208  0.48502433  0.85100645  1
  S2-  S182  1  0.65862329  0.81885302  0.35999100  1
  S2-  S183  1  0.64565341  0.73830322  0.85283442  1
  S2-  S184  1  0.82756602  -0.00316567  0.34666808  1
  S2-  S185  1  0.96952274  -0.00548230  0.85132579  1
  S2-  S186  1  0.98319574  0.20217800  0.34809841  1
  S2-  S187  1  0.94309628  0.23050665  0.84983261  1
  S2-  S188  1  0.87025230  0.38198791  0.34563439  1
  S2-  S189  1  0.88375545  0.51890207  0.84740527  1
  S2-  S190  1  0.87686840  0.65089124  0.36175530  1
  S2-  S191  1  0.94759796  0.75332184  0.84866232  1
  S2-  S192  1  -0.00657733  0.10891536  0.46026576  1
  S2-  S193  1  -0.03328049  0.11304764  0.95496810  1
  S2-  S194  1  0.00223680  0.36105210  0.44821638  1
  S2-  S195  1  -0.03755164  0.36846652  0.93916339  1
  S2-  S196  1  0.00269561  0.61637782  0.46731609  1
  S2-  S197  1  -0.03369109  0.61517909  0.94997497  1
  S2-  S198  1  -0.00173391  0.86109272  0.46476524  1
  S2-  S199  1  -0.03012810  0.86370194  0.95021966  1
  S2-  S200  1  0.24483118  0.11305740  0.46839108  1
  S2-  S201  1  0.21950529  0.12327336  0.94641006  1
  S2-  S202  1  0.24777146  0.35894796  0.45832576  1
  S2-  S203  1  0.21743702  0.36439061  0.93294195  1
  S2-  S204  1  0.25079816  0.62165931  0.47468242  1
  S2-  S205  1  0.22036956  0.60561024  0.95030256  1
  S2-  S206  1  0.24697391  0.86099395  0.46924661  1
  S2-  S207  1  0.22304295  0.86004834  0.94617299  1
  S2-  S208  1  0.50030019  0.10979778  0.46090931  1
  S2-  S209  1  0.47906606  0.11856190  0.95891334  1
  S2-  S210  1  0.49486231  0.35869629  0.45988350  1
  S2-  S211  1  0.48140791  0.36223155  0.95121123  1
  S2-  S212  1  0.48780084  0.61802054  0.44710345  1
  S2-  S213  1  0.47829607  0.61107080  0.95612126  1
  S2-  S214  1  0.49337101  0.85610751  0.45151735  1
  S2-  S215  1  0.47052810  0.86376926  0.93732923  1
  S2-  S216  1  0.74629529  0.10913357  0.45341721  1
  S2-  S217  1  0.72096102  0.10831188  0.95707528  1
  S2-  S218  1  0.74151667  0.36705937  0.44440023  1
  S2-  S219  1  0.72101046  0.36744885  0.96296582  1
  S2-  S220  1  0.74399967  0.61352618  0.45711876  1
  S2-  S221  1  0.72088022  0.61472244  0.95918252  1
  S2-  S222  1  0.75037530  0.85812548  0.46315767  1
  S2-  S223  1  0.72302676  0.86587440  0.95042504  1
  S2-  S224  1  0.09812616  -0.00710031  0.03485666  1
  S2-  S225  1  0.12126474  -0.01388622  0.56104524  1
  S2-  S226  1  0.09457814  0.24823055  0.03453329  1
  S2-  S227  1  0.11724972  0.23698984  0.54064312  1
  S2-  S228  1  0.09194348  0.47861606  0.02800701  1
  S2-  S229  1  0.12069180  0.49101313  0.54496041  1
  S2-  S230  1  0.09832706  0.73486493  0.03115198  1
  S2-  S231  1  0.12334314  0.74221533  0.56511178  1
  S2-  S232  1  0.34222648  -0.00333518  0.03232231  1
  S2-  S233  1  0.37290728  -0.01496457  0.54606636  1
  S2-  S234  1  0.34850948  0.24339687  0.03141260  1
  S2-  S235  1  0.37603168  0.24089208  0.54453022  1
  S2-  S236  1  0.35053231  0.48750799  0.04017634  1
  S2-  S237  1  0.36814963  0.48645872  0.54650159  1
  S2-  S238  1  0.34042090  0.72626441  0.03567668  1
  S2-  S239  1  0.37248492  0.73701396  0.56487943  1
  S2-  S240  1  0.59544119  -0.01742666  0.04960466  1
  S2-  S241  1  0.62177319  -0.01408566  0.54637927  1
  S2-  S242  1  0.59975198  0.23927586  0.04123236  1
  S2-  S243  1  0.62478779  0.23717120  0.53812926  1
  S2-  S244  1  0.59952517  0.48964888  0.05481273  1
  S2-  S245  1  0.61755465  0.48638865  0.53230538  1
  S2-  S246  1  0.60024190  0.74184657  0.05043132  1
  S2-  S247  1  0.62032066  0.73168983  0.54712746  1
  S2-  S248  1  0.85247012  -0.01137406  0.04274614  1
  S2-  S249  1  0.87176217  -0.01129838  0.55098236  1
  S2-  S250  1  0.84509609  0.23357296  0.04077853  1
  S2-  S251  1  0.87063672  0.23772484  0.53985466  1
  S2-  S252  1  0.84753364  0.48785944  0.04460021  1
  S2-  S253  1  0.87069631  0.48545276  0.53306674  1
  S2-  S254  1  0.85103372  0.74405684  0.03629530  1
  S2-  S255  1  0.87218800  0.73543855  0.55130816  1
