# generated using pymatgen
data_La9Ce10Pr6Nd4Sm3(BiS2)32
_symmetry_space_group_name_H-M   'P 1'
_cell_length_a   16.17142561
_cell_length_b   16.10525508
_cell_length_c   27.23762177
_cell_angle_alpha   90.51733839
_cell_angle_beta   89.87595927
_cell_angle_gamma   90.08455538
_symmetry_Int_Tables_number   1
_chemical_formula_structural   La9Ce10Pr6Nd4Sm3(BiS2)32
_chemical_formula_sum   'La18 Ce20 Pr12 Nd8 Sm6 Bi64 S128'
_cell_volume   7093.58729758
_cell_formula_units_Z   2
loop_
 _symmetry_equiv_pos_site_id
 _symmetry_equiv_pos_as_xyz
  1  'x, y, z'
loop_
 _atom_type_symbol
 _atom_type_oxidation_number
  La3+  3.0
  Ce3+  3.0
  Pr3+  3.0
  Nd3+  3.0
  Sm3+  3.0
  Bi2+  2.0
  S2-  -2.0
loop_
 _atom_site_type_symbol
 _atom_site_label
 _atom_site_symmetry_multiplicity
 _atom_site_fract_x
 _atom_site_fract_y
 _atom_site_fract_z
 _atom_site_occupancy
  La3+  La0  1  0.49382689  0.13283947  0.08435239  1
  La3+  La1  1  0.75296798  0.87525122  0.07486727  1
  La3+  La2  1  0.24583187  0.63061480  0.57810319  1
  La3+  La3  1  0.62730858  0.74779275  0.93921606  1
  La3+  La4  1  0.86832339  0.72625851  0.41825052  1
  La3+  La5  1  0.00488841  0.11950185  0.57574983  1
  La3+  La6  1  0.50214852  0.62224677  0.07256201  1
  La3+  La7  1  0.37129353  0.25514922  0.39735332  1
  La3+  La8  1  0.38494566  -0.00204025  0.93890862  1
  La3+  La9  1  0.01261556  0.88059223  0.11867240  1
  La3+  La10  1  0.13134502  0.24251781  0.90740244  1
  La3+  La11  1  -0.00808221  0.63365994  0.58529793  1
  La3+  La12  1  0.73673920  0.63465765  0.59070097  1
  La3+  La13  1  0.00720892  0.61936409  0.07751586  1
  La3+  La14  1  0.12303649  0.49962120  0.44646073  1
  La3+  La15  1  0.87291573  0.49340574  0.91352978  1
  La3+  La16  1  0.37533423  0.49734403  0.93252099  1
  La3+  La17  1  0.75265161  0.13010860  0.07450037  1
  Ce3+  Ce18  1  0.49378704  0.37365498  0.55225991  1
  Ce3+  Ce19  1  0.87833107  0.24764485  0.44882477  1
  Ce3+  Ce20  1  0.50035667  0.62582625  0.55105795  1
  Ce3+  Ce21  1  0.63214837  0.00137504  0.94157197  1
  Ce3+  Ce22  1  0.24858955  0.87539106  0.05940355  1
  Ce3+  Ce23  1  0.87446806  0.00019545  0.43325772  1
  Ce3+  Ce24  1  0.62734247  0.74832468  0.43195005  1
  Ce3+  Ce25  1  0.74782104  0.87474852  0.54885311  1
  Ce3+  Ce26  1  0.75805629  0.62440578  0.05579049  1
  Ce3+  Ce27  1  0.00517889  0.37946015  0.04822464  1
  Ce3+  Ce28  1  0.13273951  0.00009878  0.93249233  1
  Ce3+  Ce29  1  0.37969578  0.74816151  0.94861236  1
  Ce3+  Ce30  1  0.62507892  0.01112940  0.42843650  1
  Ce3+  Ce31  1  0.37439171  0.74697178  0.43170639  1
  Ce3+  Ce32  1  0.87354025  -0.00117640  0.94460992  1
  Ce3+  Ce33  1  0.50521919  0.87663087  0.07314014  1
  Ce3+  Ce34  1  0.24898357  0.87146903  0.55742330  1
  Ce3+  Ce35  1  0.00326619  0.37016434  0.58100355  1
  Ce3+  Ce36  1  0.50109784  0.87509894  0.54599870  1
  Ce3+  Ce37  1  -0.00707910  0.86906200  0.54774504  1
  Pr3+  Pr38  1  0.74717717  0.37390499  0.57005522  1
  Pr3+  Pr39  1  0.74788686  0.12588349  0.56672953  1
  Pr3+  Pr40  1  0.12366417  0.74827489  0.93823358  1
  Pr3+  Pr41  1  0.12616795  0.24655732  0.44183950  1
  Pr3+  Pr42  1  0.49371013  0.12380001  0.56450577  1
  Pr3+  Pr43  1  0.38129456  0.24520920  0.93603770  1
  Pr3+  Pr44  1  0.75634021  0.37897810  0.06490509  1
  Pr3+  Pr45  1  0.62425443  0.49619389  0.93790550  1
  Pr3+  Pr46  1  0.87706135  0.24776275  0.93831960  1
  Pr3+  Pr47  1  0.00448595  0.12377267  0.06070810  1
  Pr3+  Pr48  1  0.62503298  0.25075156  0.44136614  1
  Pr3+  Pr49  1  0.24949364  0.37587860  0.05657685  1
  Nd3+  Nd50  1  0.12290078  0.73776926  0.43551648  1
  Nd3+  Nd51  1  0.24820437  0.62605665  0.05990894  1
  Nd3+  Nd52  1  0.12679525  -0.00932039  0.43550651  1
  Nd3+  Nd53  1  0.88147860  0.74969830  0.94416075  1
  Nd3+  Nd54  1  0.25103579  0.12403375  0.56430129  1
  Nd3+  Nd55  1  0.37469503  0.00167787  0.43411112  1
  Nd3+  Nd56  1  0.25270985  0.38007126  0.56859527  1
  Nd3+  Nd57  1  0.62759382  0.24731145  0.94628136  1
  Sm3+  Sm58  1  0.13146152  0.50102055  0.92472934  1
  Sm3+  Sm59  1  0.37171993  0.50513410  0.43403389  1
  Sm3+  Sm60  1  0.50001045  0.37976017  0.06640488  1
  Sm3+  Sm61  1  0.62798748  0.49743912  0.44013724  1
  Sm3+  Sm62  1  0.87480776  0.49830218  0.46111549  1
  Sm3+  Sm63  1  0.25029173  0.12448190  0.05918937  1
  Bi2+  Bi64  1  0.03059265  0.18601797  0.29728979  1
  Bi2+  Bi65  1  -0.04016574  0.07312047  0.78463008  1
  Bi2+  Bi66  1  0.01571717  0.40168469  0.29105914  1
  Bi2+  Bi67  1  -0.03363618  0.38907253  0.78458265  1
  Bi2+  Bi68  1  -0.01696851  0.60002802  0.29769915  1
  Bi2+  Bi69  1  0.01654416  0.64884730  0.79448081  1
  Bi2+  Bi70  1  0.01656268  0.90615047  0.32064150  1
  Bi2+  Bi71  1  -0.01402264  0.87580390  0.78434547  1
  Bi2+  Bi72  1  0.21413959  0.12801637  0.26915896  1
  Bi2+  Bi73  1  0.23612645  0.10366276  0.78881775  1
  Bi2+  Bi74  1  0.21460074  0.38696478  0.28772269  1
  Bi2+  Bi75  1  0.33438732  0.35657839  0.77916457  1
  Bi2+  Bi76  1  0.23270555  0.58350675  0.28372321  1
  Bi2+  Bi77  1  0.28479948  0.62954339  0.79397774  1
  Bi2+  Bi78  1  0.24875549  0.84749325  0.26749509  1
  Bi2+  Bi79  1  0.23422626  0.90797335  0.76899977  1
  Bi2+  Bi80  1  0.50753694  0.10473148  0.29472744  1
  Bi2+  Bi81  1  0.45192436  0.13116323  0.81624319  1
  Bi2+  Bi82  1  0.47471336  0.43527441  0.27561480  1
  Bi2+  Bi83  1  0.49293815  0.43789752  0.82618185  1
  Bi2+  Bi84  1  0.46332366  0.68875232  0.29624710  1
  Bi2+  Bi85  1  0.51164989  0.64088828  0.81802978  1
  Bi2+  Bi86  1  0.41009788  0.87667534  0.32261744  1
  Bi2+  Bi87  1  0.53403092  0.97733440  0.76286060  1
  Bi2+  Bi88  1  0.77611862  0.20531279  0.29360108  1
  Bi2+  Bi89  1  0.75733688  0.15819393  0.82091112  1
  Bi2+  Bi90  1  0.72615571  0.39176716  0.30699266  1
  Bi2+  Bi91  1  0.66782448  0.38635972  0.78575770  1
  Bi2+  Bi92  1  0.70961861  0.58030738  0.27926127  1
  Bi2+  Bi93  1  0.75408220  0.66304319  0.80276379  1
  Bi2+  Bi94  1  0.61805397  0.80621024  0.29823593  1
  Bi2+  Bi95  1  0.73647300  0.98455463  0.76041961  1
  Bi2+  Bi96  1  0.25184680  -0.00429025  0.18673056  1
  Bi2+  Bi97  1  0.04521496  -0.01744235  0.69234194  1
  Bi2+  Bi98  1  0.09843754  0.20975507  0.18671776  1
  Bi2+  Bi99  1  0.11496017  0.22320031  0.71547275  1
  Bi2+  Bi100  1  0.12889213  0.41293586  0.18479247  1
  Bi2+  Bi101  1  0.16001917  0.47750595  0.70319231  1
  Bi2+  Bi102  1  0.13702078  0.70326673  0.21742636  1
  Bi2+  Bi103  1  0.13292772  0.77589688  0.70657649  1
  Bi2+  Bi104  1  0.42551767  -0.07539937  0.20990004  1
  Bi2+  Bi105  1  0.37041866  -0.03741933  0.70012107  1
  Bi2+  Bi106  1  0.37679294  0.26718238  0.20811224  1
  Bi2+  Bi107  1  0.42364024  0.22067954  0.71440053  1
  Bi2+  Bi108  1  0.38116175  0.54769709  0.20338621  1
  Bi2+  Bi109  1  0.42764986  0.48477134  0.71284830  1
  Bi2+  Bi110  1  0.42596763  0.73395101  0.18095081  1
  Bi2+  Bi111  1  0.40218086  0.74999694  0.74358539  1
  Bi2+  Bi112  1  0.65589372  -0.02625840  0.22303950  1
  Bi2+  Bi113  1  0.62694534  0.06202786  0.67221319  1
  Bi2+  Bi114  1  0.64003182  0.23224079  0.21063886  1
  Bi2+  Bi115  1  0.61718867  0.24192999  0.71420764  1
  Bi2+  Bi116  1  0.68803362  0.42302491  0.19389564  1
  Bi2+  Bi117  1  0.61167624  0.54959436  0.72797771  1
  Bi2+  Bi118  1  0.61701385  0.69414129  0.20098179  1
  Bi2+  Bi119  1  0.58968556  0.77756707  0.70319097  1
  Bi2+  Bi120  1  0.89528185  0.01572621  0.22647098  1
  Bi2+  Bi121  1  0.85170404  0.03133890  0.67046099  1
  Bi2+  Bi122  1  0.91658180  0.27199103  0.21389012  1
  Bi2+  Bi123  1  0.85674742  0.20740313  0.72145933  1
  Bi2+  Bi124  1  0.87071372  0.47084782  0.21770499  1
  Bi2+  Bi125  1  0.84513276  0.50084923  0.71117323  1
  Bi2+  Bi126  1  0.85727572  0.75010578  0.22159465  1
  Bi2+  Bi127  1  0.86321549  0.80185675  0.70798008  1
  S2-  S128  1  0.00206133  0.05597580  0.15306773  1
  S2-  S129  1  -0.01284416  0.24174673  0.65117286  1
  S2-  S130  1  -0.01786810  0.46608838  0.13424357  1
  S2-  S131  1  -0.00417842  0.44869837  0.67285669  1
  S2-  S132  1  -0.01178589  0.71712776  0.16455354  1
  S2-  S133  1  0.11493687  0.62429786  0.65938831  1
  S2-  S134  1  0.02411410  0.90774488  0.22727523  1
  S2-  S135  1  -0.00414482  0.81191871  0.64042215  1
  S2-  S136  1  0.33641465  0.14157416  0.14528125  1
  S2-  S137  1  0.14519959  0.09501825  0.64454037  1
  S2-  S138  1  0.29546150  0.38392908  0.15485151  1
  S2-  S139  1  0.20398500  0.32492164  0.66249743  1
  S2-  S140  1  0.16313966  0.59364279  0.14452194  1
  S2-  S141  1  0.28952549  0.50833125  0.64718988  1
  S2-  S142  1  0.18336765  0.84481661  0.14844888  1
  S2-  S143  1  0.25827325  0.78209238  0.64085366  1
  S2-  S144  1  0.54159477  0.08119648  0.18370634  1
  S2-  S145  1  0.37341889  0.10726280  0.64163492  1
  S2-  S146  1  0.50487969  0.27888303  0.14821377  1
  S2-  S147  1  0.48457131  0.35943514  0.65059156  1
  S2-  S148  1  0.51016984  0.49768329  0.14319928  1
  S2-  S149  1  0.57254551  0.64323907  0.64045612  1
  S2-  S150  1  0.62287231  0.86651652  0.14732554  1
  S2-  S151  1  0.48757517  0.86914745  0.64375308  1
  S2-  S152  1  0.75981374  0.05680268  0.16877062  1
  S2-  S153  1  0.74644324  0.25250941  0.64552638  1
  S2-  S154  1  0.76418168  0.26848068  0.14569761  1
  S2-  S155  1  0.72046739  0.48161954  0.65072022  1
  S2-  S156  1  0.76647190  0.65002106  0.15360772  1
  S2-  S157  1  0.86650105  0.64656222  0.66264929  1
  S2-  S158  1  0.84951743  0.87529365  0.16239583  1
  S2-  S159  1  0.72975661  0.80832373  0.64106612  1
  S2-  S160  1  0.12866315  0.04180409  0.33936010  1
  S2-  S161  1  0.09588461  0.09411861  0.85028136  1
  S2-  S162  1  0.21196382  0.25294018  0.35302275  1
  S2-  S163  1  0.08562979  0.29386439  0.81047374  1
  S2-  S164  1  0.11823007  0.60179295  0.36335466  1
  S2-  S165  1  0.06564188  0.50674864  0.83214835  1
  S2-  S166  1  0.15393443  0.82314261  0.34979779  1
  S2-  S167  1  0.14745708  0.71613798  0.83812913  1
  S2-  S168  1  0.37559973  0.09346316  0.34909369  1
  S2-  S169  1  0.27314588  -0.01333100  0.85893680  1
  S2-  S170  1  0.46220380  0.26505602  0.30200434  1
  S2-  S171  1  0.28682486  0.24260379  0.84997255  1
  S2-  S172  1  0.35764757  0.41608594  0.34821008  1
  S2-  S173  1  0.26602086  0.50256649  0.85213919  1
  S2-  S174  1  0.34530600  0.62871752  0.36053297  1
  S2-  S175  1  0.38905362  0.75793314  0.85057210  1
  S2-  S176  1  0.62356568  -0.02541960  0.32998251  1
  S2-  S177  1  0.51500784  -0.01246278  0.86766597  1
  S2-  S178  1  0.63914737  0.16777720  0.35329998  1
  S2-  S179  1  0.59629408  0.20668267  0.84958348  1
  S2-  S180  1  0.58748205  0.49689929  0.34230504  1
  S2-  S181  1  0.71270686  0.50792152  0.85237195  1
  S2-  S182  1  0.72311768  0.70399584  0.35403295  1
  S2-  S183  1  0.63892484  0.76220314  0.83827709  1
  S2-  S184  1  0.87642956  0.01681805  0.33452897  1
  S2-  S185  1  0.76013502  -0.00141926  0.86740799  1
  S2-  S186  1  0.91276295  0.27405234  0.35387536  1
  S2-  S187  1  0.85225996  0.31822163  0.84767060  1
  S2-  S188  1  0.88316203  0.55486549  0.36826794  1
  S2-  S189  1  0.88438749  0.54369114  0.81229646  1
  S2-  S190  1  0.92166015  0.76311798  0.32114193  1
  S2-  S191  1  0.87427045  0.75347029  0.84184637  1
  S2-  S192  1  0.00292516  0.11977884  0.45636069  1
  S2-  S193  1  0.00112449  0.12521254  0.95387290  1
  S2-  S194  1  0.00023760  0.37384290  0.46351226  1
  S2-  S195  1  0.00741507  0.37130407  0.94182152  1
  S2-  S196  1  -0.00447266  0.62246990  0.46930113  1
  S2-  S197  1  0.00088677  0.61951252  0.94495182  1
  S2-  S198  1  -0.00594797  0.86715952  0.44296672  1
  S2-  S199  1  0.00311802  0.87943751  0.93928400  1
  S2-  S200  1  0.24707392  0.11850503  0.45669630  1
  S2-  S201  1  0.25300502  0.12600424  0.95693887  1
  S2-  S202  1  0.25121738  0.37669136  0.45871802  1
  S2-  S203  1  0.24814110  0.36961238  0.94985352  1
  S2-  S204  1  0.24945611  0.62384881  0.46648691  1
  S2-  S205  1  0.25181259  0.62732161  0.95460228  1
  S2-  S206  1  0.25313861  0.87067178  0.45208964  1
  S2-  S207  1  0.25246470  0.86890721  0.95549803  1
  S2-  S208  1  0.49484846  0.12926510  0.45484778  1
  S2-  S209  1  0.50428442  0.12668263  0.96740402  1
  S2-  S210  1  0.49846489  0.37400528  0.44554321  1
  S2-  S211  1  0.50160711  0.37191107  0.95827704  1
  S2-  S212  1  0.50500728  0.62225501  0.44634148  1
  S2-  S213  1  0.50146004  0.62086935  0.95917090  1
  S2-  S214  1  0.50355203  0.87619435  0.44187118  1
  S2-  S215  1  0.50504677  0.86956867  0.96658546  1
  S2-  S216  1  0.75337645  0.12523040  0.45737218  1
  S2-  S217  1  0.75316298  0.12903867  0.96586028  1
  S2-  S218  1  0.75120950  0.37410536  0.45866925  1
  S2-  S219  1  0.75010506  0.37253536  0.95659370  1
  S2-  S220  1  0.74501868  0.61521620  0.46423822  1
  S2-  S221  1  0.75574371  0.62494001  0.95074171  1
  S2-  S222  1  0.74977236  0.87646744  0.44195573  1
  S2-  S223  1  0.75334859  0.86962265  0.96360680  1
  S2-  S224  1  0.12816226  -0.00056896  0.04461717  1
  S2-  S225  1  0.12217175  -0.01000110  0.54174102  1
  S2-  S226  1  0.12831652  0.24924864  0.04747390  1
  S2-  S227  1  0.12719532  0.24890267  0.54763834  1
  S2-  S228  1  0.12861670  0.50069335  0.03176000  1
  S2-  S229  1  0.12077464  0.49835314  0.55384216  1
  S2-  S230  1  0.12193902  0.74927821  0.04485603  1
  S2-  S231  1  0.12205237  0.75169240  0.54147410  1
  S2-  S232  1  0.37539082  -0.00232822  0.05052031  1
  S2-  S233  1  0.37286211  -0.00537604  0.53955849  1
  S2-  S234  1  0.37490166  0.25361832  0.04191147  1
  S2-  S235  1  0.37049305  0.25155180  0.54895097  1
  S2-  S236  1  0.37293488  0.50202192  0.04210139  1
  S2-  S237  1  0.37822427  0.50253955  0.53951142  1
  S2-  S238  1  0.37543123  0.74916310  0.05395242  1
  S2-  S239  1  0.37920474  0.74970452  0.53859130  1
  S2-  S240  1  0.62404373  0.00586911  0.05145559  1
  S2-  S241  1  0.62288426  0.00166702  0.53781934  1
  S2-  S242  1  0.62536399  0.25650124  0.05065806  1
  S2-  S243  1  0.61820735  0.24808449  0.54715099  1
  S2-  S244  1  0.63171112  0.50039765  0.04407883  1
  S2-  S245  1  0.61950349  0.49656905  0.54355275  1
  S2-  S246  1  0.62703827  0.74313082  0.04805954  1
  S2-  S247  1  0.62283866  0.75145919  0.53595081  1
  S2-  S248  1  0.87754736  -0.00000172  0.04963255  1
  S2-  S249  1  0.87397057  0.00016607  0.54103594  1
  S2-  S250  1  0.88371299  0.25379551  0.04540870  1
  S2-  S251  1  0.87636018  0.24755545  0.55040372  1
  S2-  S252  1  0.87721771  0.50055402  0.03300826  1
  S2-  S253  1  0.87508391  0.49827046  0.56215051  1
  S2-  S254  1  0.88310806  0.74776833  0.04884491  1
  S2-  S255  1  0.86558534  0.74904010  0.54000173  1
