# generated using pymatgen
data_La9Ce10Pr6Nd4Sm3(BiS2)32
_symmetry_space_group_name_H-M   'P 1'
_cell_length_a   16.16673301
_cell_length_b   16.15920710
_cell_length_c   27.20616929
_cell_angle_alpha   89.99753441
_cell_angle_beta   90.04570836
_cell_angle_gamma   89.93299596
_symmetry_Int_Tables_number   1
_chemical_formula_structural   La9Ce10Pr6Nd4Sm3(BiS2)32
_chemical_formula_sum   'La18 Ce20 Pr12 Nd8 Sm6 Bi64 S128'
_cell_volume   7107.37570644
_cell_formula_units_Z   2
loop_
 _symmetry_equiv_pos_site_id
 _symmetry_equiv_pos_as_xyz
  1  'x, y, z'
loop_
 _atom_type_symbol
 _atom_type_oxidation_number
  La3+  3.0
  Ce3+  3.0
  Pr3+  3.0
  Nd3+  3.0
  Sm3+  3.0
  Bi2+  2.0
  S2-  -2.0
loop_
 _atom_site_type_symbol
 _atom_site_label
 _atom_site_symmetry_multiplicity
 _atom_site_fract_x
 _atom_site_fract_y
 _atom_site_fract_z
 _atom_site_occupancy
  La3+  La0  1  0.86516974  0.26165685  0.39537771  1
  La3+  La1  1  -0.01705451  0.86265713  0.06684430  1
  La3+  La2  1  0.10970134  0.74434322  0.41449366  1
  La3+  La3  1  0.24298234  0.37227842  0.57675196  1
  La3+  La4  1  0.74441845  0.12526430  0.55194644  1
  La3+  La5  1  0.73381817  0.61666152  0.06753241  1
  La3+  La6  1  0.73141300  0.36149904  0.07569297  1
  La3+  La7  1  0.73970538  0.36806905  0.57167212  1
  La3+  La8  1  0.00254630  0.86388663  0.60106020  1
  La3+  La9  1  0.36453118  0.25316389  0.43054134  1
  La3+  La10  1  0.48000306  0.63367436  0.57859638  1
  La3+  La11  1  0.11549119  -0.00028949  0.44003197  1
  La3+  La12  1  0.84760213  0.73651448  0.92187539  1
  La3+  La13  1  0.37753479  0.74399122  0.41416564  1
  La3+  La14  1  0.86647097  0.00211726  0.42963643  1
  La3+  La15  1  0.11032473  0.75108753  0.92540854  1
  La3+  La16  1  0.35537393  0.23955809  0.90882607  1
  La3+  La17  1  0.47490657  0.87061433  0.08174558  1
  Ce3+  Ce18  1  0.23454245  0.12024845  0.04860135  1
  Ce3+  Ce19  1  0.86435456  0.49522638  0.44137926  1
  Ce3+  Ce20  1  0.74568178  0.62863600  0.55749147  1
  Ce3+  Ce21  1  0.61397691  0.50107032  0.44875095  1
  Ce3+  Ce22  1  0.23677328  0.87190939  0.55212828  1
  Ce3+  Ce23  1  0.09742382  -0.00952281  0.94116722  1
  Ce3+  Ce24  1  0.36368828  0.50285939  0.43948760  1
  Ce3+  Ce25  1  0.61582373  0.74948238  0.44480062  1
  Ce3+  Ce26  1  0.85518555  -0.00965186  0.94281044  1
  Ce3+  Ce27  1  0.10894761  0.49177211  0.94297816  1
  Ce3+  Ce28  1  0.23639398  0.63196990  0.55263826  1
  Ce3+  Ce29  1  0.60426115  0.24276612  0.93681333  1
  Ce3+  Ce30  1  0.36042948  0.74806471  0.94434275  1
  Ce3+  Ce31  1  0.60670307  0.74348052  0.94470869  1
  Ce3+  Ce32  1  0.48243909  0.62142990  0.06912304  1
  Ce3+  Ce33  1  -0.00841102  0.62634445  0.55589558  1
  Ce3+  Ce34  1  0.60602702  -0.00937643  0.94768422  1
  Ce3+  Ce35  1  0.48503849  0.36085868  0.06996055  1
  Ce3+  Ce36  1  0.23296524  0.61842805  0.05534070  1
  Ce3+  Ce37  1  0.86773497  0.75014844  0.43748597  1
  Pr3+  Pr38  1  -0.01447341  0.12152473  0.07298373  1
  Pr3+  Pr39  1  0.48892189  0.38039885  0.56903712  1
  Pr3+  Pr40  1  0.36386498  0.49067541  0.94093081  1
  Pr3+  Pr41  1  0.74596129  0.87734507  0.55834406  1
  Pr3+  Pr42  1  -0.00847216  0.12883747  0.55995728  1
  Pr3+  Pr43  1  0.22715673  0.86859990  0.07084752  1
  Pr3+  Pr44  1  0.61181351  0.00151670  0.43915914  1
  Pr3+  Pr45  1  0.35682021  -0.01292314  0.93187193  1
  Pr3+  Pr46  1  0.60727165  0.48652320  0.93933058  1
  Pr3+  Pr47  1  -0.01456160  0.37258954  0.56917754  1
  Pr3+  Pr48  1  0.85663460  0.48695876  0.93596271  1
  Pr3+  Pr49  1  0.11557497  0.49788218  0.44183772  1
  Nd3+  Nd50  1  0.73219758  0.11608428  0.06375578  1
  Nd3+  Nd51  1  0.10113273  0.24329023  0.92940151  1
  Nd3+  Nd52  1  0.73684510  0.86390021  0.07347410  1
  Nd3+  Nd53  1  0.48890916  0.12892219  0.56047474  1
  Nd3+  Nd54  1  -0.01762906  0.61680573  0.05206086  1
  Nd3+  Nd55  1  -0.01786054  0.36645385  0.06757630  1
  Nd3+  Nd56  1  0.48790745  0.87533482  0.56391354  1
  Nd3+  Nd57  1  0.61095224  0.25728828  0.43226422  1
  Sm3+  Sm58  1  0.36503134  -0.00130227  0.44702527  1
  Sm3+  Sm59  1  0.47870786  0.11961957  0.06269325  1
  Sm3+  Sm60  1  0.24044220  0.12836670  0.55918153  1
  Sm3+  Sm61  1  0.86036172  0.24157798  0.94186265  1
  Sm3+  Sm62  1  0.11393256  0.25330004  0.43695539  1
  Sm3+  Sm63  1  0.23560875  0.36539639  0.05627175  1
  Bi2+  Bi64  1  -0.00138351  0.12172199  0.29164835  1
  Bi2+  Bi65  1  0.05042170  0.08653209  0.73407184  1
  Bi2+  Bi66  1  0.03726806  0.43930079  0.31479230  1
  Bi2+  Bi67  1  -0.00872219  0.33536645  0.78671226  1
  Bi2+  Bi68  1  0.01688458  0.62306288  0.27349016  1
  Bi2+  Bi69  1  0.00365103  0.58997801  0.79015886  1
  Bi2+  Bi70  1  0.01518744  0.87647222  0.29814261  1
  Bi2+  Bi71  1  0.02157794  0.86447290  0.79647885  1
  Bi2+  Bi72  1  0.25136366  0.20197191  0.30998252  1
  Bi2+  Bi73  1  0.22210883  0.13860981  0.77762821  1
  Bi2+  Bi74  1  0.24100978  0.38238586  0.35216396  1
  Bi2+  Bi75  1  0.22951512  0.41517867  0.79686300  1
  Bi2+  Bi76  1  0.28930369  0.53003217  0.27732182  1
  Bi2+  Bi77  1  0.26630708  0.61664791  0.78571879  1
  Bi2+  Bi78  1  0.26768596  0.94009540  0.31140943  1
  Bi2+  Bi79  1  0.26611666  0.88809228  0.78311535  1
  Bi2+  Bi80  1  0.45208222  0.14143188  0.28152159  1
  Bi2+  Bi81  1  0.47453777  0.11250610  0.77906666  1
  Bi2+  Bi82  1  0.43986814  0.39371523  0.29759502  1
  Bi2+  Bi83  1  0.51854209  0.38904098  0.80512013  1
  Bi2+  Bi84  1  0.57154515  0.61647721  0.28285388  1
  Bi2+  Bi85  1  0.45557640  0.66836657  0.80077614  1
  Bi2+  Bi86  1  0.51068710  0.88523528  0.30187677  1
  Bi2+  Bi87  1  0.51941816  0.92532742  0.82221215  1
  Bi2+  Bi88  1  0.64536063  0.10281342  0.27743515  1
  Bi2+  Bi89  1  0.76536042  0.08953874  0.77803264  1
  Bi2+  Bi90  1  0.71406250  0.40229863  0.29331246  1
  Bi2+  Bi91  1  0.81126900  0.35307543  0.82326078  1
  Bi2+  Bi92  1  0.77371691  0.61307317  0.29394757  1
  Bi2+  Bi93  1  0.76859438  0.52525626  0.77514302  1
  Bi2+  Bi94  1  0.76647334  0.80913616  0.29241729  1
  Bi2+  Bi95  1  0.78319352  0.90042183  0.81769805  1
  Bi2+  Bi96  1  0.16855311  0.07697293  0.22654246  1
  Bi2+  Bi97  1  0.21644749  0.00390628  0.69331574  1
  Bi2+  Bi98  1  0.13454264  0.27682688  0.21837366  1
  Bi2+  Bi99  1  0.13726972  0.29188374  0.70712946  1
  Bi2+  Bi100  1  0.12828724  0.47424917  0.21497736  1
  Bi2+  Bi101  1  0.14254380  0.49120781  0.70060856  1
  Bi2+  Bi102  1  0.20534439  0.78796267  0.20815642  1
  Bi2+  Bi103  1  0.16608480  0.68762241  0.68944192  1
  Bi2+  Bi104  1  0.36010272  0.01074061  0.21028157  1
  Bi2+  Bi105  1  0.41785554  -0.02945516  0.70177725  1
  Bi2+  Bi106  1  0.35248329  0.28071378  0.21745436  1
  Bi2+  Bi107  1  0.40592783  0.26798671  0.69622804  1
  Bi2+  Bi108  1  0.48877060  0.50319156  0.19816393  1
  Bi2+  Bi109  1  0.39664838  0.53072860  0.71495737  1
  Bi2+  Bi110  1  0.38443467  0.66371348  0.21353178  1
  Bi2+  Bi111  1  0.37650009  0.77729792  0.71098530  1
  Bi2+  Bi112  1  0.65625351  -0.00603733  0.18229839  1
  Bi2+  Bi113  1  0.61670436  -0.03851725  0.72154616  1
  Bi2+  Bi114  1  0.59574979  0.25572221  0.20902640  1
  Bi2+  Bi115  1  0.70031530  0.26149986  0.74059569  1
  Bi2+  Bi116  1  0.68809949  0.54434926  0.19593114  1
  Bi2+  Bi117  1  0.65426679  0.44507562  0.70068734  1
  Bi2+  Bi118  1  0.62070300  0.80904140  0.21560574  1
  Bi2+  Bi119  1  0.61358729  0.77968470  0.76927924  1
  Bi2+  Bi120  1  0.83170155  -0.01920148  0.22527792  1
  Bi2+  Bi121  1  0.83052703  -0.02094983  0.68777017  1
  Bi2+  Bi122  1  0.87347345  0.23951571  0.19660002  1
  Bi2+  Bi123  1  0.88459567  0.19672866  0.70486316  1
  Bi2+  Bi124  1  0.89314839  0.50424194  0.21675999  1
  Bi2+  Bi125  1  0.93794766  0.48466694  0.70326140  1
  Bi2+  Bi126  1  0.87136311  0.74106516  0.20453820  1
  Bi2+  Bi127  1  0.85449594  0.72093950  0.70401214  1
  S2-  S128  1  -0.07996468  0.08120084  0.16840107  1
  S2-  S129  1  -0.01469402  0.02635918  0.64441239  1
  S2-  S130  1  0.02352602  0.25328053  0.14247683  1
  S2-  S131  1  0.01537864  0.24577162  0.64016031  1
  S2-  S132  1  -0.03087457  0.62491050  0.15177190  1
  S2-  S133  1  0.00060106  0.69417031  0.64663553  1
  S2-  S134  1  0.10392941  0.85237020  0.14685708  1
  S2-  S135  1  -0.04360797  0.86341456  0.70501117  1
  S2-  S136  1  0.25814155  0.11313681  0.14581245  1
  S2-  S137  1  0.25961728  0.22427070  0.64165153  1
  S2-  S138  1  0.24229425  0.37848693  0.15642791  1
  S2-  S139  1  0.36858519  0.40128331  0.64762951  1
  S2-  S140  1  0.23463096  0.64687943  0.15296706  1
  S2-  S141  1  0.31438885  0.63696598  0.64050613  1
  S2-  S142  1  0.32948287  0.87080622  0.15438040  1
  S2-  S143  1  0.16862008  0.84737415  0.64229747  1
  S2-  S144  1  0.46958610  0.23487932  0.14120735  1
  S2-  S145  1  0.47295509  0.12886706  0.66014462  1
  S2-  S146  1  0.60606005  0.39276078  0.14816496  1
  S2-  S147  1  0.56610369  0.32472248  0.65638161  1
  S2-  S148  1  0.49548170  0.73091415  0.14854624  1
  S2-  S149  1  0.53531944  0.55780704  0.66636119  1
  S2-  S150  1  0.48858277  1.01519810  0.14487516  1
  S2-  S151  1  0.49972672  0.77633381  0.64480222  1
  S2-  S152  1  0.72673720  0.21568320  0.14710541  1
  S2-  S153  1  0.74367388  0.18437271  0.64713889  1
  S2-  S154  1  0.86390427  0.39262760  0.14495933  1
  S2-  S155  1  0.85617804  0.38531282  0.64644592  1
  S2-  S156  1  0.72829117  0.73063858  0.14606031  1
  S2-  S157  1  0.77058306  0.61392737  0.65438335  1
  S2-  S158  1  0.86980004  0.87504362  0.14539802  1
  S2-  S159  1  0.75626509  0.83584294  0.65703382  1
  S2-  S160  1  0.10976422  0.00916509  0.33915984  1
  S2-  S161  1  0.14972487  -0.08904145  0.85948965  1
  S2-  S162  1  0.02919363  0.25351118  0.35055762  1
  S2-  S163  1  0.20603148  0.25943137  0.84762783  1
  S2-  S164  1  0.11254226  0.59133370  0.35381243  1
  S2-  S165  1  0.07575183  0.46183842  0.84815446  1
  S2-  S166  1  0.15593160  0.80166931  0.31620030  1
  S2-  S167  1  0.09624134  0.70843761  0.82535252  1
  S2-  S168  1  0.41407385  0.00921516  0.35292387  1
  S2-  S169  1  0.35077887  0.08835591  0.84541827  1
  S2-  S170  1  0.48606856  0.26073017  0.35649864  1
  S2-  S171  1  0.50393397  0.22915846  0.85066413  1
  S2-  S172  1  0.37555532  0.59317329  0.35588055  1
  S2-  S173  1  0.36837186  0.39820139  0.85396319  1
  S2-  S174  1  0.36173926  0.80791541  0.31610029  1
  S2-  S175  1  0.36571747  0.84858286  0.86250980  1
  S2-  S176  1  0.64887898  -0.02619893  0.34170646  1
  S2-  S177  1  0.65789101  0.01803666  0.85524050  1
  S2-  S178  1  0.70361437  0.27170486  0.34811292  1
  S2-  S179  1  0.64574755  0.36497630  0.86502940  1
  S2-  S180  1  0.59668827  0.47831098  0.35045705  1
  S2-  S181  1  0.54148158  0.54191083  0.84675228  1
  S2-  S182  1  0.54370459  0.74353575  0.35640179  1
  S2-  S183  1  0.69131465  0.75554639  0.85872384  1
  S2-  S184  1  0.89080659  -0.00312016  0.32886479  1
  S2-  S185  1  0.92901690  -0.01671653  0.85296855  1
  S2-  S186  1  0.86127896  0.20722319  0.29075155  1
  S2-  S187  1  0.96740503  0.22910438  0.86229357  1
  S2-  S188  1  0.86930267  0.42336159  0.35110252  1
  S2-  S189  1  0.85326424  0.58570051  0.85228429  1
  S2-  S190  1  0.95474332  0.75069371  0.35003990  1
  S2-  S191  1  0.89258077  0.77728215  0.82326223  1
  S2-  S192  1  -0.01027570  0.12907234  0.44975014  1
  S2-  S193  1  -0.02076870  0.11494939  0.96391211  1
  S2-  S194  1  -0.00879812  0.37409535  0.45847622  1
  S2-  S195  1  -0.01777483  0.36884525  0.95954230  1
  S2-  S196  1  -0.01431814  0.62075006  0.45189041  1
  S2-  S197  1  -0.01388456  0.61816148  0.94695481  1
  S2-  S198  1  -0.00911565  0.87675684  0.44351020  1
  S2-  S199  1  -0.02272244  0.86225655  0.95554566  1
  S2-  S200  1  0.24209513  0.12557378  0.45281662  1
  S2-  S201  1  0.22410751  0.11338544  0.94466343  1
  S2-  S202  1  0.23946385  0.37466088  0.46470000  1
  S2-  S203  1  0.23299450  0.36964375  0.95331721  1
  S2-  S204  1  0.24011058  0.62904517  0.45010829  1
  S2-  S205  1  0.23611217  0.61817589  0.94635684  1
  S2-  S206  1  0.24426054  0.87228693  0.44377787  1
  S2-  S207  1  0.23284519  0.86742452  0.96412308  1
  S2-  S208  1  0.48814178  0.12340812  0.45552816  1
  S2-  S209  1  0.48136564  0.11256258  0.95673124  1
  S2-  S210  1  0.48743738  0.38133095  0.46006857  1
  S2-  S211  1  0.48226108  0.36440739  0.96173074  1
  S2-  S212  1  0.49380842  0.62629979  0.46417307  1
  S2-  S213  1  0.48100075  0.62115170  0.96075412  1
  S2-  S214  1  0.48938086  0.87643215  0.45715469  1
  S2-  S215  1  0.48542753  0.86655422  0.96577186  1
  S2-  S216  1  0.73974549  0.12744540  0.44316037  1
  S2-  S217  1  0.73530596  0.12160766  0.95651726  1
  S2-  S218  1  0.73902973  0.37605891  0.45947063  1
  S2-  S219  1  0.73903632  0.36273046  0.96676697  1
  S2-  S220  1  0.74187301  0.62535801  0.44929204  1
  S2-  S221  1  0.72848654  0.61248404  0.95778662  1
  S2-  S222  1  0.74078104  0.87544643  0.45056739  1
  S2-  S223  1  0.73193430  0.86796896  0.96346568  1
  S2-  S224  1  0.10559686  -0.00335809  0.04856316  1
  S2-  S225  1  0.11911633  0.00183428  0.54663500  1
  S2-  S226  1  0.11269922  0.24657220  0.03684030  1
  S2-  S227  1  0.12120234  0.25017201  0.54004981  1
  S2-  S228  1  0.10957588  0.49014725  0.05065728  1
  S2-  S229  1  0.11505831  0.49933139  0.55240704  1
  S2-  S230  1  0.10809257  0.73747192  0.03776466  1
  S2-  S231  1  0.10958448  0.75332038  0.53351821  1
  S2-  S232  1  0.35553330  -0.00543333  0.04108894  1
  S2-  S233  1  0.36268977  0.00192186  0.55190914  1
  S2-  S234  1  0.35491444  0.24383492  0.03879765  1
  S2-  S235  1  0.36887268  0.24992364  0.54035494  1
  S2-  S236  1  0.35835819  0.49195493  0.05027357  1
  S2-  S237  1  0.36181681  0.50454043  0.54438106  1
  S2-  S238  1  0.35534794  0.74146038  0.04796513  1
  S2-  S239  1  0.36220559  0.75632764  0.53731792  1
  S2-  S240  1  0.61094933  -0.00963164  0.04995424  1
  S2-  S241  1  0.61327123  -0.00011154  0.55004248  1
  S2-  S242  1  0.60601280  0.23667833  0.04240383  1
  S2-  S243  1  0.61268601  0.24828514  0.54055945  1
  S2-  S244  1  0.60394468  0.49684499  0.04660438  1
  S2-  S245  1  0.62083173  0.50345105  0.55344030  1
  S2-  S246  1  0.60761729  0.74525002  0.04724607  1
  S2-  S247  1  0.62013513  0.75203509  0.54835745  1
  S2-  S248  1  0.85655397  -0.00561222  0.04783023  1
  S2-  S249  1  0.86881796  -0.00147493  0.53916107  1
  S2-  S250  1  0.86037224  0.23919937  0.04543655  1
  S2-  S251  1  0.86464264  0.24996525  0.54159701  1
  S2-  S252  1  0.85826417  0.49467801  0.04305778  1
  S2-  S253  1  0.86616060  0.50288385  0.54528733  1
  S2-  S254  1  0.85828208  0.73818027  0.03927163  1
  S2-  S255  1  0.87172102  0.75551551  0.54404521  1
