# generated using pymatgen
data_La9Ce10Pr6Nd4Sm3(BiS2)32
_symmetry_space_group_name_H-M   'P 1'
_cell_length_a   16.14960766
_cell_length_b   16.10766061
_cell_length_c   27.36630112
_cell_angle_alpha   90.22114779
_cell_angle_beta   90.05756218
_cell_angle_gamma   90.01828373
_symmetry_Int_Tables_number   1
_chemical_formula_structural   La9Ce10Pr6Nd4Sm3(BiS2)32
_chemical_formula_sum   'La18 Ce20 Pr12 Nd8 Sm6 Bi64 S128'
_cell_volume   7118.80457546
_cell_formula_units_Z   2
loop_
 _symmetry_equiv_pos_site_id
 _symmetry_equiv_pos_as_xyz
  1  'x, y, z'
loop_
 _atom_type_symbol
 _atom_type_oxidation_number
  La3+  3.0
  Ce3+  3.0
  Pr3+  3.0
  Nd3+  3.0
  Sm3+  3.0
  Bi2+  2.0
  S2-  -2.0
loop_
 _atom_site_type_symbol
 _atom_site_label
 _atom_site_symmetry_multiplicity
 _atom_site_fract_x
 _atom_site_fract_y
 _atom_site_fract_z
 _atom_site_occupancy
  La3+  La0  1  0.50207433  0.12619539  0.56512342  1
  La3+  La1  1  0.37949635  0.75935133  0.42804238  1
  La3+  La2  1  0.25485947  0.60559302  0.09304805  1
  La3+  La3  1  0.50537622  0.36618341  0.06925311  1
  La3+  La4  1  -0.02005226  0.60980568  0.11076390  1
  La3+  La5  1  0.62265185  0.48719391  0.92448550  1
  La3+  La6  1  0.25730223  0.38162491  0.57097566  1
  La3+  La7  1  0.00382014  0.38292326  0.58533841  1
  La3+  La8  1  0.00143718  0.87687253  0.09107714  1
  La3+  La9  1  0.35588238  0.72869002  0.93577848  1
  La3+  La10  1  0.74443586  0.11203623  0.06878232  1
  La3+  La11  1  0.63300233  0.00461905  0.42593096  1
  La3+  La12  1  0.62334497  0.26289954  0.38981218  1
  La3+  La13  1  0.61915096  -0.01618638  0.92748510  1
  La3+  La14  1  0.25325424  0.63666944  0.55768545  1
  La3+  La15  1  0.12510641  0.24772134  0.89216779  1
  La3+  La16  1  0.24225308  0.11261144  0.06685094  1
  La3+  La17  1  0.12686018  0.00928326  0.42202567  1
  Ce3+  Ce18  1  0.36959186  0.23831125  0.94666417  1
  Ce3+  Ce19  1  0.00547202  0.87493835  0.55368778  1
  Ce3+  Ce20  1  0.49735647  0.61442076  0.05296740  1
  Ce3+  Ce21  1  0.50452708  0.88007228  0.56675842  1
  Ce3+  Ce22  1  0.88058264  0.75143313  0.43661131  1
  Ce3+  Ce23  1  0.49752204  0.86017678  0.05326604  1
  Ce3+  Ce24  1  0.12183804  0.48941896  0.95046555  1
  Ce3+  Ce25  1  0.36508436  -0.01098066  0.94650838  1
  Ce3+  Ce26  1  0.62676590  0.50396847  0.43448343  1
  Ce3+  Ce27  1  0.38018252  0.01023254  0.44361865  1
  Ce3+  Ce28  1  0.36558167  0.48147790  0.94658258  1
  Ce3+  Ce29  1  0.12750879  0.50109318  0.44127391  1
  Ce3+  Ce30  1  0.62662226  0.23135716  0.93103587  1
  Ce3+  Ce31  1  0.87076818  0.23923491  0.93387074  1
  Ce3+  Ce32  1  0.87490207  0.48430130  0.94678710  1
  Ce3+  Ce33  1  0.24572981  0.85892631  0.06567330  1
  Ce3+  Ce34  1  -0.00519099  0.11557007  0.05480373  1
  Ce3+  Ce35  1  0.87285144  -0.01111485  0.94128483  1
  Ce3+  Ce36  1  0.87471466  0.00759717  0.44475269  1
  Ce3+  Ce37  1  0.74299798  0.61613343  0.05667597  1
  Pr3+  Pr38  1  0.00361829  0.63384911  0.56528183  1
  Pr3+  Pr39  1  0.87240770  0.73921498  0.94722497  1
  Pr3+  Pr40  1  0.24173757  0.12273638  0.56958448  1
  Pr3+  Pr41  1  0.62847200  0.75644719  0.43117731  1
  Pr3+  Pr42  1  0.87868812  0.49878009  0.44324241  1
  Pr3+  Pr43  1  0.49621591  0.11292431  0.06043480  1
  Pr3+  Pr44  1  0.12852801  0.25645639  0.44221960  1
  Pr3+  Pr45  1  0.38039720  0.50260251  0.43385341  1
  Pr3+  Pr46  1  0.11744559  0.74241687  0.41329258  1
  Pr3+  Pr47  1  0.61834743  0.73807049  0.92536812  1
  Pr3+  Pr48  1  0.87751369  0.25599972  0.43419102  1
  Pr3+  Pr49  1  0.74999603  0.13208467  0.55979071  1
  Nd3+  Nd50  1  0.73991380  0.86691637  0.06806201  1
  Nd3+  Nd51  1  0.37955429  0.25323788  0.44509825  1
  Nd3+  Nd52  1  0.74873177  0.37947941  0.55649945  1
  Nd3+  Nd53  1  0.50555564  0.63502037  0.56128024  1
  Nd3+  Nd54  1  -0.00128795  0.13733762  0.56650391  1
  Nd3+  Nd55  1  0.11937481  0.73320047  0.96051837  1
  Nd3+  Nd56  1  -0.00620831  0.36530867  0.06331691  1
  Nd3+  Nd57  1  0.24309388  0.36470367  0.06642777  1
  Sm3+  Sm58  1  0.24903332  0.87759725  0.54221706  1
  Sm3+  Sm59  1  0.50175223  0.38972198  0.56681716  1
  Sm3+  Sm60  1  0.74583664  0.35901480  0.06422929  1
  Sm3+  Sm61  1  0.75125567  0.63010551  0.55284864  1
  Sm3+  Sm62  1  0.12043839  -0.00773879  0.93839146  1
  Sm3+  Sm63  1  0.75119384  0.87941175  0.55476920  1
  Bi2+  Bi64  1  -0.01831209  0.19232010  0.30491169  1
  Bi2+  Bi65  1  -0.01250216  0.09825388  0.79172400  1
  Bi2+  Bi66  1  0.01870665  0.37097450  0.35008504  1
  Bi2+  Bi67  1  -0.02079930  0.38874107  0.79232517  1
  Bi2+  Bi68  1  -0.01161903  0.60836275  0.29665035  1
  Bi2+  Bi69  1  0.05309826  0.65546648  0.77851903  1
  Bi2+  Bi70  1  -0.08523553  0.83613843  0.25480727  1
  Bi2+  Bi71  1  0.05325839  0.85324945  0.79897496  1
  Bi2+  Bi72  1  0.26245732  0.09102666  0.30991080  1
  Bi2+  Bi73  1  0.28429553  0.07802577  0.80011407  1
  Bi2+  Bi74  1  0.19922448  0.35351313  0.30859318  1
  Bi2+  Bi75  1  0.23838961  0.41018685  0.78755280  1
  Bi2+  Bi76  1  0.24757122  0.61789974  0.28549304  1
  Bi2+  Bi77  1  0.29529108  0.64566569  0.80160821  1
  Bi2+  Bi78  1  0.28216645  0.86996037  0.29178876  1
  Bi2+  Bi79  1  0.24728409  0.86210284  0.76993880  1
  Bi2+  Bi80  1  0.48020363  0.14018945  0.28060213  1
  Bi2+  Bi81  1  0.49670479  0.21322439  0.80061035  1
  Bi2+  Bi82  1  0.48479067  0.48056633  0.30824269  1
  Bi2+  Bi83  1  0.51871319  0.41807718  0.79272287  1
  Bi2+  Bi84  1  0.51649685  0.67086773  0.28880019  1
  Bi2+  Bi85  1  0.52333194  0.66604747  0.76852423  1
  Bi2+  Bi86  1  0.51300278  0.89489846  0.27028041  1
  Bi2+  Bi87  1  0.52035788  0.93968394  0.77949199  1
  Bi2+  Bi88  1  0.74533296  0.11272999  0.28248546  1
  Bi2+  Bi89  1  0.73457588  0.11809984  0.79181810  1
  Bi2+  Bi90  1  0.77564399  0.37437485  0.28018863  1
  Bi2+  Bi91  1  0.71162342  0.38977289  0.80246009  1
  Bi2+  Bi92  1  0.70470507  0.67316401  0.31466377  1
  Bi2+  Bi93  1  0.76945486  0.61576200  0.79618068  1
  Bi2+  Bi94  1  0.73761109  0.86940637  0.29621132  1
  Bi2+  Bi95  1  0.76556704  0.84690139  0.78490613  1
  Bi2+  Bi96  1  0.10444705  0.01276581  0.21899023  1
  Bi2+  Bi97  1  0.11599008  -0.02691817  0.71388816  1
  Bi2+  Bi98  1  0.10897710  0.22921669  0.21557651  1
  Bi2+  Bi99  1  0.12441610  0.22635218  0.69685309  1
  Bi2+  Bi100  1  0.09924784  0.43145602  0.22170600  1
  Bi2+  Bi101  1  0.14610597  0.51846035  0.70810453  1
  Bi2+  Bi102  1  0.12325257  0.76314131  0.20981690  1
  Bi2+  Bi103  1  0.17219147  0.73191195  0.68370497  1
  Bi2+  Bi104  1  0.36568777  -0.00228441  0.21047164  1
  Bi2+  Bi105  1  0.41982623  0.07653394  0.71792740  1
  Bi2+  Bi106  1  0.30446841  0.27255058  0.22165795  1
  Bi2+  Bi107  1  0.36979750  0.28898981  0.72247659  1
  Bi2+  Bi108  1  0.37920567  0.46178900  0.21015918  1
  Bi2+  Bi109  1  0.41947051  0.52371348  0.71050094  1
  Bi2+  Bi110  1  0.43061186  0.82638459  0.17634653  1
  Bi2+  Bi111  1  0.41729927  0.81212702  0.71878596  1
  Bi2+  Bi112  1  0.64406506  -0.00341817  0.20445564  1
  Bi2+  Bi113  1  0.65278284  0.02522696  0.70595201  1
  Bi2+  Bi114  1  0.62116799  0.26380891  0.18816737  1
  Bi2+  Bi115  1  0.61551364  0.29207770  0.71910090  1
  Bi2+  Bi116  1  0.62152188  0.50469774  0.22648092  1
  Bi2+  Bi117  1  0.67368281  0.51487576  0.70045076  1
  Bi2+  Bi118  1  0.56849059  0.67461660  0.17457430  1
  Bi2+  Bi119  1  0.65356952  0.76330159  0.70185783  1
  Bi2+  Bi120  1  0.91349334  0.03380073  0.24116103  1
  Bi2+  Bi121  1  0.92040623  -0.04609878  0.72562835  1
  Bi2+  Bi122  1  0.92086080  0.30076717  0.21402096  1
  Bi2+  Bi123  1  0.82605181  0.26097613  0.71271139  1
  Bi2+  Bi124  1  0.81515365  0.55850393  0.24374200  1
  Bi2+  Bi125  1  0.91287212  0.53438685  0.73298330  1
  Bi2+  Bi126  1  0.74470353  0.75087981  0.20272563  1
  Bi2+  Bi127  1  0.91887184  0.75794601  0.71719281  1
  S2-  S128  1  -0.00443909  0.03959361  0.14411906  1
  S2-  S129  1  0.10848389  0.08069338  0.63666616  1
  S2-  S130  1  -0.03422732  0.43639847  0.15410501  1
  S2-  S131  1  -0.03222116  0.25108944  0.65164189  1
  S2-  S132  1  0.06540602  0.60180758  0.20215305  1
  S2-  S133  1  0.00009616  0.52748023  0.64709962  1
  S2-  S134  1  -0.03596496  0.76999924  0.16632947  1
  S2-  S135  1  0.01915034  0.77010117  0.63334539  1
  S2-  S136  1  0.28559916  0.12460246  0.16417708  1
  S2-  S137  1  0.29084412  0.17464036  0.66492339  1
  S2-  S138  1  0.23591907  0.45675366  0.15211688  1
  S2-  S139  1  0.15026967  0.37649899  0.65236562  1
  S2-  S140  1  0.25838005  0.68675833  0.18743212  1
  S2-  S141  1  0.28379015  0.59850209  0.65536911  1
  S2-  S142  1  0.16303582  0.89822946  0.14984437  1
  S2-  S143  1  0.25052641  0.85381316  0.63929569  1
  S2-  S144  1  0.54687946  0.12157983  0.15664082  1
  S2-  S145  1  0.51264205  0.00662444  0.63984183  1
  S2-  S146  1  0.43630530  0.32882110  0.16228635  1
  S2-  S147  1  0.38585268  0.38376071  0.64362829  1
  S2-  S148  1  0.42776269  0.58606072  0.14189501  1
  S2-  S149  1  0.53468225  0.52070105  0.63780384  1
  S2-  S150  1  0.59347791  0.86839239  0.13476349  1
  S2-  S151  1  0.50453836  0.75565041  0.63711518  1
  S2-  S152  1  0.75967546  0.23863370  0.14175657  1
  S2-  S153  1  0.77285389  0.12558767  0.66038287  1
  S2-  S154  1  0.63926925  0.41257860  0.13942438  1
  S2-  S155  1  0.76855783  0.39653262  0.65563889  1
  S2-  S156  1  0.81191533  0.61150663  0.14709698  1
  S2-  S157  1  0.75008938  0.64338010  0.65076151  1
  S2-  S158  1  0.76721084  0.98881173  0.14161309  1
  S2-  S159  1  0.72213153  0.88955916  0.65122539  1
  S2-  S160  1  0.14190681  -0.03571397  0.32077481  1
  S2-  S161  1  0.12696562  0.07785639  0.85181144  1
  S2-  S162  1  0.13715587  0.15428840  0.35919423  1
  S2-  S163  1  0.16241166  0.26151575  0.78697665  1
  S2-  S164  1  0.11986409  0.58469380  0.35413426  1
  S2-  S165  1  0.11264579  0.42736003  0.85730678  1
  S2-  S166  1  0.16507718  0.76266089  0.31317261  1
  S2-  S167  1  0.20403481  0.68469903  0.87730034  1
  S2-  S168  1  0.38856632  -0.02381481  0.34855643  1
  S2-  S169  1  0.38573999  -0.01873031  0.84933046  1
  S2-  S170  1  0.37594689  0.21586974  0.34711077  1
  S2-  S171  1  0.33555910  0.22485072  0.85195730  1
  S2-  S172  1  0.31288687  0.48388134  0.34058999  1
  S2-  S173  1  0.35001894  0.49851682  0.84962205  1
  S2-  S174  1  0.36232374  0.72139993  0.32969930  1
  S2-  S175  1  0.42403119  0.73233203  0.84179981  1
  S2-  S176  1  0.60227461  0.10404254  0.34358569  1
  S2-  S177  1  0.60431804  0.10757181  0.85577261  1
  S2-  S178  1  0.56392387  0.27489795  0.28638339  1
  S2-  S179  1  0.75143128  0.24934037  0.85962984  1
  S2-  S180  1  0.64539336  0.42988742  0.34804935  1
  S2-  S181  1  0.62762112  0.61418192  0.85107866  1
  S2-  S182  1  0.59548198  0.87210571  0.35729673  1
  S2-  S183  1  0.62954016  0.86261603  0.85023484  1
  S2-  S184  1  0.79884665  0.00711620  0.35743220  1
  S2-  S185  1  0.85633396  0.02507784  0.84569315  1
  S2-  S186  1  0.78276296  0.24599569  0.34614858  1
  S2-  S187  1  0.96562474  0.24718759  0.84742099  1
  S2-  S188  1  0.87923279  0.48881329  0.34261175  1
  S2-  S189  1  0.85663614  0.47556746  0.84895096  1
  S2-  S190  1  0.96230266  0.75048534  0.35038276  1
  S2-  S191  1  0.84633845  0.74172475  0.84598977  1
  S2-  S192  1  -0.00174668  0.13102826  0.45771644  1
  S2-  S193  1  -0.00131697  0.11553848  0.95221117  1
  S2-  S194  1  0.00298762  0.37844054  0.46679950  1
  S2-  S195  1  0.00083643  0.36041789  0.95824611  1
  S2-  S196  1  -0.00010782  0.62471189  0.45826398  1
  S2-  S197  1  -0.00370626  0.61244162  0.94750575  1
  S2-  S198  1  -0.00010999  0.88255773  0.44649827  1
  S2-  S199  1  0.00194737  0.86317071  0.94800176  1
  S2-  S200  1  0.25482281  0.12978454  0.46171803  1
  S2-  S201  1  0.24183710  0.11588351  0.95906564  1
  S2-  S202  1  0.25531332  0.37905495  0.45839520  1
  S2-  S203  1  0.23894707  0.35643909  0.95920594  1
  S2-  S204  1  0.25587631  0.63026965  0.44850391  1
  S2-  S205  1  0.24622402  0.60281051  0.97955544  1
  S2-  S206  1  0.24854727  0.87827329  0.43797589  1
  S2-  S207  1  0.23997435  0.86531297  0.95803951  1
  S2-  S208  1  0.50685798  0.13396903  0.45651874  1
  S2-  S209  1  0.48974508  0.11201050  0.95526251  1
  S2-  S210  1  0.50634321  0.37452943  0.45259274  1
  S2-  S211  1  0.49778591  0.36072506  0.95059717  1
  S2-  S212  1  0.50417103  0.63097361  0.44715176  1
  S2-  S213  1  0.49022232  0.60841398  0.94923001  1
  S2-  S214  1  0.50004745  0.88308631  0.45967989  1
  S2-  S215  1  0.48672755  0.85919771  0.94990534  1
  S2-  S216  1  0.75085241  0.13552150  0.45511901  1
  S2-  S217  1  0.74904539  0.10977113  0.95860777  1
  S2-  S218  1  0.74811090  0.37603896  0.45202119  1
  S2-  S219  1  0.74541756  0.36573744  0.95976664  1
  S2-  S220  1  0.75412927  0.62742659  0.44811291  1
  S2-  S221  1  0.74967937  0.61216681  0.95243239  1
  S2-  S222  1  0.75794921  0.87451054  0.45164339  1
  S2-  S223  1  0.74816534  0.86404420  0.95771993  1
  S2-  S224  1  0.11980528  -0.01138959  0.04142670  1
  S2-  S225  1  0.12380690  -0.00254982  0.53107299  1
  S2-  S226  1  0.11774198  0.24027585  0.06663416  1
  S2-  S227  1  0.12681337  0.25539127  0.54797162  1
  S2-  S228  1  0.11182233  0.49375442  0.05607010  1
  S2-  S229  1  0.13116074  0.50787572  0.54627869  1
  S2-  S230  1  0.11652301  0.73251615  0.06474040  1
  S2-  S231  1  0.12787214  0.75509663  0.52680804  1
  S2-  S232  1  0.36997272  -0.01434030  0.05315379  1
  S2-  S233  1  0.36967236  0.00230827  0.54834891  1
  S2-  S234  1  0.36936849  0.24015291  0.05203767  1
  S2-  S235  1  0.38003640  0.25216553  0.54942327  1
  S2-  S236  1  0.37421135  0.47943878  0.04844018  1
  S2-  S237  1  0.38144220  0.51079357  0.53990513  1
  S2-  S238  1  0.36919380  0.73706078  0.04777782  1
  S2-  S239  1  0.37791902  0.75810323  0.53642502  1
  S2-  S240  1  0.61803794  -0.01060613  0.03657025  1
  S2-  S241  1  0.63267556  0.00336691  0.53832047  1
  S2-  S242  1  0.61997806  0.23773611  0.03961371  1
  S2-  S243  1  0.62113711  0.25867873  0.56412574  1
  S2-  S244  1  0.62178039  0.49416335  0.03353670  1
  S2-  S245  1  0.62977684  0.50692971  0.53798370  1
  S2-  S246  1  0.62159498  0.73784173  0.03473323  1
  S2-  S247  1  0.63271144  0.75496867  0.53749537  1
  S2-  S248  1  0.87689947  -0.01612509  0.04329045  1
  S2-  S249  1  0.87801730  0.00335046  0.55178790  1
  S2-  S250  1  0.87362257  0.23951992  0.04238777  1
  S2-  S251  1  0.87346295  0.25854907  0.54321534  1
  S2-  S252  1  0.86579307  0.48800897  0.04968305  1
  S2-  S253  1  0.87240052  0.50582010  0.54853814  1
  S2-  S254  1  0.87207533  0.74514013  0.05222399  1
  S2-  S255  1  0.87254386  0.75457696  0.54266152  1
