# generated using pymatgen
data_La9Ce10Pr6Nd4Sm3(BiS2)32
_symmetry_space_group_name_H-M   'P 1'
_cell_length_a   16.18207650
_cell_length_b   16.19913358
_cell_length_c   27.12994777
_cell_angle_alpha   89.96085667
_cell_angle_beta   90.05099286
_cell_angle_gamma   90.03605585
_symmetry_Int_Tables_number   1
_chemical_formula_structural   La9Ce10Pr6Nd4Sm3(BiS2)32
_chemical_formula_sum   'La18 Ce20 Pr12 Nd8 Sm6 Bi64 S128'
_cell_volume   7111.71976390
_cell_formula_units_Z   2
loop_
 _symmetry_equiv_pos_site_id
 _symmetry_equiv_pos_as_xyz
  1  'x, y, z'
loop_
 _atom_type_symbol
 _atom_type_oxidation_number
  La3+  3.0
  Ce3+  3.0
  Pr3+  3.0
  Nd3+  3.0
  Sm3+  3.0
  Bi2+  2.0
  S2-  -2.0
loop_
 _atom_site_type_symbol
 _atom_site_label
 _atom_site_symmetry_multiplicity
 _atom_site_fract_x
 _atom_site_fract_y
 _atom_site_fract_z
 _atom_site_occupancy
  La3+  La0  1  0.72609097  0.14016029  0.07791347  1
  La3+  La1  1  0.25482162  0.61712052  0.57042571  1
  La3+  La2  1  0.85789712  0.76084178  0.92335485  1
  La3+  La3  1  0.72916025  0.86833224  0.08143235  1
  La3+  La4  1  0.76074779  0.87284996  0.56873082  1
  La3+  La5  1  0.25079310  0.86715290  0.57267997  1
  La3+  La6  1  0.88376948  -0.01516830  0.41409491  1
  La3+  La7  1  0.35247203  0.50611980  0.91386608  1
  La3+  La8  1  0.35019559  0.24049602  0.92238926  1
  La3+  La9  1  0.60622077  0.24670937  0.91487414  1
  La3+  La10  1  0.75105719  0.61898641  0.55784148  1
  La3+  La11  1  0.12671276  0.49799157  0.42368625  1
  La3+  La12  1  0.00528074  0.87297696  0.56374896  1
  La3+  La13  1  0.12572535  0.25074240  0.41803236  1
  La3+  La14  1  -0.01996560  0.86276635  0.07647208  1
  La3+  La15  1  0.62234412  0.75390563  0.39277367  1
  La3+  La16  1  0.48180408  0.37712462  0.04372442  1
  La3+  La17  1  -0.02328149  0.13086700  0.08686163  1
  Ce3+  Ce18  1  0.11460365  0.50040538  0.94691489  1
  Ce3+  Ce19  1  0.63045885  -0.00647922  0.44484738  1
  Ce3+  Ce20  1  0.11125300  0.75403201  0.94506057  1
  Ce3+  Ce21  1  0.13090441  0.74476762  0.43765994  1
  Ce3+  Ce22  1  0.13203242  -0.00057275  0.42722490  1
  Ce3+  Ce23  1  0.50335878  0.12664182  0.56051914  1
  Ce3+  Ce24  1  0.63121406  0.49880798  0.43510073  1
  Ce3+  Ce25  1  0.24057785  0.87071025  0.06969643  1
  Ce3+  Ce26  1  0.73132065  0.37722595  0.04803486  1
  Ce3+  Ce27  1  0.86238919  0.50111279  0.94341160  1
  Ce3+  Ce28  1  0.86417429  0.24984272  0.94546293  1
  Ce3+  Ce29  1  0.10914338  0.25105451  0.94684698  1
  Ce3+  Ce30  1  0.38050274  0.25189154  0.44715432  1
  Ce3+  Ce31  1  0.00487927  0.61921167  0.55806976  1
  Ce3+  Ce32  1  0.24443567  0.62443047  0.06490473  1
  Ce3+  Ce33  1  0.37987311  -0.00529558  0.45119252  1
  Ce3+  Ce34  1  0.10694807  -0.00002361  0.95561650  1
  Ce3+  Ce35  1  0.25261533  0.12565630  0.55688720  1
  Ce3+  Ce36  1  0.50705787  0.62182034  0.56158291  1
  Ce3+  Ce37  1  0.85941041  0.00208716  0.95564629  1
  Pr3+  Pr38  1  0.75560258  0.37008240  0.56644227  1
  Pr3+  Pr39  1  0.38053185  0.74645519  0.43932107  1
  Pr3+  Pr40  1  0.25640845  0.37485470  0.57678317  1
  Pr3+  Pr41  1  -0.00693178  0.37969478  0.07795916  1
  Pr3+  Pr42  1  0.60841090  0.75327954  0.93298304  1
  Pr3+  Pr43  1  -0.01751537  0.62557386  0.05552235  1
  Pr3+  Pr44  1  0.63088574  0.24745052  0.43556084  1
  Pr3+  Pr45  1  0.75802964  0.12177251  0.55684925  1
  Pr3+  Pr46  1  0.48292513  0.87599193  0.06604333  1
  Pr3+  Pr47  1  0.61156225  0.00065168  0.93812433  1
  Pr3+  Pr48  1  0.50772496  0.87184059  0.56620733  1
  Pr3+  Pr49  1  0.00269107  0.36999515  0.56167781  1
  Nd3+  Nd50  1  0.22576642  0.12405496  0.07397657  1
  Nd3+  Nd51  1  0.51251891  0.36910785  0.59427406  1
  Nd3+  Nd52  1  0.87773841  0.74600242  0.43706029  1
  Nd3+  Nd53  1  0.48348138  0.62245775  0.05524488  1
  Nd3+  Nd54  1  0.38252758  0.49567562  0.44740177  1
  Nd3+  Nd55  1  0.24665714  0.37273651  0.06761722  1
  Nd3+  Nd56  1  0.61535223  0.49952288  0.91689691  1
  Nd3+  Nd57  1  0.48322616  0.12803373  0.05829705  1
  Sm3+  Sm58  1  0.00655117  0.12064958  0.55068088  1
  Sm3+  Sm59  1  0.87937227  0.49609854  0.43582540  1
  Sm3+  Sm60  1  0.35636256  0.75259498  0.93390212  1
  Sm3+  Sm61  1  0.72558405  0.62580573  0.05857511  1
  Sm3+  Sm62  1  0.87969656  0.24629222  0.43479373  1
  Sm3+  Sm63  1  0.35574172  0.00147295  0.94680623  1
  Bi2+  Bi64  1  0.01150949  0.11762409  0.30135114  1
  Bi2+  Bi65  1  -0.00445622  0.13896387  0.78887530  1
  Bi2+  Bi66  1  0.03923084  0.43815771  0.27450662  1
  Bi2+  Bi67  1  -0.02206447  0.32181286  0.82902637  1
  Bi2+  Bi68  1  -0.07821382  0.67372253  0.30947578  1
  Bi2+  Bi69  1  0.01552237  0.59213729  0.77624249  1
  Bi2+  Bi70  1  0.09056011  0.76928482  0.30277000  1
  Bi2+  Bi71  1  -0.02311254  0.94516486  0.78878958  1
  Bi2+  Bi72  1  0.26789270  0.06642109  0.27487095  1
  Bi2+  Bi73  1  0.20482124  0.12323300  0.79819175  1
  Bi2+  Bi74  1  0.29839784  0.37814119  0.28989720  1
  Bi2+  Bi75  1  0.24418592  0.37744878  0.78799319  1
  Bi2+  Bi76  1  0.24724288  0.61864061  0.27222578  1
  Bi2+  Bi77  1  0.21458710  0.63448363  0.79474981  1
  Bi2+  Bi78  1  0.26131980  0.86479149  0.30059935  1
  Bi2+  Bi79  1  0.27841662  0.86676254  0.80663622  1
  Bi2+  Bi80  1  0.45591435  0.13749674  0.29002248  1
  Bi2+  Bi81  1  0.47682990  0.09827438  0.79574761  1
  Bi2+  Bi82  1  0.59236949  0.36655162  0.31011147  1
  Bi2+  Bi83  1  0.50420930  0.35395129  0.77095052  1
  Bi2+  Bi84  1  0.48548054  0.58521422  0.28634234  1
  Bi2+  Bi85  1  0.51481321  0.69245783  0.79921541  1
  Bi2+  Bi86  1  0.48050826  0.87697019  0.28892764  1
  Bi2+  Bi87  1  0.52517209  0.88003246  0.83085259  1
  Bi2+  Bi88  1  0.75085978  0.16520035  0.25797780  1
  Bi2+  Bi89  1  0.72304373  0.09161542  0.76833777  1
  Bi2+  Bi90  1  0.77877651  0.40683032  0.32710713  1
  Bi2+  Bi91  1  0.79966741  0.36318817  0.78413163  1
  Bi2+  Bi92  1  0.77928655  0.56581432  0.26162764  1
  Bi2+  Bi93  1  0.78337479  0.64231694  0.79161471  1
  Bi2+  Bi94  1  0.74242157  0.90551155  0.28610492  1
  Bi2+  Bi95  1  0.71559884  0.90764130  0.80851623  1
  Bi2+  Bi96  1  0.16316358  -0.05934213  0.21039345  1
  Bi2+  Bi97  1  0.14859135  -0.03829643  0.73437976  1
  Bi2+  Bi98  1  0.13366737  0.24634395  0.20079821  1
  Bi2+  Bi99  1  0.19105067  0.26704008  0.69694206  1
  Bi2+  Bi100  1  0.06694755  0.59400801  0.20397640  1
  Bi2+  Bi101  1  0.06381209  0.40686914  0.73344179  1
  Bi2+  Bi102  1  0.19155253  0.74766245  0.18470814  1
  Bi2+  Bi103  1  0.13503087  0.75790872  0.70902049  1
  Bi2+  Bi104  1  0.41205024  0.00661855  0.20305882  1
  Bi2+  Bi105  1  0.35312673  -0.03232611  0.71472926  1
  Bi2+  Bi106  1  0.40252468  0.27899910  0.21245988  1
  Bi2+  Bi107  1  0.35834789  0.16364741  0.70155419  1
  Bi2+  Bi108  1  0.28431272  0.48760045  0.19020843  1
  Bi2+  Bi109  1  0.36732525  0.51796762  0.70728402  1
  Bi2+  Bi110  1  0.38002769  0.73550170  0.21402948  1
  Bi2+  Bi111  1  0.37342231  0.76234641  0.72756160  1
  Bi2+  Bi112  1  0.59646920  0.04790543  0.22757927  1
  Bi2+  Bi113  1  0.55460374  -0.02178902  0.71543267  1
  Bi2+  Bi114  1  0.59658403  0.29304736  0.19969444  1
  Bi2+  Bi115  1  0.64034401  0.24381795  0.71403285  1
  Bi2+  Bi116  1  0.60749054  0.48990935  0.21630116  1
  Bi2+  Bi117  1  0.63905176  0.52658570  0.71306073  1
  Bi2+  Bi118  1  0.61762712  0.72883010  0.19517312  1
  Bi2+  Bi119  1  0.63584030  0.79376940  0.72468035  1
  Bi2+  Bi120  1  0.90474906  0.02246040  0.22038647  1
  Bi2+  Bi121  1  0.84122152  0.00580918  0.69140442  1
  Bi2+  Bi122  1  0.87938687  0.31406902  0.24323945  1
  Bi2+  Bi123  1  0.94100890  0.24118295  0.69920525  1
  Bi2+  Bi124  1  0.90622136  0.48583968  0.18782565  1
  Bi2+  Bi125  1  0.87918589  0.49716513  0.71355846  1
  Bi2+  Bi126  1  0.87893828  0.77471287  0.21097942  1
  Bi2+  Bi127  1  0.91250515  0.74203474  0.71920128  1
  S2-  S128  1  0.10950608  0.10707450  0.15564013  1
  S2-  S129  1  -0.02663285  0.10013172  0.64862904  1
  S2-  S130  1  -0.02223878  0.27202870  0.15906105  1
  S2-  S131  1  -0.11321365  0.37474318  0.63897839  1
  S2-  S132  1  -0.02415963  0.71277353  0.14245452  1
  S2-  S133  1  0.02009301  0.65508403  0.65475380  1
  S2-  S134  1  0.00549240  0.90624539  0.17718144  1
  S2-  S135  1  -0.10721057  0.86253653  0.64569817  1
  S2-  S136  1  0.28292102  0.20578151  0.15683085  1
  S2-  S137  1  0.21205577  0.11097004  0.65135548  1
  S2-  S138  1  0.14871826  0.39341231  0.15116429  1
  S2-  S139  1  0.23897598  0.50357221  0.64909986  1
  S2-  S140  1  0.36908972  0.61752541  0.13615273  1
  S2-  S141  1  0.26524051  0.73581594  0.64705957  1
  S2-  S142  1  0.36154127  0.86733332  0.14240052  1
  S2-  S143  1  0.11955349  0.88737740  0.64168127  1
  S2-  S144  1  0.58144895  0.13816488  0.14230746  1
  S2-  S145  1  0.51190200  0.20049647  0.64888340  1
  S2-  S146  1  0.39306925  0.39282096  0.13159789  1
  S2-  S147  1  0.40088253  0.37715155  0.67088121  1
  S2-  S148  1  0.59902039  0.59005260  0.13101347  1
  S2-  S149  1  0.51229951  0.57308462  0.65759140  1
  S2-  S150  1  0.58874280  0.86411887  0.14769169  1
  S2-  S151  1  0.49669824  0.81439004  0.66226656  1
  S2-  S152  1  0.83772429  0.12311144  0.15645475  1
  S2-  S153  1  0.74746423  0.15528808  0.65675996  1
  S2-  S154  1  0.72083610  0.31618228  0.13817799  1
  S2-  S155  1  0.65487970  0.38592467  0.65269572  1
  S2-  S156  1  0.76033684  0.71823646  0.14313982  1
  S2-  S157  1  0.75627099  0.60886475  0.66068896  1
  S2-  S158  1  0.78864899  0.91502231  0.18124127  1
  S2-  S159  1  0.69625808  0.91928252  0.66196752  1
  S2-  S160  1  0.02503262  -0.02673833  0.34960533  1
  S2-  S161  1  0.09963409  0.01110154  0.85717357  1
  S2-  S162  1  0.16171219  0.12225569  0.35008688  1
  S2-  S163  1  0.20323916  0.25544243  0.86121945  1
  S2-  S164  1  0.15992520  0.37747942  0.34868180  1
  S2-  S165  1  0.19371525  0.49708341  0.85866981  1
  S2-  S166  1  0.15793529  0.63908949  0.35906665  1
  S2-  S167  1  0.15478739  0.76488606  0.84938514  1
  S2-  S168  1  0.37755214  -0.02975416  0.35432220  1
  S2-  S169  1  0.33978279  0.07900878  0.85830722  1
  S2-  S170  1  0.37272615  0.25506314  0.34807934  1
  S2-  S171  1  0.46120013  0.25017321  0.84083222  1
  S2-  S172  1  0.37718660  0.50718453  0.34582770  1
  S2-  S173  1  0.39577630  0.45237480  0.81278558  1
  S2-  S174  1  0.46172330  0.74569708  0.34841097  1
  S2-  S175  1  0.35863902  0.65516798  0.85141558  1
  S2-  S176  1  0.61680907  -0.07144771  0.35428537  1
  S2-  S177  1  0.62993527  0.10402663  0.85438143  1
  S2-  S178  1  0.64719301  0.20774403  0.33686615  1
  S2-  S179  1  0.65051850  0.34136197  0.82905482  1
  S2-  S180  1  0.61239412  0.58674130  0.35133637  1
  S2-  S181  1  0.60755878  0.55375257  0.81923015  1
  S2-  S182  1  0.67635275  0.76023412  0.28981858  1
  S2-  S183  1  0.72341536  0.74848204  0.85517466  1
  S2-  S184  1  0.83073889  0.05922785  0.32207359  1
  S2-  S185  1  0.86489361  -0.07189343  0.86473742  1
  S2-  S186  1  0.97286591  0.25049247  0.35142602  1
  S2-  S187  1  0.86176343  0.19428369  0.85226206  1
  S2-  S188  1  0.97932863  0.51028948  0.35406330  1
  S2-  S189  1  0.83422901  0.50096304  0.84681466  1
  S2-  S190  1  0.85724430  0.83456820  0.35057057  1
  S2-  S191  1  0.92816823  0.71934306  0.82645796  1
  S2-  S192  1  0.00115369  0.12120792  0.44839459  1
  S2-  S193  1  -0.01435953  0.12556562  0.96651386  1
  S2-  S194  1  -0.00062018  0.37120444  0.45555925  1
  S2-  S195  1  -0.01218571  0.37958086  0.96382349  1
  S2-  S196  1  0.00191416  0.62411303  0.45446627  1
  S2-  S197  1  -0.01229435  0.62665689  0.94840076  1
  S2-  S198  1  0.00720011  0.86522476  0.45460151  1
  S2-  S199  1  -0.01318613  0.87381319  0.96396656  1
  S2-  S200  1  0.26063642  0.12413255  0.45342281  1
  S2-  S201  1  0.22910389  0.12140270  0.96604652  1
  S2-  S202  1  0.25650193  0.37334322  0.46177128  1
  S2-  S203  1  0.23420037  0.37454873  0.96023133  1
  S2-  S204  1  0.26026326  0.61918379  0.46114306  1
  S2-  S205  1  0.23331864  0.63213472  0.95724464  1
  S2-  S206  1  0.25406251  0.87014564  0.45684897  1
  S2-  S207  1  0.23764512  0.87669570  0.96001055  1
  S2-  S208  1  0.50550536  0.12142466  0.45248617  1
  S2-  S209  1  0.48174778  0.12123524  0.95357673  1
  S2-  S210  1  0.50789146  0.37260632  0.44631546  1
  S2-  S211  1  0.48344735  0.38160897  0.93688317  1
  S2-  S212  1  0.50673990  0.62438470  0.45679889  1
  S2-  S213  1  0.48800588  0.62602732  0.94606302  1
  S2-  S214  1  0.50626576  0.86925533  0.45874008  1
  S2-  S215  1  0.47865700  0.87766820  0.95560052  1
  S2-  S216  1  0.75786395  0.11953463  0.44826609  1
  S2-  S217  1  0.73888492  0.12691807  0.96355509  1
  S2-  S218  1  0.75766173  0.37086806  0.45585275  1
  S2-  S219  1  0.73849634  0.37465952  0.94370084  1
  S2-  S220  1  0.75604822  0.62146155  0.44737292  1
  S2-  S221  1  0.73385828  0.62199921  0.95166527  1
  S2-  S222  1  0.74667533  0.86520392  0.45697128  1
  S2-  S223  1  0.73140244  0.87842056  0.96304663  1
  S2-  S224  1  0.10852426  -0.01069189  0.05878573  1
  S2-  S225  1  0.13112513  0.00182938  0.53669247  1
  S2-  S226  1  0.11056382  0.25309011  0.05111731  1
  S2-  S227  1  0.12770186  0.24877796  0.54646305  1
  S2-  S228  1  0.11384178  0.50609774  0.05108677  1
  S2-  S229  1  0.12566661  0.49324046  0.54295498  1
  S2-  S230  1  0.11635416  0.74805632  0.05002353  1
  S2-  S231  1  0.12874449  0.74148464  0.54259077  1
  S2-  S232  1  0.35706237  0.00676297  0.05051693  1
  S2-  S233  1  0.37871951  -0.00318725  0.55837054  1
  S2-  S234  1  0.36002886  0.24566029  0.03617333  1
  S2-  S235  1  0.37927058  0.25213727  0.55305968  1
  S2-  S236  1  0.35760159  0.50359163  0.02739486  1
  S2-  S237  1  0.38869171  0.48968718  0.55233827  1
  S2-  S238  1  0.36190299  0.75029022  0.03752385  1
  S2-  S239  1  0.38351374  0.74742679  0.54668665  1
  S2-  S240  1  0.60805780  0.00208820  0.04615115  1
  S2-  S241  1  0.62834123  0.00122960  0.55074754  1
  S2-  S242  1  0.60540201  0.25438847  0.03023216  1
  S2-  S243  1  0.63021021  0.24806067  0.54338351  1
  S2-  S244  1  0.60962366  0.49767184  0.02600121  1
  S2-  S245  1  0.62657269  0.49196514  0.54360945  1
  S2-  S246  1  0.60440762  0.74888332  0.03889370  1
  S2-  S247  1  0.63167056  0.74738597  0.56004040  1
  S2-  S248  1  0.85905154  -0.00465716  0.05907014  1
  S2-  S249  1  0.88136135  -0.00101083  0.53707372  1
  S2-  S250  1  0.86250203  0.25953396  0.04901328  1
  S2-  S251  1  0.88175942  0.24315530  0.53961717  1
  S2-  S252  1  0.85579432  0.50250274  0.05050463  1
  S2-  S253  1  0.87877546  0.49762826  0.54088422  1
  S2-  S254  1  0.85485823  0.74617260  0.03634450  1
  S2-  S255  1  0.87935304  0.74102729  0.54373783  1
