# generated using pymatgen
data_La9Ce10Pr6Nd4Sm3(BiS2)32
_symmetry_space_group_name_H-M   'P 1'
_cell_length_a   16.23816203
_cell_length_b   16.26459451
_cell_length_c   27.09211139
_cell_angle_alpha   90.07790666
_cell_angle_beta   89.82090248
_cell_angle_gamma   90.03972964
_symmetry_Int_Tables_number   1
_chemical_formula_structural   La9Ce10Pr6Nd4Sm3(BiS2)32
_chemical_formula_sum   'La18 Ce20 Pr12 Nd8 Sm6 Bi64 S128'
_cell_volume   7155.17627068
_cell_formula_units_Z   2
loop_
 _symmetry_equiv_pos_site_id
 _symmetry_equiv_pos_as_xyz
  1  'x, y, z'
loop_
 _atom_type_symbol
 _atom_type_oxidation_number
  La3+  3.0
  Ce3+  3.0
  Pr3+  3.0
  Nd3+  3.0
  Sm3+  3.0
  Bi2+  2.0
  S2-  -2.0
loop_
 _atom_site_type_symbol
 _atom_site_label
 _atom_site_symmetry_multiplicity
 _atom_site_fract_x
 _atom_site_fract_y
 _atom_site_fract_z
 _atom_site_occupancy
  La3+  La0  1  0.11370521  0.73567104  0.91790232  1
  La3+  La1  1  0.24166039  0.86252415  0.59633733  1
  La3+  La2  1  0.12209588  0.48833148  0.42784474  1
  La3+  La3  1  0.48481049  0.11785463  0.08507200  1
  La3+  La4  1  0.00946142  0.87728752  0.09047670  1
  La3+  La5  1  0.61280644  -0.00542090  0.42122061  1
  La3+  La6  1  -0.01359186  0.36252897  0.57743233  1
  La3+  La7  1  0.37611955  0.24429403  0.92759739  1
  La3+  La8  1  0.62467297  0.23032630  0.93339001  1
  La3+  La9  1  0.49561811  0.62746084  0.56388746  1
  La3+  La10  1  0.88398585  -0.00296616  0.40833880  1
  La3+  La11  1  -0.00656145  0.61078787  0.07923934  1
  La3+  La12  1  0.49458479  0.62175166  0.06832164  1
  La3+  La13  1  0.37711029  0.74458892  0.43118920  1
  La3+  La14  1  0.24274013  0.61456086  0.56475620  1
  La3+  La15  1  0.24514087  0.12402184  0.56443089  1
  La3+  La16  1  0.74907694  0.12770443  0.08260511  1
  La3+  La17  1  0.74587830  0.62494552  0.06566285  1
  Ce3+  Ce18  1  0.62304956  0.74559464  0.94687545  1
  Ce3+  Ce19  1  0.11732206  0.49543517  0.94052194  1
  Ce3+  Ce20  1  0.37118664  -0.00682239  0.44726949  1
  Ce3+  Ce21  1  0.24696404  0.37445537  0.56124264  1
  Ce3+  Ce22  1  -0.00159403  0.12392923  0.06589048  1
  Ce3+  Ce23  1  0.74962084  0.87362238  0.06295090  1
  Ce3+  Ce24  1  0.62382440  0.74446041  0.43370654  1
  Ce3+  Ce25  1  -0.00335837  0.87218167  0.55938287  1
  Ce3+  Ce26  1  -0.00821283  0.12172499  0.55455061  1
  Ce3+  Ce27  1  0.24233951  0.62124547  0.06420759  1
  Ce3+  Ce28  1  0.87924595  0.74472027  0.95118976  1
  Ce3+  Ce29  1  0.49960371  0.36904508  0.56646081  1
  Ce3+  Ce30  1  0.24597230  0.11989003  0.05307385  1
  Ce3+  Ce31  1  0.12055661  0.24830862  0.44040859  1
  Ce3+  Ce32  1  0.73805407  0.36659831  0.56611583  1
  Ce3+  Ce33  1  0.74713337  0.87588121  0.54506636  1
  Ce3+  Ce34  1  0.87551367  -0.00433819  0.95103183  1
  Ce3+  Ce35  1  0.12152230  0.24423374  0.93614358  1
  Ce3+  Ce36  1  -0.00490421  0.36780219  0.05430966  1
  Ce3+  Ce37  1  0.62137291  0.49598828  0.94684029  1
  Pr3+  Pr38  1  0.36880781  -0.00948823  0.93269745  1
  Pr3+  Pr39  1  0.49558535  0.36752425  0.05591785  1
  Pr3+  Pr40  1  -0.00266974  0.62073036  0.55473865  1
  Pr3+  Pr41  1  0.87458357  0.23334207  0.93072601  1
  Pr3+  Pr42  1  0.49627573  0.12043131  0.56382138  1
  Pr3+  Pr43  1  0.86134417  0.24472790  0.42743139  1
  Pr3+  Pr44  1  0.87203503  0.49253672  0.43735011  1
  Pr3+  Pr45  1  0.86303785  0.48971723  0.93237782  1
  Pr3+  Pr46  1  0.62135453  -0.00663702  0.94975976  1
  Pr3+  Pr47  1  0.37499777  0.24462126  0.43643842  1
  Pr3+  Pr48  1  0.49235606  0.87276485  0.06913165  1
  Pr3+  Pr49  1  0.24748838  0.36892461  0.05315789  1
  Nd3+  Nd50  1  0.74590901  0.11782326  0.55095236  1
  Nd3+  Nd51  1  0.37635005  0.49474753  0.44162739  1
  Nd3+  Nd52  1  0.74574948  0.36685519  0.05917226  1
  Nd3+  Nd53  1  0.12345643  -0.00676625  0.44334411  1
  Nd3+  Nd54  1  0.87457396  0.74516171  0.43869659  1
  Nd3+  Nd55  1  0.74880682  0.62432958  0.55713766  1
  Nd3+  Nd56  1  0.49785698  0.87249671  0.56222965  1
  Nd3+  Nd57  1  0.12183749  -0.00784819  0.93834856  1
  Sm3+  Sm58  1  0.37117671  0.49901160  0.94376729  1
  Sm3+  Sm59  1  0.62270688  0.49442441  0.44736803  1
  Sm3+  Sm60  1  0.61729464  0.24422714  0.43309515  1
  Sm3+  Sm61  1  0.12840740  0.74288851  0.43244423  1
  Sm3+  Sm62  1  0.37192816  0.74223411  0.94430001  1
  Sm3+  Sm63  1  0.24061764  0.86646909  0.05290848  1
  Bi2+  Bi64  1  -0.00134334  0.19019945  0.27483551  1
  Bi2+  Bi65  1  -0.06860953  0.09651747  0.76729710  1
  Bi2+  Bi66  1  -0.02245435  0.38210337  0.30466907  1
  Bi2+  Bi67  1  0.05749871  0.35361814  0.76386054  1
  Bi2+  Bi68  1  0.00268693  0.63079278  0.30129012  1
  Bi2+  Bi69  1  0.00330707  0.62348504  0.78775260  1
  Bi2+  Bi70  1  -0.00810836  0.87389513  0.29495216  1
  Bi2+  Bi71  1  -0.05544946  0.88808069  0.80405999  1
  Bi2+  Bi72  1  0.26879247  0.12914351  0.30375807  1
  Bi2+  Bi73  1  0.19162730  0.14513145  0.79160243  1
  Bi2+  Bi74  1  0.24350974  0.31635552  0.28394316  1
  Bi2+  Bi75  1  0.25103780  0.35139873  0.78562170  1
  Bi2+  Bi76  1  0.27451039  0.61972319  0.28060059  1
  Bi2+  Bi77  1  0.27253966  0.63577666  0.80302552  1
  Bi2+  Bi78  1  0.24968734  0.87686546  0.24130147  1
  Bi2+  Bi79  1  0.28160548  0.89001861  0.79833439  1
  Bi2+  Bi80  1  0.49268446  0.12139151  0.29382873  1
  Bi2+  Bi81  1  0.50083225  0.12545437  0.80531139  1
  Bi2+  Bi82  1  0.47570387  0.39915169  0.30047188  1
  Bi2+  Bi83  1  0.47041033  0.39135639  0.78833452  1
  Bi2+  Bi84  1  0.54117561  0.61435381  0.29295563  1
  Bi2+  Bi85  1  0.48529089  0.65208885  0.79325725  1
  Bi2+  Bi86  1  0.42897836  0.85348552  0.29401939  1
  Bi2+  Bi87  1  0.57287125  0.88428616  0.74868127  1
  Bi2+  Bi88  1  0.75212370  0.14771456  0.27936031  1
  Bi2+  Bi89  1  0.75282039  0.17066226  0.80349789  1
  Bi2+  Bi90  1  0.78025165  0.35727963  0.27750795  1
  Bi2+  Bi91  1  0.79260330  0.43450167  0.78198441  1
  Bi2+  Bi92  1  0.73856678  0.63162797  0.29880329  1
  Bi2+  Bi93  1  0.74619195  0.68227019  0.79373718  1
  Bi2+  Bi94  1  0.71411656  0.81960016  0.29467624  1
  Bi2+  Bi95  1  0.74744541  0.89047757  0.79924218  1
  Bi2+  Bi96  1  0.12899192  0.06862183  0.22841085  1
  Bi2+  Bi97  1  0.05573420  -0.02557244  0.72322119  1
  Bi2+  Bi98  1  0.11282011  0.24644610  0.18118603  1
  Bi2+  Bi99  1  0.18044539  0.25186924  0.69411385  1
  Bi2+  Bi100  1  0.11854361  0.43124904  0.22164920  1
  Bi2+  Bi101  1  0.17122219  0.50955596  0.73594003  1
  Bi2+  Bi102  1  0.13680402  0.73602083  0.20597081  1
  Bi2+  Bi103  1  0.11471314  0.74005537  0.71745093  1
  Bi2+  Bi104  1  0.35990973  0.02348503  0.21526404  1
  Bi2+  Bi105  1  0.39139675  0.02411991  0.70848688  1
  Bi2+  Bi106  1  0.38463666  0.23508587  0.21743838  1
  Bi2+  Bi107  1  0.44417085  0.28520689  0.68754474  1
  Bi2+  Bi108  1  0.36867990  0.46545026  0.21262774  1
  Bi2+  Bi109  1  0.37706095  0.46573667  0.69666322  1
  Bi2+  Bi110  1  0.41941053  0.77363943  0.18844118  1
  Bi2+  Bi111  1  0.38835351  0.73857180  0.70577317  1
  Bi2+  Bi112  1  0.58764484  -0.12805255  0.21343567  1
  Bi2+  Bi113  1  0.69261728  0.02941191  0.71443658  1
  Bi2+  Bi114  1  0.61407772  0.30915664  0.20907987  1
  Bi2+  Bi115  1  0.62412672  0.30160139  0.73437384  1
  Bi2+  Bi116  1  0.65586733  0.49843020  0.22311111  1
  Bi2+  Bi117  1  0.61973865  0.51728170  0.75854191  1
  Bi2+  Bi118  1  0.59678511  0.67550950  0.18508188  1
  Bi2+  Bi119  1  0.67179183  0.74086191  0.69207499  1
  Bi2+  Bi120  1  0.87202879  -0.00287797  0.21220545  1
  Bi2+  Bi121  1  0.87313188  -0.03575103  0.67892195  1
  Bi2+  Bi122  1  0.91890436  0.24774473  0.17358248  1
  Bi2+  Bi123  1  0.86428632  0.24094360  0.70167417  1
  Bi2+  Bi124  1  0.89168549  0.45666099  0.20825601  1
  Bi2+  Bi125  1  0.90614713  0.52527052  0.68764575  1
  Bi2+  Bi126  1  0.84601200  0.72730293  0.20724437  1
  Bi2+  Bi127  1  0.86401254  0.77601818  0.71952975  1
  S2-  S128  1  0.00859294  0.03616712  0.15111294  1
  S2-  S129  1  -0.00994927  0.20451978  0.64020464  1
  S2-  S130  1  0.01239870  0.45933385  0.13797898  1
  S2-  S131  1  0.03490365  0.43213052  0.66939006  1
  S2-  S132  1  0.00106019  0.65729052  0.18114051  1
  S2-  S133  1  0.01667298  0.64454491  0.65488886  1
  S2-  S134  1  -0.04370228  0.84928466  0.18869547  1
  S2-  S135  1  0.08246286  0.85941900  0.64625683  1
  S2-  S136  1  0.32582371  0.13934748  0.13887602  1
  S2-  S137  1  0.26600527  0.11171295  0.66487233  1
  S2-  S138  1  0.24703026  0.39136100  0.15406779  1
  S2-  S139  1  0.23974608  0.48236580  0.63837182  1
  S2-  S140  1  0.21944712  0.61613520  0.16196797  1
  S2-  S141  1  0.24675825  0.71062688  0.65065830  1
  S2-  S142  1  0.17342865  0.87545494  0.14384965  1
  S2-  S143  1  0.28141575  0.90812174  0.69603132  1
  S2-  S144  1  0.53990229  0.17485840  0.17958257  1
  S2-  S145  1  0.50303459  0.12596257  0.66550061  1
  S2-  S146  1  0.48487831  0.38517972  0.15632748  1
  S2-  S147  1  0.61352268  0.36478616  0.64146970  1
  S2-  S148  1  0.43603441  0.60165289  0.16325285  1
  S2-  S149  1  0.46409580  0.61465937  0.66339227  1
  S2-  S150  1  0.48810958  0.97705178  0.15002010  1
  S2-  S151  1  0.48073254  0.87505389  0.66253432  1
  S2-  S152  1  0.74301826  0.06896552  0.18079877  1
  S2-  S153  1  0.73982443  0.15358884  0.65019481  1
  S2-  S154  1  0.75459855  0.27690752  0.14406591  1
  S2-  S155  1  0.84270312  0.37857350  0.64361875  1
  S2-  S156  1  0.81268581  0.58059472  0.15346533  1
  S2-  S157  1  0.75186229  0.60221833  0.65613274  1
  S2-  S158  1  0.74352084  0.83866590  0.15872090  1
  S2-  S159  1  0.71434126  0.89588474  0.64043260  1
  S2-  S160  1  0.04613675  -0.01116133  0.35357426  1
  S2-  S161  1  0.17284371  0.00444379  0.84162864  1
  S2-  S162  1  0.12396737  0.34954508  0.36014671  1
  S2-  S163  1  0.06691552  0.23100081  0.84356240  1
  S2-  S164  1  0.13634640  0.56654394  0.33534225  1
  S2-  S165  1  0.12857270  0.58491383  0.85815401  1
  S2-  S166  1  0.09016475  0.76809339  0.33607965  1
  S2-  S167  1  0.16497379  0.78365249  0.81882312  1
  S2-  S168  1  0.45356832  -0.01097170  0.35989406  1
  S2-  S169  1  0.42166774  -0.01273524  0.83481604  1
  S2-  S170  1  0.49150525  0.25024130  0.35885322  1
  S2-  S171  1  0.35087233  0.19389670  0.83137870  1
  S2-  S172  1  0.35761409  0.50377982  0.34163609  1
  S2-  S173  1  0.38416242  0.53016723  0.84671636  1
  S2-  S174  1  0.29628460  0.73818976  0.34081647  1
  S2-  S175  1  0.37715606  0.76452996  0.84603805  1
  S2-  S176  1  0.64112919  0.06439188  0.32787802  1
  S2-  S177  1  0.63242150  0.08493731  0.86398127  1
  S2-  S178  1  0.72263089  0.26466598  0.35513127  1
  S2-  S179  1  0.56493643  0.27764194  0.84074258  1
  S2-  S180  1  0.60165812  0.47333521  0.35031786  1
  S2-  S181  1  0.67920976  0.49245521  0.85534060  1
  S2-  S182  1  0.51436122  0.74635554  0.35723362  1
  S2-  S183  1  0.60724313  0.72987722  0.84945608  1
  S2-  S184  1  0.82516609  -0.05736544  0.31148760  1
  S2-  S185  1  0.86508752  0.08885767  0.86801601  1
  S2-  S186  1  0.88173279  0.13925953  0.34590958  1
  S2-  S187  1  0.83157664  0.30559616  0.84011389  1
  S2-  S188  1  0.87226641  0.53216794  0.33827018  1
  S2-  S189  1  0.92091754  0.51075264  0.83636306  1
  S2-  S190  1  0.88794663  0.74902049  0.33883252  1
  S2-  S191  1  0.95832501  0.74099897  0.86305150  1
  S2-  S192  1  0.00035593  0.12319608  0.45049342  1
  S2-  S193  1  0.00428165  0.11728963  0.95855821  1
  S2-  S194  1  -0.01030562  0.36569464  0.45614640  1
  S2-  S195  1  -0.00544048  0.36868776  0.94644037  1
  S2-  S196  1  -0.00142396  0.62097780  0.44728643  1
  S2-  S197  1  -0.00832462  0.61221996  0.96365510  1
  S2-  S198  1  0.00029476  0.86528405  0.45291774  1
  S2-  S199  1  0.00067720  0.87161641  0.95988301  1
  S2-  S200  1  0.24739005  0.12160707  0.45409563  1
  S2-  S201  1  0.24665952  0.11954123  0.94750433  1
  S2-  S202  1  0.25504085  0.36930542  0.45442228  1
  S2-  S203  1  0.24901345  0.37261713  0.94392973  1
  S2-  S204  1  0.24837333  0.61727012  0.45455441  1
  S2-  S205  1  0.24883173  0.62181208  0.95648610  1
  S2-  S206  1  0.24590097  0.87088074  0.44415968  1
  S2-  S207  1  0.24315319  0.86175766  0.94797767  1
  S2-  S208  1  0.49483056  0.11890106  0.45743921  1
  S2-  S209  1  0.49004606  0.11417465  0.95774118  1
  S2-  S210  1  0.50000618  0.37237496  0.45933254  1
  S2-  S211  1  0.49535378  0.37463641  0.94940801  1
  S2-  S212  1  0.50032897  0.61702664  0.45595449  1
  S2-  S213  1  0.49591531  0.62072823  0.95846626  1
  S2-  S214  1  0.49876965  0.86929533  0.45793799  1
  S2-  S215  1  0.49441037  0.86769931  0.95725965  1
  S2-  S216  1  0.74246241  0.11291638  0.44585559  1
  S2-  S217  1  0.74845253  0.11486375  0.97052185  1
  S2-  S218  1  0.74337297  0.37431439  0.45701516  1
  S2-  S219  1  0.74123643  0.36311335  0.95422802  1
  S2-  S220  1  0.74647679  0.61999797  0.44952790  1
  S2-  S221  1  0.74875305  0.62289337  0.95699096  1
  S2-  S222  1  0.74879726  0.87192392  0.43904940  1
  S2-  S223  1  0.75025935  0.86962443  0.95502191  1
  S2-  S224  1  0.12430233  -0.00248907  0.04413779  1
  S2-  S225  1  0.12259472  -0.00261211  0.55068365  1
  S2-  S226  1  0.12264494  0.24569196  0.04330108  1
  S2-  S227  1  0.12257247  0.24972287  0.54507368  1
  S2-  S228  1  0.12532837  0.49399664  0.04374929  1
  S2-  S229  1  0.11455821  0.49099963  0.53865469  1
  S2-  S230  1  0.11725737  0.74149071  0.04946688  1
  S2-  S231  1  0.12299529  0.74641829  0.53973437  1
  S2-  S232  1  0.36309945  -0.01095685  0.04191109  1
  S2-  S233  1  0.36752359  -0.00795553  0.55473334  1
  S2-  S234  1  0.37210600  0.24628058  0.03771611  1
  S2-  S235  1  0.37264323  0.24708890  0.54710235  1
  S2-  S236  1  0.37017566  0.49578838  0.04798797  1
  S2-  S237  1  0.37805504  0.49497737  0.54693734  1
  S2-  S238  1  0.36708774  0.74712258  0.04987846  1
  S2-  S239  1  0.36996552  0.75095099  0.54601656  1
  S2-  S240  1  0.62307619  -0.00243565  0.05609187  1
  S2-  S241  1  0.61842476  -0.00305769  0.53950849  1
  S2-  S242  1  0.61531643  0.24106840  0.04655528  1
  S2-  S243  1  0.61949667  0.23957892  0.53946199  1
  S2-  S244  1  0.62250134  0.49396657  0.05527440  1
  S2-  S245  1  0.62193572  0.50349339  0.55089714  1
  S2-  S246  1  0.61941524  0.75110215  0.05258869  1
  S2-  S247  1  0.62330724  0.74859643  0.54329842  1
  S2-  S248  1  0.87412925  -0.00445351  0.05635617  1
  S2-  S249  1  0.87348360  -0.00339431  0.53571235  1
  S2-  S250  1  0.87509723  0.24447146  0.03906243  1
  S2-  S251  1  0.86533574  0.24207868  0.53644887  1
  S2-  S252  1  0.86641126  0.48921963  0.04146766  1
  S2-  S253  1  0.87021439  0.49878628  0.54384647  1
  S2-  S254  1  0.87800324  0.74879855  0.05750395  1
  S2-  S255  1  0.87162087  0.74860416  0.54728565  1
