# generated using pymatgen
data_La9Ce10Pr6Nd4Sm3(BiS2)32
_symmetry_space_group_name_H-M   'P 1'
_cell_length_a   16.23103612
_cell_length_b   16.26423552
_cell_length_c   27.19241412
_cell_angle_alpha   90.11691555
_cell_angle_beta   89.92710732
_cell_angle_gamma   89.95279607
_symmetry_Int_Tables_number   1
_chemical_formula_structural   La9Ce10Pr6Nd4Sm3(BiS2)32
_chemical_formula_sum   'La18 Ce20 Pr12 Nd8 Sm6 Bi64 S128'
_cell_volume   7178.37695551
_cell_formula_units_Z   2
loop_
 _symmetry_equiv_pos_site_id
 _symmetry_equiv_pos_as_xyz
  1  'x, y, z'
loop_
 _atom_type_symbol
 _atom_type_oxidation_number
  La3+  3.0
  Ce3+  3.0
  Pr3+  3.0
  Nd3+  3.0
  Sm3+  3.0
  Bi2+  2.0
  S2-  -2.0
loop_
 _atom_site_type_symbol
 _atom_site_label
 _atom_site_symmetry_multiplicity
 _atom_site_fract_x
 _atom_site_fract_y
 _atom_site_fract_z
 _atom_site_occupancy
  La3+  La0  1  0.88191083  0.01644690  0.42717514  1
  La3+  La1  1  0.88381757  0.76577804  0.91713600  1
  La3+  La2  1  0.76731894  0.63897586  0.58617362  1
  La3+  La3  1  0.02017031  0.89929365  0.59252709  1
  La3+  La4  1  0.74976228  0.39106911  0.05592094  1
  La3+  La5  1  0.14293609  0.52075994  0.40979690  1
  La3+  La6  1  0.87380521  0.52861969  0.42213827  1
  La3+  La7  1  0.51085253  0.63764094  0.57210595  1
  La3+  La8  1  0.62602513  0.51827289  0.92669369  1
  La3+  La9  1  0.13853030  0.00947211  0.42844944  1
  La3+  La10  1  -0.00824394  0.13435476  0.08998868  1
  La3+  La11  1  0.50632323  0.38795166  0.58146801  1
  La3+  La12  1  0.26143726  0.64226418  0.07234925  1
  La3+  La13  1  0.49578229  0.89161276  0.08869362  1
  La3+  La14  1  0.39193054  0.26265509  0.43098528  1
  La3+  La15  1  0.88895628  0.76545547  0.44998652  1
  La3+  La16  1  0.37392149  0.51894021  0.92901282  1
  La3+  La17  1  0.01144242  0.38771080  0.54437486  1
  Ce3+  Ce18  1  0.63063605  0.26148124  0.44688282  1
  Ce3+  Ce19  1  0.74975919  0.64427640  0.05174370  1
  Ce3+  Ce20  1  0.62328023  0.76698322  0.93979125  1
  Ce3+  Ce21  1  0.50439228  0.13974798  0.06386981  1
  Ce3+  Ce22  1  0.00159537  0.89017385  0.05796238  1
  Ce3+  Ce23  1  0.25233089  0.13826914  0.06167696  1
  Ce3+  Ce24  1  0.25773462  0.88711551  0.55720445  1
  Ce3+  Ce25  1  0.25380977  0.89150704  0.05413255  1
  Ce3+  Ce26  1  0.25311473  0.38740200  0.06497290  1
  Ce3+  Ce27  1  0.12442666  0.26392466  0.95785412  1
  Ce3+  Ce28  1  0.62637147  0.26258402  0.93554298  1
  Ce3+  Ce29  1  0.25921514  0.38456055  0.54877940  1
  Ce3+  Ce30  1  0.38874372  0.75985992  0.44598462  1
  Ce3+  Ce31  1  0.63275366  0.51255776  0.45004636  1
  Ce3+  Ce32  1  0.37701501  0.76476480  0.93381847  1
  Ce3+  Ce33  1  0.12632970  0.76351530  0.94775111  1
  Ce3+  Ce34  1  0.50340222  0.38796075  0.05312507  1
  Ce3+  Ce35  1  0.00120960  0.63980956  0.06818572  1
  Ce3+  Ce36  1  0.38793567  0.51176089  0.44056225  1
  Ce3+  Ce37  1  0.76113629  0.38552434  0.55162320  1
  Pr3+  Pr38  1  0.12534065  0.51264586  0.94818668  1
  Pr3+  Pr39  1  0.14305873  0.26228190  0.41285121  1
  Pr3+  Pr40  1  0.88007162  0.51373359  0.93675359  1
  Pr3+  Pr41  1  0.88542235  0.26455487  0.43235293  1
  Pr3+  Pr42  1  0.25890073  0.13549647  0.55685723  1
  Pr3+  Pr43  1  0.50986647  0.88497388  0.57446422  1
  Pr3+  Pr44  1  0.63963891  0.75176297  0.44008490  1
  Pr3+  Pr45  1  0.01485787  0.63174327  0.56504110  1
  Pr3+  Pr46  1  0.76149304  0.88827671  0.56344214  1
  Pr3+  Pr47  1  0.62693854  0.00352998  0.43396624  1
  Pr3+  Pr48  1  0.88298254  0.01505637  0.92847141  1
  Pr3+  Pr49  1  0.38560400  0.00681394  0.44268799  1
  Nd3+  Nd50  1  -0.00301105  0.39762128  0.07668879  1
  Nd3+  Nd51  1  0.25357341  0.63478164  0.56134474  1
  Nd3+  Nd52  1  0.37773038  0.26105326  0.94107098  1
  Nd3+  Nd53  1  0.62661365  0.01394810  0.94226993  1
  Nd3+  Nd54  1  0.50694036  0.63771541  0.06058419  1
  Nd3+  Nd55  1  0.76313729  0.12980569  0.56178944  1
  Nd3+  Nd56  1  0.12575607  0.01832120  0.93974095  1
  Nd3+  Nd57  1  0.88368732  0.26286717  0.94207945  1
  Sm3+  Sm58  1  0.01057327  0.13355457  0.54885331  1
  Sm3+  Sm59  1  0.75279436  0.88951861  0.05334645  1
  Sm3+  Sm60  1  0.51055753  0.13351920  0.56185041  1
  Sm3+  Sm61  1  0.13518300  0.75960880  0.43906096  1
  Sm3+  Sm62  1  0.75467473  0.13706267  0.05348095  1
  Sm3+  Sm63  1  0.37706025  0.01454421  0.94054439  1
  Bi2+  Bi64  1  -0.01510671  0.11592767  0.28677504  1
  Bi2+  Bi65  1  -0.02925830  0.16453005  0.80255279  1
  Bi2+  Bi66  1  -0.02850846  0.35642196  0.29111864  1
  Bi2+  Bi67  1  0.03156543  0.37672940  0.80593761  1
  Bi2+  Bi68  1  0.00898540  0.60596664  0.30234881  1
  Bi2+  Bi69  1  -0.02104181  0.61108359  0.80453212  1
  Bi2+  Bi70  1  0.00007176  0.85485601  0.28345853  1
  Bi2+  Bi71  1  -0.00658183  0.89852099  0.79309377  1
  Bi2+  Bi72  1  0.29255414  0.03387222  0.31606639  1
  Bi2+  Bi73  1  0.22817639  0.06253581  0.81175185  1
  Bi2+  Bi74  1  0.36697651  0.35176002  0.28976859  1
  Bi2+  Bi75  1  0.22387118  0.35810059  0.78296770  1
  Bi2+  Bi76  1  0.33104245  0.62077012  0.28328004  1
  Bi2+  Bi77  1  0.26222855  0.61510473  0.73818748  1
  Bi2+  Bi78  1  0.21364926  0.86305240  0.29197484  1
  Bi2+  Bi79  1  0.22369817  0.87363109  0.80108413  1
  Bi2+  Bi80  1  0.54749098  0.12561209  0.29013602  1
  Bi2+  Bi81  1  0.51306631  0.06970448  0.78076722  1
  Bi2+  Bi82  1  0.52600716  0.41818830  0.34718392  1
  Bi2+  Bi83  1  0.49133673  0.32136611  0.79228345  1
  Bi2+  Bi84  1  0.52619551  0.59388901  0.30057339  1
  Bi2+  Bi85  1  0.48853526  0.60403710  0.80358414  1
  Bi2+  Bi86  1  0.47426967  0.85189610  0.28975966  1
  Bi2+  Bi87  1  0.41949061  0.86058169  0.80630968  1
  Bi2+  Bi88  1  0.71982572  0.15316215  0.22539950  1
  Bi2+  Bi89  1  0.78723345  0.08729037  0.79979612  1
  Bi2+  Bi90  1  0.65219526  0.33844873  0.27155677  1
  Bi2+  Bi91  1  0.78016009  0.33781093  0.75874305  1
  Bi2+  Bi92  1  0.75608563  0.67109283  0.29459508  1
  Bi2+  Bi93  1  0.72959188  0.59150629  0.78293051  1
  Bi2+  Bi94  1  0.72741989  0.90815321  0.29635735  1
  Bi2+  Bi95  1  0.72108737  0.90387350  0.77858987  1
  Bi2+  Bi96  1  0.11987020  -0.07671261  0.19848218  1
  Bi2+  Bi97  1  0.14306292  0.01488789  0.70771404  1
  Bi2+  Bi98  1  0.17376185  0.23337651  0.22104135  1
  Bi2+  Bi99  1  0.11862337  0.21911092  0.72901335  1
  Bi2+  Bi100  1  0.12202695  0.47140555  0.20293839  1
  Bi2+  Bi101  1  0.12773650  0.49439018  0.69490237  1
  Bi2+  Bi102  1  0.09009913  0.73182968  0.20532697  1
  Bi2+  Bi103  1  0.11141503  0.73281838  0.76062068  1
  Bi2+  Bi104  1  0.35856302  0.01547992  0.21216986  1
  Bi2+  Bi105  1  0.41007005  -0.04161711  0.70202095  1
  Bi2+  Bi106  1  0.41813687  0.21244998  0.21681236  1
  Bi2+  Bi107  1  0.31163162  0.19647686  0.74415139  1
  Bi2+  Bi108  1  0.42816839  0.48800093  0.21828801  1
  Bi2+  Bi109  1  0.37713954  0.44097990  0.71007132  1
  Bi2+  Bi110  1  0.29341998  0.75480445  0.20323240  1
  Bi2+  Bi111  1  0.35957475  0.77040877  0.70769019  1
  Bi2+  Bi112  1  0.61757225  -0.01519328  0.20920723  1
  Bi2+  Bi113  1  0.61121114  -0.04234796  0.68880165  1
  Bi2+  Bi114  1  0.58424451  0.26414131  0.17191077  1
  Bi2+  Bi115  1  0.67943828  0.18152061  0.72353129  1
  Bi2+  Bi116  1  0.67616287  0.49474952  0.20647647  1
  Bi2+  Bi117  1  0.61793005  0.45429461  0.70263206  1
  Bi2+  Bi118  1  0.54698112  0.67073981  0.19930601  1
  Bi2+  Bi119  1  0.57052760  0.78341285  0.74516606  1
  Bi2+  Bi120  1  0.86062634  -0.05443997  0.21395897  1
  Bi2+  Bi121  1  0.88694807  0.00614930  0.70842051  1
  Bi2+  Bi122  1  0.86303453  0.28103201  0.20619579  1
  Bi2+  Bi123  1  0.86368367  0.20120796  0.69280854  1
  Bi2+  Bi124  1  0.87351201  0.55686785  0.22733026  1
  Bi2+  Bi125  1  0.88692664  0.47331587  0.70015270  1
  Bi2+  Bi126  1  0.88773039  0.74918586  0.20757018  1
  Bi2+  Bi127  1  0.85320767  0.73899605  0.71529178  1
  S2-  S128  1  0.05428130  0.14456573  0.19116258  1
  S2-  S129  1  0.01404291  0.05958730  0.63857532  1
  S2-  S130  1  0.01201411  0.34038851  0.17241014  1
  S2-  S131  1  0.01007813  0.39864831  0.64629998  1
  S2-  S132  1  -0.01216537  0.53625666  0.14667553  1
  S2-  S133  1  -0.08973474  0.61153149  0.64967069  1
  S2-  S134  1  -0.01465835  0.97578993  0.14113704  1
  S2-  S135  1  -0.03303075  0.84444076  0.68685732  1
  S2-  S136  1  0.26271022  0.12534654  0.16007967  1
  S2-  S137  1  0.24022688  0.14248417  0.65716489  1
  S2-  S138  1  0.24268652  0.37072990  0.16417362  1
  S2-  S139  1  0.25366195  0.40165633  0.64649019  1
  S2-  S140  1  0.19438304  0.60223745  0.16509857  1
  S2-  S141  1  0.14284346  0.63057588  0.63898053  1
  S2-  S142  1  0.33394911  0.88479712  0.14136358  1
  S2-  S143  1  0.17595330  0.89318369  0.64339313  1
  S2-  S144  1  0.49587018  0.04136667  0.14441787  1
  S2-  S145  1  0.50415706  0.08539498  0.65612523  1
  S2-  S146  1  0.53503863  0.44055857  0.14475200  1
  S2-  S147  1  0.49697173  0.32389104  0.67901070  1
  S2-  S148  1  0.40145392  0.65173447  0.13886477  1
  S2-  S149  1  0.48503811  0.52501289  0.65076689  1
  S2-  S150  1  0.53234797  0.83277273  0.18611678  1
  S2-  S151  1  0.50774848  0.75854371  0.64838147  1
  S2-  S152  1  0.83251114  0.14120045  0.14057229  1
  S2-  S153  1  0.76331182  0.01303574  0.63657209  1
  S2-  S154  1  0.78988446  0.40170675  0.15372243  1
  S2-  S155  1  0.75586332  0.39035312  0.64991962  1
  S2-  S156  1  0.69495183  0.63424272  0.14371263  1
  S2-  S157  1  0.68930039  0.59093102  0.68037421  1
  S2-  S158  1  0.73872401  0.89837836  0.15185785  1
  S2-  S159  1  0.75563430  0.78408819  0.64734343  1
  S2-  S160  1  0.12119087  0.03837825  0.32935268  1
  S2-  S161  1  0.02156360  0.02785102  0.85854351  1
  S2-  S162  1  0.09189340  0.23876968  0.31440877  1
  S2-  S163  1  0.09900586  0.25110146  0.86258764  1
  S2-  S164  1  0.10477409  0.45794822  0.31059057  1
  S2-  S165  1  0.10703190  0.51168474  0.84797975  1
  S2-  S166  1  0.12938113  0.67161431  0.35388926  1
  S2-  S167  1  0.04342477  0.75516444  0.86067229  1
  S2-  S168  1  0.46000903  -0.01015706  0.35190756  1
  S2-  S169  1  0.39559758  0.07645030  0.84894744  1
  S2-  S170  1  0.28749083  0.24838026  0.34935665  1
  S2-  S171  1  0.34785590  0.27932704  0.84256146  1
  S2-  S172  1  0.30028222  0.51421819  0.35541315  1
  S2-  S173  1  0.42718969  0.46645651  0.83505810  1
  S2-  S174  1  0.38321108  0.76183097  0.34636501  1
  S2-  S175  1  0.36072592  0.65604320  0.85800991  1
  S2-  S176  1  0.68149421  0.05061415  0.34248814  1
  S2-  S177  1  0.61922506  -0.01149123  0.84314323  1
  S2-  S178  1  0.53148531  0.24056559  0.36567870  1
  S2-  S179  1  0.60232273  0.23948500  0.83947857  1
  S2-  S180  1  0.69461451  0.58561513  0.36933439  1
  S2-  S181  1  0.63409482  0.48570575  0.82690347  1
  S2-  S182  1  0.61335855  0.81615736  0.34629067  1
  S2-  S183  1  0.60436380  0.71965797  0.84578370  1
  S2-  S184  1  0.89067666  -0.02489653  0.32905471  1
  S2-  S185  1  0.85944881  -0.09842095  0.84983586  1
  S2-  S186  1  0.87813599  0.21548684  0.33529634  1
  S2-  S187  1  0.87947944  0.30214341  0.84436317  1
  S2-  S188  1  0.87246284  0.46538930  0.32649222  1
  S2-  S189  1  0.85925285  0.51363828  0.83559725  1
  S2-  S190  1  0.87986670  0.68596096  0.35991769  1
  S2-  S191  1  0.83653741  0.70790137  0.82154785  1
  S2-  S192  1  0.01406118  0.14073534  0.44325697  1
  S2-  S193  1  0.00169414  0.14020454  0.96671177  1
  S2-  S194  1  0.01231782  0.38785363  0.43608096  1
  S2-  S195  1  0.00048808  0.39019845  0.96423497  1
  S2-  S196  1  0.01260845  0.63489213  0.45680962  1
  S2-  S197  1  0.00073442  0.63809112  0.96087331  1
  S2-  S198  1  0.01373549  0.88602310  0.43665942  1
  S2-  S199  1  0.00466390  0.88932913  0.95566894  1
  S2-  S200  1  0.26239439  0.13568522  0.45099080  1
  S2-  S201  1  0.25242458  0.13904320  0.95465614  1
  S2-  S202  1  0.25980987  0.38495878  0.44661979  1
  S2-  S203  1  0.25343848  0.38789742  0.95500003  1
  S2-  S204  1  0.26225469  0.64169932  0.45634461  1
  S2-  S205  1  0.24712830  0.63985292  0.96178956  1
  S2-  S206  1  0.26067726  0.88187803  0.44926071  1
  S2-  S207  1  0.25110539  0.89201555  0.94761390  1
  S2-  S208  1  0.50923041  0.12999363  0.46013922  1
  S2-  S209  1  0.50233417  0.13743579  0.95609573  1
  S2-  S210  1  0.51047833  0.38751614  0.47043330  1
  S2-  S211  1  0.50251804  0.38740620  0.94803648  1
  S2-  S212  1  0.50969489  0.63556809  0.45951942  1
  S2-  S213  1  0.50199620  0.64030735  0.95500360  1
  S2-  S214  1  0.51019348  0.88080261  0.46417294  1
  S2-  S215  1  0.49961089  0.89276823  0.94758005  1
  S2-  S216  1  0.75680618  0.13850410  0.45506456  1
  S2-  S217  1  0.75460752  0.13935873  0.94796225  1
  S2-  S218  1  0.75707492  0.38578193  0.44491776  1
  S2-  S219  1  0.75270286  0.38804965  0.94703549  1
  S2-  S220  1  0.76323968  0.64196424  0.47466250  1
  S2-  S221  1  0.75439698  0.64231339  0.94575283  1
  S2-  S222  1  0.75921452  0.88727173  0.45164611  1
  S2-  S223  1  0.74947592  0.88727455  0.94983141  1
  S2-  S224  1  0.12867578  0.01587852  0.04698318  1
  S2-  S225  1  0.13512553  0.01251503  0.53644443  1
  S2-  S226  1  0.12439197  0.26338234  0.06189425  1
  S2-  S227  1  0.13315922  0.25722632  0.54047972  1
  S2-  S228  1  0.12963054  0.51219377  0.05331455  1
  S2-  S229  1  0.13844229  0.50856699  0.53234310  1
  S2-  S230  1  0.12847457  0.76559906  0.05466106  1
  S2-  S231  1  0.13089626  0.76652335  0.54233497  1
  S2-  S232  1  0.37753258  0.01616187  0.04324051  1
  S2-  S233  1  0.38535681  0.01018694  0.55040820  1
  S2-  S234  1  0.37858808  0.26296491  0.04994149  1
  S2-  S235  1  0.38736787  0.25761771  0.54984398  1
  S2-  S236  1  0.37866474  0.50959762  0.04218426  1
  S2-  S237  1  0.37838126  0.51386743  0.54643798  1
  S2-  S238  1  0.38213013  0.77017482  0.03860481  1
  S2-  S239  1  0.37804447  0.76065630  0.55157702  1
  S2-  S240  1  0.63088213  0.01449954  0.04760539  1
  S2-  S241  1  0.63013903  0.01063482  0.54255567  1
  S2-  S242  1  0.63068001  0.26047929  0.04254674  1
  S2-  S243  1  0.63616682  0.25477371  0.55516151  1
  S2-  S244  1  0.62772847  0.51626504  0.03576474  1
  S2-  S245  1  0.63791050  0.51040505  0.55442134  1
  S2-  S246  1  0.62209743  0.77199521  0.04738203  1
  S2-  S247  1  0.63461490  0.76385587  0.54744936  1
  S2-  S248  1  0.87254063  0.01135238  0.03750281  1
  S2-  S249  1  0.89172264  0.00959534  0.53544357  1
  S2-  S250  1  0.87803624  0.26773889  0.04821605  1
  S2-  S251  1  0.88541498  0.25613471  0.54111273  1
  S2-  S252  1  0.87204630  0.51853441  0.04384534  1
  S2-  S253  1  0.88435389  0.50757877  0.53765460  1
  S2-  S254  1  0.87619976  0.76615981  0.04731575  1
  S2-  S255  1  0.90132810  0.77316154  0.55496006  1
