# generated using pymatgen
data_La9Ce10Pr6Nd4Sm3(BiS2)32
_symmetry_space_group_name_H-M   'P 1'
_cell_length_a   16.25094306
_cell_length_b   16.23269774
_cell_length_c   27.03199681
_cell_angle_alpha   89.99966776
_cell_angle_beta   89.92235428
_cell_angle_gamma   90.03150470
_symmetry_Int_Tables_number   1
_chemical_formula_structural   La9Ce10Pr6Nd4Sm3(BiS2)32
_chemical_formula_sum   'La18 Ce20 Pr12 Nd8 Sm6 Bi64 S128'
_cell_volume   7130.94248650
_cell_formula_units_Z   2
loop_
 _symmetry_equiv_pos_site_id
 _symmetry_equiv_pos_as_xyz
  1  'x, y, z'
loop_
 _atom_type_symbol
 _atom_type_oxidation_number
  La3+  3.0
  Ce3+  3.0
  Pr3+  3.0
  Nd3+  3.0
  Sm3+  3.0
  Bi2+  2.0
  S2-  -2.0
loop_
 _atom_site_type_symbol
 _atom_site_label
 _atom_site_symmetry_multiplicity
 _atom_site_fract_x
 _atom_site_fract_y
 _atom_site_fract_z
 _atom_site_occupancy
  La3+  La0  1  0.88454011  0.48642567  0.42919289  1
  La3+  La1  1  0.63164324  0.48639555  0.43728355  1
  La3+  La2  1  0.13713945  0.00998419  0.92021006  1
  La3+  La3  1  0.00629505  0.86491394  0.58017179  1
  La3+  La4  1  -0.00022361  0.38502748  0.58675774  1
  La3+  La5  1  0.88974264  0.75371840  0.93471942  1
  La3+  La6  1  0.38729831  0.47888125  0.41399746  1
  La3+  La7  1  0.25461465  0.87651578  0.05998802  1
  La3+  La8  1  0.11702845  0.75421981  0.39856308  1
  La3+  La9  1  0.74415176  0.87242024  0.58396090  1
  La3+  La10  1  0.25254986  0.12181855  0.57579145  1
  La3+  La11  1  0.00568464  0.11888135  0.59738475  1
  La3+  La12  1  0.25778820  0.61662640  0.55195976  1
  La3+  La13  1  0.26531639  0.61640466  0.08359484  1
  La3+  La14  1  0.26305176  0.37726801  0.58088968  1
  La3+  La15  1  0.38731140  0.51031798  0.91056607  1
  La3+  La16  1  0.75973795  0.88748171  0.06862992  1
  La3+  La17  1  -0.00347699  0.62238921  0.08483429  1
  Ce3+  Ce18  1  0.38320524  0.25741435  0.93888750  1
  Ce3+  Ce19  1  0.63431034  0.74552775  0.43819497  1
  Ce3+  Ce20  1  0.63035083  0.25306703  0.94201669  1
  Ce3+  Ce21  1  0.75689349  0.62116628  0.55787911  1
  Ce3+  Ce22  1  0.50303511  0.12834983  0.05397222  1
  Ce3+  Ce23  1  0.00420019  0.61942330  0.54881012  1
  Ce3+  Ce24  1  0.63194602  0.23534529  0.44614862  1
  Ce3+  Ce25  1  0.13502728  0.49022057  0.43487659  1
  Ce3+  Ce26  1  0.12739666  0.74873799  0.95051324  1
  Ce3+  Ce27  1  0.37611487  -0.00704197  0.44398796  1
  Ce3+  Ce28  1  0.75458715  0.63976309  0.06337789  1
  Ce3+  Ce29  1  0.37978125  0.74150136  0.42999806  1
  Ce3+  Ce30  1  0.13131296  0.26346605  0.92552429  1
  Ce3+  Ce31  1  0.63050329  0.50537625  0.94354834  1
  Ce3+  Ce32  1  0.37953202  0.00410444  0.93426009  1
  Ce3+  Ce33  1  0.50550067  0.37056717  0.56291920  1
  Ce3+  Ce34  1  0.01182462  0.13126867  0.05471910  1
  Ce3+  Ce35  1  0.24879306  0.86539895  0.55439829  1
  Ce3+  Ce36  1  0.12788658  -0.00620304  0.44565242  1
  Ce3+  Ce37  1  0.88155781  0.25256561  0.94298996  1
  Pr3+  Pr38  1  0.75606130  0.12027669  0.57230732  1
  Pr3+  Pr39  1  0.38055892  0.75272610  0.93240362  1
  Pr3+  Pr40  1  0.62797171  -0.00020511  0.93259475  1
  Pr3+  Pr41  1  0.75329570  0.37035695  0.56791605  1
  Pr3+  Pr42  1  0.87376353  0.74918970  0.43683351  1
  Pr3+  Pr43  1  0.50010124  0.11775098  0.57549919  1
  Pr3+  Pr44  1  0.12660740  0.50288569  0.93603345  1
  Pr3+  Pr45  1  0.75437356  0.37772378  0.05883727  1
  Pr3+  Pr46  1  0.63483100  -0.00700913  0.44292757  1
  Pr3+  Pr47  1  0.00832137  0.88975209  0.06633223  1
  Pr3+  Pr48  1  0.13104007  0.24933756  0.45244425  1
  Pr3+  Pr49  1  0.88273751  0.00359637  0.93072184  1
  Nd3+  Nd50  1  0.37857558  0.23515662  0.44428746  1
  Nd3+  Nd51  1  0.00903601  0.37620089  0.06487934  1
  Nd3+  Nd52  1  0.50181136  0.88044005  0.05736438  1
  Nd3+  Nd53  1  0.88004117  0.50349110  0.94326909  1
  Nd3+  Nd54  1  0.25568472  0.13324251  0.05325107  1
  Nd3+  Nd55  1  0.50335979  0.86650923  0.55557982  1
  Nd3+  Nd56  1  0.88470347  0.24383716  0.45082722  1
  Nd3+  Nd57  1  0.50547159  0.63030392  0.05809014  1
  Sm3+  Sm58  1  0.50444209  0.61882165  0.55032166  1
  Sm3+  Sm59  1  0.63697264  0.75572902  0.94102181  1
  Sm3+  Sm60  1  0.50397181  0.38285830  0.06024682  1
  Sm3+  Sm61  1  0.88458003  -0.00838739  0.45659390  1
  Sm3+  Sm62  1  0.75410339  0.12702155  0.05787919  1
  Sm3+  Sm63  1  0.25807061  0.38296600  0.05139248  1
  Bi2+  Bi64  1  -0.00511914  0.14415033  0.30384740  1
  Bi2+  Bi65  1  -0.01272929  0.13323074  0.80339421  1
  Bi2+  Bi66  1  0.01319792  0.33937452  0.29042657  1
  Bi2+  Bi67  1  -0.00835004  0.38394903  0.79601147  1
  Bi2+  Bi68  1  0.00397632  0.63767088  0.28834490  1
  Bi2+  Bi69  1  0.02617078  0.62061008  0.78864053  1
  Bi2+  Bi70  1  -0.02887870  0.91567529  0.29695514  1
  Bi2+  Bi71  1  -0.04300489  0.86026915  0.80517416  1
  Bi2+  Bi72  1  0.19257481  0.14771106  0.31905397  1
  Bi2+  Bi73  1  0.33518141  0.10135209  0.77999182  1
  Bi2+  Bi74  1  0.24921317  0.32960350  0.29114756  1
  Bi2+  Bi75  1  0.25824309  0.33267898  0.78377945  1
  Bi2+  Bi76  1  0.25393684  0.63334085  0.28158820  1
  Bi2+  Bi77  1  0.26073344  0.66590603  0.76986060  1
  Bi2+  Bi78  1  0.26816957  0.97559100  0.29926927  1
  Bi2+  Bi79  1  0.24829691  0.85436636  0.78875215  1
  Bi2+  Bi80  1  0.49918923  0.16024428  0.25836615  1
  Bi2+  Bi81  1  0.50357888  0.03019968  0.81713870  1
  Bi2+  Bi82  1  0.51791547  0.34619213  0.29433208  1
  Bi2+  Bi83  1  0.54427412  0.36817421  0.78105884  1
  Bi2+  Bi84  1  0.50625930  0.69837018  0.29166848  1
  Bi2+  Bi85  1  0.52358462  0.61250232  0.78849003  1
  Bi2+  Bi86  1  0.53735616  0.88213838  0.26664849  1
  Bi2+  Bi87  1  0.44160512  0.84802061  0.80101527  1
  Bi2+  Bi88  1  0.74302187  0.13717986  0.29836904  1
  Bi2+  Bi89  1  0.65877309  0.15002199  0.76654867  1
  Bi2+  Bi90  1  0.77393012  0.35651146  0.29032047  1
  Bi2+  Bi91  1  0.74218466  0.42526840  0.79178451  1
  Bi2+  Bi92  1  0.73415192  0.63328637  0.29127203  1
  Bi2+  Bi93  1  0.71602814  0.61712299  0.77797393  1
  Bi2+  Bi94  1  0.72314283  0.90752522  0.29949114  1
  Bi2+  Bi95  1  0.70612388  0.85756926  0.78546936  1
  Bi2+  Bi96  1  0.11468964  0.06816925  0.21775858  1
  Bi2+  Bi97  1  0.12606381  -0.03171894  0.72042276  1
  Bi2+  Bi98  1  0.07516176  0.24517270  0.16807198  1
  Bi2+  Bi99  1  0.12681377  0.22608334  0.72725002  1
  Bi2+  Bi100  1  0.13650188  0.41272442  0.20902077  1
  Bi2+  Bi101  1  0.12096667  0.50869102  0.71180185  1
  Bi2+  Bi102  1  0.11261126  0.80792507  0.19680569  1
  Bi2+  Bi103  1  0.10626647  0.74011076  0.71041485  1
  Bi2+  Bi104  1  0.40314678  0.00174925  0.21814737  1
  Bi2+  Bi105  1  0.37060832  -0.05667838  0.70155763  1
  Bi2+  Bi106  1  0.33719586  0.22623779  0.21385618  1
  Bi2+  Bi107  1  0.46785856  0.20525437  0.71399087  1
  Bi2+  Bi108  1  0.39432250  0.48192541  0.20738348  1
  Bi2+  Bi109  1  0.37343937  0.50406196  0.70761417  1
  Bi2+  Bi110  1  0.36682606  0.77145870  0.19106939  1
  Bi2+  Bi111  1  0.37455595  0.75120248  0.68671106  1
  Bi2+  Bi112  1  0.63783030  0.04116712  0.20443221  1
  Bi2+  Bi113  1  0.55490629  0.01930777  0.69858018  1
  Bi2+  Bi114  1  0.68745817  0.24363233  0.20580353  1
  Bi2+  Bi115  1  0.62802859  0.28259077  0.66512323  1
  Bi2+  Bi116  1  0.60716514  0.50687928  0.24950240  1
  Bi2+  Bi117  1  0.63038967  0.48145500  0.70321575  1
  Bi2+  Bi118  1  0.62009051  0.68027076  0.19859356  1
  Bi2+  Bi119  1  0.57238377  0.75640485  0.71869893  1
  Bi2+  Bi120  1  0.87790707  0.06250137  0.22281693  1
  Bi2+  Bi121  1  0.85257884  0.01014724  0.71512730  1
  Bi2+  Bi122  1  0.89096805  0.25495805  0.20167642  1
  Bi2+  Bi123  1  0.79985944  0.27314807  0.72221032  1
  Bi2+  Bi124  1  0.86642497  0.47816157  0.21105055  1
  Bi2+  Bi125  1  0.85295631  0.53750381  0.70117397  1
  Bi2+  Bi126  1  0.86203299  0.74419523  0.20711259  1
  Bi2+  Bi127  1  0.90927848  0.72659028  0.71021683  1
  S2-  S128  1  0.01927452  0.03552583  0.13500344  1
  S2-  S129  1  -0.09584555  0.16233620  0.68177516  1
  S2-  S130  1  0.00444711  0.47239842  0.14836015  1
  S2-  S131  1  0.04201534  0.36138753  0.69124235  1
  S2-  S132  1  0.01976671  0.67199308  0.18466004  1
  S2-  S133  1  0.00938558  0.55390937  0.64027783  1
  S2-  S134  1  -0.04878146  0.85447090  0.16229671  1
  S2-  S135  1  -0.00466513  0.97766231  0.66265385  1
  S2-  S136  1  0.24523769  0.13266657  0.15380238  1
  S2-  S137  1  0.15174434  0.10127667  0.66042081  1
  S2-  S138  1  0.26638707  0.45944868  0.14089462  1
  S2-  S139  1  0.24267265  0.29671803  0.67757441  1
  S2-  S140  1  0.22571965  0.67752565  0.17708303  1
  S2-  S141  1  0.24821100  0.52991744  0.64198425  1
  S2-  S142  1  0.25689107  0.89213686  0.16094365  1
  S2-  S143  1  0.16234837  0.85518533  0.64067744  1
  S2-  S144  1  0.49658936  0.11228070  0.15148761  1
  S2-  S145  1  0.37627869  0.11647424  0.64936437  1
  S2-  S146  1  0.49142451  0.38267725  0.15986628  1
  S2-  S147  1  0.41635352  0.39348502  0.64485761  1
  S2-  S148  1  0.41801471  0.62131259  0.14494995  1
  S2-  S149  1  0.46581655  0.62003418  0.64781736  1
  S2-  S150  1  0.49195966  0.87105215  0.15719163  1
  S2-  S151  1  0.59066399  0.86584559  0.64350857  1
  S2-  S152  1  0.76386837  0.02446944  0.13885170  1
  S2-  S153  1  0.72724237  0.02803329  0.65642828  1
  S2-  S154  1  0.74703122  0.39231620  0.15933118  1
  S2-  S155  1  0.85192915  0.39139130  0.64935259  1
  S2-  S156  1  0.83436686  0.60414927  0.14792602  1
  S2-  S157  1  0.75250025  0.65621658  0.65361478  1
  S2-  S158  1  0.73085150  0.78683115  0.14976842  1
  S2-  S159  1  0.84695244  0.85527373  0.66527353  1
  S2-  S160  1  0.11566231  -0.07213324  0.35489716  1
  S2-  S161  1  0.07081897  -0.03043537  0.82637081  1
  S2-  S162  1  0.12963398  0.35871083  0.36874197  1
  S2-  S163  1  0.13097855  0.17326673  0.84104490  1
  S2-  S164  1  0.12871492  0.58365009  0.34797045  1
  S2-  S165  1  0.12288228  0.39438034  0.85265145  1
  S2-  S166  1  0.13041962  0.76243010  0.28963634  1
  S2-  S167  1  0.03640578  0.74397478  0.86663360  1
  S2-  S168  1  0.37430064  0.06627111  0.35608861  1
  S2-  S169  1  0.27998169  -0.00253650  0.85351865  1
  S2-  S170  1  0.38618727  0.32482330  0.35887545  1
  S2-  S171  1  0.36777169  0.24474662  0.84022169  1
  S2-  S172  1  0.34773280  0.52030819  0.31108710  1
  S2-  S173  1  0.33512929  0.46147375  0.81102849  1
  S2-  S174  1  0.35410653  0.75296939  0.33136345  1
  S2-  S175  1  0.38675066  0.65701485  0.84751706  1
  S2-  S176  1  0.63066249  0.03806322  0.34474097  1
  S2-  S177  1  0.67541220  0.01434267  0.83494402  1
  S2-  S178  1  0.65254553  0.28727306  0.35314391  1
  S2-  S179  1  0.61196582  0.25445161  0.84364001  1
  S2-  S180  1  0.54503718  0.48564554  0.34977410  1
  S2-  S181  1  0.54372256  0.49341158  0.85815090  1
  S2-  S182  1  0.73763973  0.77131882  0.36097992  1
  S2-  S183  1  0.59711608  0.80784627  0.84987761  1
  S2-  S184  1  0.85788944  -0.03107691  0.35769563  1
  S2-  S185  1  0.87627442  0.01006167  0.82740145  1
  S2-  S186  1  0.88818490  0.34089925  0.36517504  1
  S2-  S187  1  0.89311443  0.25792806  0.84392585  1
  S2-  S188  1  0.86991755  0.55995720  0.33375257  1
  S2-  S189  1  0.93013600  0.51401952  0.84730364  1
  S2-  S190  1  0.95986920  0.76906604  0.34864609  1
  S2-  S191  1  0.81567364  0.77624622  0.84180736  1
  S2-  S192  1  0.00564471  0.11889592  0.45601503  1
  S2-  S193  1  0.00683731  0.13036346  0.94746309  1
  S2-  S194  1  0.00466663  0.36922099  0.46992125  1
  S2-  S195  1  0.00129907  0.37840977  0.95830161  1
  S2-  S196  1  0.00384439  0.62110203  0.44564724  1
  S2-  S197  1  0.00465923  0.62167977  0.96647416  1
  S2-  S198  1  0.00429681  0.86923694  0.46314572  1
  S2-  S199  1  0.00981005  0.88560025  0.95695455  1
  S2-  S200  1  0.25185306  0.11782298  0.46436867  1
  S2-  S201  1  0.25952823  0.13609552  0.94831562  1
  S2-  S202  1  0.26176663  0.36676171  0.46442882  1
  S2-  S203  1  0.26262552  0.38503529  0.94700693  1
  S2-  S204  1  0.26568417  0.61301963  0.44346953  1
  S2-  S205  1  0.25208317  0.62634313  0.94727422  1
  S2-  S206  1  0.25395532  0.86479089  0.44782762  1
  S2-  S207  1  0.25360518  0.87208742  0.95102536  1
  S2-  S208  1  0.50406605  0.11485329  0.46192845  1
  S2-  S209  1  0.50456810  0.12927188  0.94750451  1
  S2-  S210  1  0.51035581  0.35872324  0.45801349  1
  S2-  S211  1  0.50789436  0.37741536  0.95454091  1
  S2-  S212  1  0.50787537  0.62101589  0.44457150  1
  S2-  S213  1  0.51236979  0.63500355  0.95234566  1
  S2-  S214  1  0.50596608  0.86993487  0.44671328  1
  S2-  S215  1  0.50263656  0.87764794  0.95173152  1
  S2-  S216  1  0.76113067  0.11701734  0.46170435  1
  S2-  S217  1  0.75452765  0.12707475  0.95158613  1
  S2-  S218  1  0.75346030  0.36351433  0.46139361  1
  S2-  S219  1  0.75482674  0.37865922  0.95067612  1
  S2-  S220  1  0.75395354  0.61487596  0.45105511  1
  S2-  S221  1  0.75607990  0.63030359  0.95183816  1
  S2-  S222  1  0.75539029  0.87460934  0.47018968  1
  S2-  S223  1  0.75622212  0.88154002  0.95485711  1
  S2-  S224  1  0.13861766  0.00696768  0.03553246  1
  S2-  S225  1  0.12629579  -0.00602621  0.54979511  1
  S2-  S226  1  0.13613598  0.25974913  0.03679402  1
  S2-  S227  1  0.12457601  0.24947416  0.56093527  1
  S2-  S228  1  0.13249448  0.50235812  0.04418575  1
  S2-  S229  1  0.12950113  0.49388048  0.54138075  1
  S2-  S230  1  0.12900836  0.74903505  0.05654090  1
  S2-  S231  1  0.13041365  0.73774598  0.54167158  1
  S2-  S232  1  0.37785220  0.00507997  0.04376645  1
  S2-  S233  1  0.37719587  -0.01260518  0.55012684  1
  S2-  S234  1  0.38140972  0.25918100  0.04814085  1
  S2-  S235  1  0.38171498  0.24525508  0.55017173  1
  S2-  S236  1  0.38602477  0.50229793  0.03521460  1
  S2-  S237  1  0.38880134  0.49623024  0.53270218  1
  S2-  S238  1  0.37961271  0.75157368  0.04177507  1
  S2-  S239  1  0.38141281  0.74380775  0.53872885  1
  S2-  S240  1  0.62579521  0.00484677  0.04162571  1
  S2-  S241  1  0.62402354  -0.00080650  0.54823114  1
  S2-  S242  1  0.62849652  0.25206283  0.05049022  1
  S2-  S243  1  0.62788642  0.23970056  0.55114924  1
  S2-  S244  1  0.63022384  0.50598313  0.05184304  1
  S2-  S245  1  0.62987008  0.49737683  0.54766687  1
  S2-  S246  1  0.62601287  0.75854338  0.04447231  1
  S2-  S247  1  0.62745596  0.74108548  0.54358528  1
  S2-  S248  1  0.88304479  0.01141614  0.03776340  1
  S2-  S249  1  0.88141404  -0.00239134  0.55818321  1
  S2-  S250  1  0.87890939  0.25065708  0.05116573  1
  S2-  S251  1  0.88236804  0.24242360  0.55635544  1
  S2-  S252  1  0.87602474  0.49990766  0.04686345  1
  S2-  S253  1  0.87571799  0.49811603  0.54013123  1
  S2-  S254  1  0.88386113  0.75839729  0.04522117  1
  S2-  S255  1  0.88059572  0.74460821  0.54723330  1
