# generated using pymatgen
data_La9Ce10Pr6Nd4Sm3(BiS2)32
_symmetry_space_group_name_H-M   'P 1'
_cell_length_a   16.13783126
_cell_length_b   16.08592713
_cell_length_c   27.08363940
_cell_angle_alpha   89.76677912
_cell_angle_beta   89.76686166
_cell_angle_gamma   90.00401620
_symmetry_Int_Tables_number   1
_chemical_formula_structural   La9Ce10Pr6Nd4Sm3(BiS2)32
_chemical_formula_sum   'La18 Ce20 Pr12 Nd8 Sm6 Bi64 S128'
_cell_volume   7030.57904264
_cell_formula_units_Z   2
loop_
 _symmetry_equiv_pos_site_id
 _symmetry_equiv_pos_as_xyz
  1  'x, y, z'
loop_
 _atom_type_symbol
 _atom_type_oxidation_number
  La3+  3.0
  Ce3+  3.0
  Pr3+  3.0
  Nd3+  3.0
  Sm3+  3.0
  Bi2+  2.0
  S2-  -2.0
loop_
 _atom_site_type_symbol
 _atom_site_label
 _atom_site_symmetry_multiplicity
 _atom_site_fract_x
 _atom_site_fract_y
 _atom_site_fract_z
 _atom_site_occupancy
  La3+  La0  1  -0.02123514  0.60608215  0.57493796  1
  La3+  La1  1  0.38082711  0.73073152  0.91581660  1
  La3+  La2  1  0.36531495  0.49780229  0.43133344  1
  La3+  La3  1  0.00398222  0.34969212  0.07569205  1
  La3+  La4  1  0.13255754  0.74061314  0.89266544  1
  La3+  La5  1  0.25372181  0.60639997  0.06466645  1
  La3+  La6  1  -0.00733330  0.85549325  0.58557984  1
  La3+  La7  1  0.23616810  0.11660810  0.56564221  1
  La3+  La8  1  0.61012130  0.23450617  0.41169771  1
  La3+  La9  1  0.73959695  0.86503394  0.57572683  1
  La3+  La10  1  0.61548208  0.49997775  0.42081666  1
  La3+  La11  1  0.23054854  0.61762369  0.57142886  1
  La3+  La12  1  0.38034157  0.47800234  0.92609067  1
  La3+  La13  1  0.63412370  0.22283529  0.91987199  1
  La3+  La14  1  0.48977259  0.61311936  0.56974969  1
  La3+  La15  1  0.87433179  0.23531072  0.39535810  1
  La3+  La16  1  0.00290693  0.85337888  0.05013493  1
  La3+  La17  1  0.75880599  0.61205407  0.08052077  1
  Ce3+  Ce18  1  0.25244129  0.35760552  0.06178439  1
  Ce3+  Ce19  1  0.86569682  0.49840285  0.42839676  1
  Ce3+  Ce20  1  0.12484700  0.23279152  0.93996701  1
  Ce3+  Ce21  1  0.62373143  -0.01701582  0.94616274  1
  Ce3+  Ce22  1  0.35806614  0.74141736  0.43306746  1
  Ce3+  Ce23  1  0.11495556  0.24427762  0.43931370  1
  Ce3+  Ce24  1  0.48902852  0.86512988  0.55737558  1
  Ce3+  Ce25  1  0.74010738  0.12092471  0.55194256  1
  Ce3+  Ce26  1  0.61713661  0.74407660  0.43698658  1
  Ce3+  Ce27  1  0.87509849  0.23500643  0.94476589  1
  Ce3+  Ce28  1  0.62436070  0.72994347  0.94340001  1
  Ce3+  Ce29  1  0.23889649  0.37195100  0.56461855  1
  Ce3+  Ce30  1  0.11255781  0.49338594  0.43996637  1
  Ce3+  Ce31  1  0.37419402  0.22681327  0.93520288  1
  Ce3+  Ce32  1  0.74966684  0.85629576  0.05558030  1
  Ce3+  Ce33  1  0.50246168  0.60288158  0.06075898  1
  Ce3+  Ce34  1  0.49369543  0.36656652  0.55996532  1
  Ce3+  Ce35  1  0.73994321  0.10370652  0.07500515  1
  Ce3+  Ce36  1  0.24406783  0.86019160  0.57033023  1
  Ce3+  Ce37  1  0.50286810  0.35301038  0.06082084  1
  Pr3+  Pr38  1  0.61682146  -0.00818151  0.44278833  1
  Pr3+  Pr39  1  0.86628897  -0.00772433  0.43749666  1
  Pr3+  Pr40  1  0.73571264  0.60404191  0.56900118  1
  Pr3+  Pr41  1  0.75719586  0.34810402  0.09042781  1
  Pr3+  Pr42  1  0.86810221  0.74629650  0.43953756  1
  Pr3+  Pr43  1  0.87279379  0.72585343  0.92315360  1
  Pr3+  Pr44  1  0.36273786  0.24834484  0.43429186  1
  Pr3+  Pr45  1  0.87188801  -0.01638139  0.93781123  1
  Pr3+  Pr46  1  0.62707583  0.47952789  0.94667033  1
  Pr3+  Pr47  1  0.25077493  0.09855207  0.07023756  1
  Pr3+  Pr48  1  0.87228268  0.48162364  0.93809575  1
  Pr3+  Pr49  1  0.11289617  0.74462879  0.43342991  1
  Nd3+  Nd50  1  0.12290763  -0.00948360  0.92388156  1
  Nd3+  Nd51  1  0.25029227  0.85150357  0.05944190  1
  Nd3+  Nd52  1  0.37129757  -0.01844270  0.93479311  1
  Nd3+  Nd53  1  0.49293358  0.12505306  0.56834844  1
  Nd3+  Nd54  1  0.49433993  0.10669781  0.06799592  1
  Nd3+  Nd55  1  0.00047360  0.10272383  0.06120587  1
  Nd3+  Nd56  1  0.12518426  0.48633877  0.93900413  1
  Nd3+  Nd57  1  0.36439664  -0.00618086  0.44817451  1
  Sm3+  Sm58  1  0.73667523  0.36501763  0.53883548  1
  Sm3+  Sm59  1  -0.01601310  0.36639244  0.54989214  1
  Sm3+  Sm60  1  -0.00348796  0.60445596  0.05534600  1
  Sm3+  Sm61  1  0.49622548  0.85211167  0.05924785  1
  Sm3+  Sm62  1  -0.01462905  0.11785390  0.55796343  1
  Sm3+  Sm63  1  0.11218430  -0.00784844  0.45017544  1
  Bi2+  Bi64  1  0.09254008  0.10077521  0.28095875  1
  Bi2+  Bi65  1  0.01450731  0.19861005  0.78639908  1
  Bi2+  Bi66  1  0.02438496  0.41908863  0.22700046  1
  Bi2+  Bi67  1  0.00423028  0.36018011  0.85111139  1
  Bi2+  Bi68  1  0.04695168  0.70078636  0.26469395  1
  Bi2+  Bi69  1  -0.03382093  0.58287391  0.80034928  1
  Bi2+  Bi70  1  -0.04477572  0.91511883  0.31751897  1
  Bi2+  Bi71  1  -0.00608575  0.89740041  0.78862367  1
  Bi2+  Bi72  1  0.23164785  0.21446675  0.31991563  1
  Bi2+  Bi73  1  0.24386200  0.17249178  0.78197418  1
  Bi2+  Bi74  1  0.15046347  0.39042778  0.31605339  1
  Bi2+  Bi75  1  0.21090810  0.37646186  0.80215285  1
  Bi2+  Bi76  1  0.24024025  0.63791641  0.29926125  1
  Bi2+  Bi77  1  0.24199888  0.57345523  0.77676516  1
  Bi2+  Bi78  1  0.34424646  0.86802053  0.29212548  1
  Bi2+  Bi79  1  0.29938693  0.96905485  0.79133753  1
  Bi2+  Bi80  1  0.47921028  0.08332377  0.29063639  1
  Bi2+  Bi81  1  0.50855191  0.13766979  0.79438701  1
  Bi2+  Bi82  1  0.45966475  0.34767293  0.28314074  1
  Bi2+  Bi83  1  0.48082959  0.39059331  0.78853669  1
  Bi2+  Bi84  1  0.50055703  0.68133839  0.28405703  1
  Bi2+  Bi85  1  0.50309320  0.61710724  0.78243592  1
  Bi2+  Bi86  1  0.54667708  0.86891503  0.31453725  1
  Bi2+  Bi87  1  0.58961770  0.87617661  0.79617079  1
  Bi2+  Bi88  1  0.74491234  0.03501225  0.28336811  1
  Bi2+  Bi89  1  0.78069403  0.06521287  0.80684371  1
  Bi2+  Bi90  1  0.73616320  0.40178008  0.29285766  1
  Bi2+  Bi91  1  0.82655930  0.39781257  0.80874315  1
  Bi2+  Bi92  1  0.76875111  0.69578667  0.30215891  1
  Bi2+  Bi93  1  0.70731881  0.64015760  0.77866281  1
  Bi2+  Bi94  1  0.74324465  0.87013748  0.35124232  1
  Bi2+  Bi95  1  0.78182550  0.85426949  0.81175024  1
  Bi2+  Bi96  1  0.24667889  0.01096050  0.23261757  1
  Bi2+  Bi97  1  0.13732934  0.03815700  0.69814381  1
  Bi2+  Bi98  1  0.14558141  0.29026718  0.18105183  1
  Bi2+  Bi99  1  0.12935893  0.28782562  0.70864081  1
  Bi2+  Bi100  1  0.13364138  0.56972413  0.19503395  1
  Bi2+  Bi101  1  0.05567952  0.46273691  0.72999763  1
  Bi2+  Bi102  1  0.15159594  0.84164894  0.20993663  1
  Bi2+  Bi103  1  0.16253577  0.78012936  0.70405282  1
  Bi2+  Bi104  1  0.50950997  -0.02984706  0.20145389  1
  Bi2+  Bi105  1  0.46459976  0.00572967  0.71370573  1
  Bi2+  Bi106  1  0.31646479  0.22092517  0.21334848  1
  Bi2+  Bi107  1  0.39919953  0.23496498  0.71009360  1
  Bi2+  Bi108  1  0.28273678  0.45111262  0.23642043  1
  Bi2+  Bi109  1  0.34845498  0.43142988  0.70584002  1
  Bi2+  Bi110  1  0.36169004  0.71755578  0.20610277  1
  Bi2+  Bi111  1  0.37679440  0.77923959  0.72789484  1
  Bi2+  Bi112  1  0.73711132  -0.05339663  0.18322804  1
  Bi2+  Bi113  1  0.65984788  0.02030880  0.70852422  1
  Bi2+  Bi114  1  0.62684704  0.23425465  0.20876404  1
  Bi2+  Bi115  1  0.64783284  0.24629475  0.71853293  1
  Bi2+  Bi116  1  0.55724921  0.48837513  0.20080262  1
  Bi2+  Bi117  1  0.61513050  0.50866923  0.70620002  1
  Bi2+  Bi118  1  0.61029122  0.79955332  0.21231977  1
  Bi2+  Bi119  1  0.64236424  0.79663455  0.69794441  1
  Bi2+  Bi120  1  0.92608988  -0.01186101  0.21079309  1
  Bi2+  Bi121  1  0.86024019  0.04703231  0.69918780  1
  Bi2+  Bi122  1  0.90223847  0.23086592  0.21554300  1
  Bi2+  Bi123  1  0.84586515  0.25763032  0.73065803  1
  Bi2+  Bi124  1  0.81964009  0.56721818  0.22180189  1
  Bi2+  Bi125  1  0.83862316  0.47301649  0.70169320  1
  Bi2+  Bi126  1  0.88611429  0.79029584  0.22211294  1
  Bi2+  Bi127  1  0.83263091  0.75010099  0.71888595  1
  S2-  S128  1  0.03083557  0.16326618  0.15462146  1
  S2-  S129  1  -0.00173501  0.12234438  0.65708453  1
  S2-  S130  1  -0.09954898  0.36963013  0.15657893  1
  S2-  S131  1  -0.02135763  0.44592549  0.63844285  1
  S2-  S132  1  -0.09397412  0.60843490  0.14427767  1
  S2-  S133  1  0.06594233  0.69882323  0.64676959  1
  S2-  S134  1  0.00455603  0.86677843  0.15273471  1
  S2-  S135  1  0.04729589  0.90548089  0.68438983  1
  S2-  S136  1  0.37354604  0.11166866  0.14516230  1
  S2-  S137  1  0.26335642  0.15442929  0.66284230  1
  S2-  S138  1  0.25652717  0.47302737  0.13866605  1
  S2-  S139  1  0.23017992  0.48074860  0.64177300  1
  S2-  S140  1  0.23554038  0.73355265  0.14069473  1
  S2-  S141  1  0.30077274  0.70455581  0.65639719  1
  S2-  S142  1  0.20962134  0.96293220  0.13910431  1
  S2-  S143  1  0.24789637  0.92381830  0.66366554  1
  S2-  S144  1  0.60017887  0.10557186  0.14930837  1
  S2-  S145  1  0.52540033  0.24855410  0.63957622  1
  S2-  S146  1  0.49896699  0.33118940  0.16177813  1
  S2-  S147  1  0.48374866  0.47606232  0.63945157  1
  S2-  S148  1  0.44161369  0.58619141  0.15225850  1
  S2-  S149  1  0.61622697  0.64607583  0.64345897  1
  S2-  S150  1  0.42348522  0.85477568  0.14987707  1
  S2-  S151  1  0.47340756  0.84802526  0.65738701  1
  S2-  S152  1  0.77653694  0.19947420  0.15663779  1
  S2-  S153  1  0.74067369  0.15977460  0.64891520  1
  S2-  S154  1  0.69622519  0.38934978  0.18687667  1
  S2-  S155  1  0.71896127  0.43275692  0.63102363  1
  S2-  S156  1  0.66626360  0.59431730  0.17025628  1
  S2-  S157  1  0.84839242  0.62014407  0.64979199  1
  S2-  S158  1  0.76668322  0.78034943  0.14205180  1
  S2-  S159  1  0.85247087  0.88685227  0.65209583  1
  S2-  S160  1  0.10312034  -0.02704001  0.35081579  1
  S2-  S161  1  0.14163979  -0.09360815  0.83543100  1
  S2-  S162  1  0.04676639  0.22479749  0.34933053  1
  S2-  S163  1  0.13204188  0.13497904  0.85706387  1
  S2-  S164  1  0.10640856  0.55022695  0.34696188  1
  S2-  S165  1  0.11887871  0.57430244  0.85035185  1
  S2-  S166  1  0.23638574  0.77459710  0.35896732  1
  S2-  S167  1  0.23234486  0.73208313  0.79972355  1
  S2-  S168  1  0.35180806  0.01031968  0.34811015  1
  S2-  S169  1  0.37211970  0.10371968  0.85944348  1
  S2-  S170  1  0.46300145  0.21736773  0.35286103  1
  S2-  S171  1  0.36269370  0.34210460  0.85788190  1
  S2-  S172  1  0.34815800  0.39484575  0.34751955  1
  S2-  S173  1  0.36715096  0.59294144  0.84608182  1
  S2-  S174  1  0.38276798  0.62261987  0.35541718  1
  S2-  S175  1  0.38112901  0.87656451  0.84963520  1
  S2-  S176  1  0.61238003  0.07306641  0.35245318  1
  S2-  S177  1  0.62674449  0.06696307  0.85945120  1
  S2-  S178  1  0.67428949  0.25828029  0.31196334  1
  S2-  S179  1  0.59870277  0.28041946  0.82159454  1
  S2-  S180  1  0.56852796  0.45126660  0.32179321  1
  S2-  S181  1  0.55957523  0.49361682  0.85180236  1
  S2-  S182  1  0.62239067  0.64531358  0.35513412  1
  S2-  S183  1  0.54460459  0.73670584  0.85469314  1
  S2-  S184  1  0.86723640  0.07934507  0.34571412  1
  S2-  S185  1  0.94611260  0.01343071  0.84622649  1
  S2-  S186  1  0.87411055  0.31615608  0.30402398  1
  S2-  S187  1  0.79206590  0.20943255  0.86029678  1
  S2-  S188  1  0.84172803  0.53694431  0.33144308  1
  S2-  S189  1  0.82012937  0.58885046  0.85687227  1
  S2-  S190  1  0.98616936  0.75575920  0.35926478  1
  S2-  S191  1  0.98175205  0.73944963  0.83848252  1
  S2-  S192  1  -0.00970391  0.11865895  0.45403024  1
  S2-  S193  1  -0.00344576  0.11017524  0.95597778  1
  S2-  S194  1  -0.01592625  0.36652728  0.44435511  1
  S2-  S195  1  0.00086809  0.35779175  0.96461740  1
  S2-  S196  1  -0.01209373  0.61560838  0.45914753  1
  S2-  S197  1  -0.00339278  0.60629088  0.95256523  1
  S2-  S198  1  -0.00956990  0.87243659  0.46630691  1
  S2-  S199  1  -0.00039143  0.85667270  0.94302953  1
  S2-  S200  1  0.23749785  0.11737274  0.45681158  1
  S2-  S201  1  0.24805775  0.10713705  0.96118920  1
  S2-  S202  1  0.23552011  0.36883956  0.45703286  1
  S2-  S203  1  0.24517279  0.35784291  0.95688184  1
  S2-  S204  1  0.23462024  0.61678306  0.45859456  1
  S2-  S205  1  0.24929842  0.60952586  0.95127267  1
  S2-  S206  1  0.23883229  0.87475719  0.46363587  1
  S2-  S207  1  0.24475708  0.85289725  0.94896654  1
  S2-  S208  1  0.48747583  0.11535088  0.46226395  1
  S2-  S209  1  0.50127458  0.10657907  0.96060671  1
  S2-  S210  1  0.49276973  0.36896154  0.44935566  1
  S2-  S211  1  0.50823918  0.34701209  0.95397803  1
  S2-  S212  1  0.49228618  0.62260543  0.45885568  1
  S2-  S213  1  0.50144662  0.60619326  0.95626025  1
  S2-  S214  1  0.48807872  0.86794352  0.45096936  1
  S2-  S215  1  0.50238312  0.85799556  0.95531546  1
  S2-  S216  1  0.74463936  0.12269364  0.44765575  1
  S2-  S217  1  0.74964811  0.10350187  0.96692381  1
  S2-  S218  1  0.74528904  0.36463558  0.43309102  1
  S2-  S219  1  0.74931237  0.35549173  0.95445398  1
  S2-  S220  1  0.74473338  0.62088253  0.45589944  1
  S2-  S221  1  0.74622295  0.60808453  0.96573029  1
  S2-  S222  1  0.74152754  0.86936857  0.46625082  1
  S2-  S223  1  0.74839854  0.85569458  0.94890956  1
  S2-  S224  1  0.12254918  -0.01783352  0.03353962  1
  S2-  S225  1  0.10997041  -0.00896932  0.55573779  1
  S2-  S226  1  0.12979874  0.22770034  0.04606670  1
  S2-  S227  1  0.10995480  0.24495146  0.54950816  1
  S2-  S228  1  0.11933657  0.48173619  0.04596522  1
  S2-  S229  1  0.10917232  0.48995008  0.54309446  1
  S2-  S230  1  0.11906472  0.72494412  0.04415174  1
  S2-  S231  1  0.11760911  0.74625954  0.54086981  1
  S2-  S232  1  0.37578232  -0.02338187  0.04142881  1
  S2-  S233  1  0.36881095  -0.00388557  0.55558665  1
  S2-  S234  1  0.37318043  0.23448845  0.04401949  1
  S2-  S235  1  0.36269815  0.24398158  0.54518133  1
  S2-  S236  1  0.38063088  0.47673701  0.03739550  1
  S2-  S237  1  0.36162223  0.49181888  0.53986165  1
  S2-  S238  1  0.37877152  0.72932235  0.03743326  1
  S2-  S239  1  0.36687424  0.74123505  0.54200627  1
  S2-  S240  1  0.61925096  -0.02531705  0.05096291  1
  S2-  S241  1  0.61335095  -0.00558344  0.55375739  1
  S2-  S242  1  0.62785645  0.23437055  0.05030516  1
  S2-  S243  1  0.61764331  0.24207942  0.52962994  1
  S2-  S244  1  0.63022910  0.47690134  0.05503224  1
  S2-  S245  1  0.61310174  0.48944174  0.53013174  1
  S2-  S246  1  0.62222533  0.73187114  0.05006306  1
  S2-  S247  1  0.61418117  0.74611029  0.54231606  1
  S2-  S248  1  0.87349141  -0.01785399  0.04845223  1
  S2-  S249  1  0.86438780  -0.00384515  0.54678420  1
  S2-  S250  1  0.87666409  0.22735068  0.04996946  1
  S2-  S251  1  0.86436832  0.24546041  0.54849265  1
  S2-  S252  1  0.87396865  0.47529319  0.04638099  1
  S2-  S253  1  0.85919143  0.48650578  0.53360353  1
  S2-  S254  1  0.87655798  0.73220185  0.03472773  1
  S2-  S255  1  0.86272294  0.74179046  0.54836888  1
