# generated using pymatgen
data_La9Ce10Pr6Nd4Sm3(BiS2)32
_symmetry_space_group_name_H-M   'P 1'
_cell_length_a   16.24683879
_cell_length_b   16.24990734
_cell_length_c   26.98033233
_cell_angle_alpha   89.91052837
_cell_angle_beta   89.97787346
_cell_angle_gamma   90.02451761
_symmetry_Int_Tables_number   1
_chemical_formula_structural   La9Ce10Pr6Nd4Sm3(BiS2)32
_chemical_formula_sum   'La18 Ce20 Pr12 Nd8 Sm6 Bi64 S128'
_cell_volume   7123.05754885
_cell_formula_units_Z   2
loop_
 _symmetry_equiv_pos_site_id
 _symmetry_equiv_pos_as_xyz
  1  'x, y, z'
loop_
 _atom_type_symbol
 _atom_type_oxidation_number
  La3+  3.0
  Ce3+  3.0
  Pr3+  3.0
  Nd3+  3.0
  Sm3+  3.0
  Bi2+  2.0
  S2-  -2.0
loop_
 _atom_site_type_symbol
 _atom_site_label
 _atom_site_symmetry_multiplicity
 _atom_site_fract_x
 _atom_site_fract_y
 _atom_site_fract_z
 _atom_site_occupancy
  La3+  La0  1  0.48823185  0.87022122  0.08872705  1
  La3+  La1  1  0.75148023  0.86986095  0.07389795  1
  La3+  La2  1  0.23964430  0.87159946  0.58964456  1
  La3+  La3  1  0.62910007  0.75081961  0.93757285  1
  La3+  La4  1  0.36492470  -0.00024833  0.40136245  1
  La3+  La5  1  0.87650383  0.00533777  0.43488620  1
  La3+  La6  1  0.24964370  0.12684438  0.57306848  1
  La3+  La7  1  0.88041859  0.25388505  0.90706013  1
  La3+  La8  1  0.62399152  0.01337666  0.42037150  1
  La3+  La9  1  0.01002102  0.61902730  0.08126903  1
  La3+  La10  1  0.25455793  0.12344557  0.06006968  1
  La3+  La11  1  0.61570677  0.76217159  0.42571091  1
  La3+  La12  1  -0.00597512  0.13017327  0.57224292  1
  La3+  La13  1  -0.00851695  0.63174445  0.56618767  1
  La3+  La14  1  0.49498294  0.12008362  0.56009848  1
  La3+  La15  1  0.38137280  0.00519537  0.91796102  1
  La3+  La16  1  0.00731499  0.87531239  0.06287994  1
  La3+  La17  1  0.38547458  0.74075312  0.91771906  1
  Ce3+  Ce18  1  0.24676158  0.37908268  0.55875095  1
  Ce3+  Ce19  1  -0.00395969  0.37884885  0.55996171  1
  Ce3+  Ce20  1  0.75244287  0.12400419  0.05990254  1
  Ce3+  Ce21  1  0.00120863  0.12373816  0.05492099  1
  Ce3+  Ce22  1  0.74405486  0.63324652  0.54875155  1
  Ce3+  Ce23  1  0.24767025  0.63039662  0.56437666  1
  Ce3+  Ce24  1  0.62690596  0.24767172  0.94075643  1
  Ce3+  Ce25  1  -0.00149813  0.87766437  0.55596986  1
  Ce3+  Ce26  1  0.37786607  0.25238017  0.93398435  1
  Ce3+  Ce27  1  0.37260005  0.50490091  0.44682401  1
  Ce3+  Ce28  1  0.12840795  0.00390138  0.44671066  1
  Ce3+  Ce29  1  0.50451846  0.62309653  0.05975852  1
  Ce3+  Ce30  1  0.12441839  0.50610629  0.44743467  1
  Ce3+  Ce31  1  0.87632078  -0.00311050  0.94521709  1
  Ce3+  Ce32  1  0.75352204  0.62344995  0.05750551  1
  Ce3+  Ce33  1  0.36998740  0.24888472  0.43921207  1
  Ce3+  Ce34  1  0.88201482  0.49997000  0.93505655  1
  Ce3+  Ce35  1  0.12572069  0.25005883  0.44689449  1
  Ce3+  Ce36  1  0.50279834  0.37267429  0.05919897  1
  Ce3+  Ce37  1  0.88107845  0.74549448  0.94786263  1
  Pr3+  Pr38  1  0.62042084  0.50333555  0.44178309  1
  Pr3+  Pr39  1  0.87565718  0.75129024  0.42887537  1
  Pr3+  Pr40  1  0.74265316  0.37721979  0.56273991  1
  Pr3+  Pr41  1  0.50685084  0.87048881  0.59476180  1
  Pr3+  Pr42  1  0.26036209  0.62780990  0.06143347  1
  Pr3+  Pr43  1  0.49514925  0.37715935  0.55725862  1
  Pr3+  Pr44  1  0.75679537  0.37299824  0.05601628  1
  Pr3+  Pr45  1  0.12976522  0.24776227  0.93541650  1
  Pr3+  Pr46  1  0.50141711  0.13014854  0.06440253  1
  Pr3+  Pr47  1  0.87212390  0.50329042  0.44003916  1
  Pr3+  Pr48  1  0.74272995  0.12357517  0.56051640  1
  Pr3+  Pr49  1  0.00262490  0.37238512  0.06073436  1
  Nd3+  Nd50  1  0.25347026  0.37386394  0.05433766  1
  Nd3+  Nd51  1  0.87501689  0.25455745  0.44342120  1
  Nd3+  Nd52  1  0.12591413  -0.00113689  0.93375406  1
  Nd3+  Nd53  1  0.37332516  0.76125244  0.44893387  1
  Nd3+  Nd54  1  0.62810911  -0.00136681  0.94546361  1
  Nd3+  Nd55  1  0.49853593  0.63111152  0.56105485  1
  Nd3+  Nd56  1  0.12864563  0.75558964  0.43850276  1
  Nd3+  Nd57  1  0.25903733  0.87364200  0.04676696  1
  Sm3+  Sm58  1  0.12634269  0.50080959  0.94400401  1
  Sm3+  Sm59  1  0.74381301  0.87855708  0.54958807  1
  Sm3+  Sm60  1  0.12970216  0.74762931  0.93921542  1
  Sm3+  Sm61  1  0.62275674  0.25230468  0.43783503  1
  Sm3+  Sm62  1  0.37877795  0.49873500  0.93978372  1
  Sm3+  Sm63  1  0.63069580  0.49473689  0.94827249  1
  Bi2+  Bi64  1  0.01191075  0.09101667  0.30582355  1
  Bi2+  Bi65  1  0.00213514  0.10671986  0.80224305  1
  Bi2+  Bi66  1  0.00412524  0.38553133  0.28559396  1
  Bi2+  Bi67  1  -0.00305796  0.44926626  0.77706656  1
  Bi2+  Bi68  1  0.00214827  0.58687434  0.28073543  1
  Bi2+  Bi69  1  -0.07382915  0.61732405  0.81346560  1
  Bi2+  Bi70  1  0.00848274  0.89539010  0.29592378  1
  Bi2+  Bi71  1  -0.02152515  0.87045134  0.75845066  1
  Bi2+  Bi72  1  0.21078618  0.15601924  0.28489812  1
  Bi2+  Bi73  1  0.23818008  0.21311393  0.80153785  1
  Bi2+  Bi74  1  0.29229804  0.39321949  0.28556145  1
  Bi2+  Bi75  1  0.31205796  0.38678556  0.80942889  1
  Bi2+  Bi76  1  0.24774888  0.58906944  0.28809000  1
  Bi2+  Bi77  1  0.21425946  0.60820717  0.79214037  1
  Bi2+  Bi78  1  0.23419832  0.86426390  0.29083835  1
  Bi2+  Bi79  1  0.23414299  0.87369279  0.79599781  1
  Bi2+  Bi80  1  0.48978331  0.18553485  0.28838177  1
  Bi2+  Bi81  1  0.51935748  0.19035660  0.79076244  1
  Bi2+  Bi82  1  0.48606910  0.37909367  0.29039470  1
  Bi2+  Bi83  1  0.50489242  0.38459689  0.80192539  1
  Bi2+  Bi84  1  0.49698152  0.59841536  0.28531415  1
  Bi2+  Bi85  1  0.49474912  0.60019419  0.79049589  1
  Bi2+  Bi86  1  0.49475892  0.84311583  0.29009537  1
  Bi2+  Bi87  1  0.50424299  0.87276239  0.79455146  1
  Bi2+  Bi88  1  0.76115309  0.14446951  0.29052350  1
  Bi2+  Bi89  1  0.74259322  0.07805776  0.80558134  1
  Bi2+  Bi90  1  0.72012184  0.37028637  0.30311634  1
  Bi2+  Bi91  1  0.70676845  0.40451704  0.78245687  1
  Bi2+  Bi92  1  0.75349417  0.55558157  0.27056131  1
  Bi2+  Bi93  1  0.73852608  0.62446523  0.79341364  1
  Bi2+  Bi94  1  0.74653278  0.86980484  0.29156265  1
  Bi2+  Bi95  1  0.76193019  0.84314192  0.77717237  1
  Bi2+  Bi96  1  0.12979032  0.00415241  0.22645044  1
  Bi2+  Bi97  1  0.12670003  0.00854584  0.70821559  1
  Bi2+  Bi98  1  0.10098865  0.26895832  0.20501472  1
  Bi2+  Bi99  1  0.12164216  0.30116408  0.72552916  1
  Bi2+  Bi100  1  0.14327406  0.46071360  0.21449964  1
  Bi2+  Bi101  1  0.19485588  0.47632719  0.70487737  1
  Bi2+  Bi102  1  0.11050968  0.76991619  0.20656876  1
  Bi2+  Bi103  1  0.09816353  0.73612819  0.71268474  1
  Bi2+  Bi104  1  0.37510757  -0.00669040  0.20132701  1
  Bi2+  Bi105  1  0.38333555  0.02845318  0.71162697  1
  Bi2+  Bi106  1  0.36183194  0.24665088  0.20668168  1
  Bi2+  Bi107  1  0.39391748  0.28091451  0.71417909  1
  Bi2+  Bi108  1  0.37822112  0.49691279  0.19532224  1
  Bi2+  Bi109  1  0.38863228  0.48983552  0.70784638  1
  Bi2+  Bi110  1  0.34717302  0.68719877  0.20847757  1
  Bi2+  Bi111  1  0.36376452  0.68393008  0.71861173  1
  Bi2+  Bi112  1  0.63189538  0.01243735  0.21096999  1
  Bi2+  Bi113  1  0.64351055  0.01273028  0.70775763  1
  Bi2+  Bi114  1  0.62326115  0.29093109  0.21469392  1
  Bi2+  Bi115  1  0.64029364  0.26653348  0.71095990  1
  Bi2+  Bi116  1  0.57367270  0.48654619  0.19218732  1
  Bi2+  Bi117  1  0.63471137  0.53977665  0.70589084  1
  Bi2+  Bi118  1  0.61731192  0.67547296  0.20663285  1
  Bi2+  Bi119  1  0.64434982  0.74176981  0.70542954  1
  Bi2+  Bi120  1  0.89631741  0.05487303  0.21088656  1
  Bi2+  Bi121  1  0.84017556  -0.02376563  0.70942059  1
  Bi2+  Bi122  1  0.91269255  0.24729451  0.21831007  1
  Bi2+  Bi123  1  0.88376490  0.23581533  0.70467125  1
  Bi2+  Bi124  1  0.86583469  0.44214183  0.20567042  1
  Bi2+  Bi125  1  0.83619263  0.50043056  0.71608235  1
  Bi2+  Bi126  1  0.86257257  0.77043281  0.20936500  1
  Bi2+  Bi127  1  0.90303215  0.72095669  0.69937603  1
  S2-  S128  1  0.03246255  0.08022349  0.14806058  1
  S2-  S129  1  -0.00234793  0.11664731  0.67411353  1
  S2-  S130  1  0.01127746  0.46798683  0.14439327  1
  S2-  S131  1  -0.00263561  0.33062225  0.65435319  1
  S2-  S132  1  -0.01728762  0.66164759  0.18136343  1
  S2-  S133  1  0.02460297  0.60716422  0.66501166  1
  S2-  S134  1  -0.01844071  0.86132438  0.16284061  1
  S2-  S135  1  0.06939709  0.87556692  0.64549421  1
  S2-  S136  1  0.28373966  0.10719873  0.15969257  1
  S2-  S137  1  0.23834206  0.11221831  0.67473990  1
  S2-  S138  1  0.23700384  0.31899460  0.14875788  1
  S2-  S139  1  0.24966083  0.32334326  0.65155644  1
  S2-  S140  1  0.19245101  0.66352838  0.15314728  1
  S2-  S141  1  0.24527283  0.71670846  0.64992524  1
  S2-  S142  1  0.32641665  0.87779997  0.13921075  1
  S2-  S143  1  0.26064640  0.91464127  0.69193413  1
  S2-  S144  1  0.51140754  0.07485413  0.16141631  1
  S2-  S145  1  0.52557802  0.08912289  0.65931716  1
  S2-  S146  1  0.49074718  0.27893171  0.14053276  1
  S2-  S147  1  0.52775259  0.33475874  0.65393962  1
  S2-  S148  1  0.47753986  0.70926813  0.14255310  1
  S2-  S149  1  0.50336328  0.70786612  0.65073577  1
  S2-  S150  1  0.53897705  0.88614007  0.18977370  1
  S2-  S151  1  0.46456233  0.89420236  0.69464779  1
  S2-  S152  1  0.75246843  0.10758479  0.15799533  1
  S2-  S153  1  0.76875454  0.12322789  0.66092817  1
  S2-  S154  1  0.75625577  0.34002569  0.15550125  1
  S2-  S155  1  0.77773058  0.35222763  0.66095740  1
  S2-  S156  1  0.76145866  0.66421862  0.15308981  1
  S2-  S157  1  0.76569497  0.65751734  0.64413453  1
  S2-  S158  1  0.75409243  0.88756085  0.17625644  1
  S2-  S159  1  0.66649971  0.88324703  0.63841052  1
  S2-  S160  1  0.20580859  -0.01108014  0.35887299  1
  S2-  S161  1  0.14287856  0.01140651  0.83422340  1
  S2-  S162  1  0.10309299  0.22817468  0.34992517  1
  S2-  S163  1  0.07085182  0.24646846  0.84026198  1
  S2-  S164  1  0.11548688  0.54526034  0.35269079  1
  S2-  S165  1  0.12750075  0.49630577  0.84466907  1
  S2-  S166  1  0.11547510  0.77327525  0.33755239  1
  S2-  S167  1  0.13859577  0.74626241  0.84007954  1
  S2-  S168  1  0.42491130  -0.01271787  0.30325382  1
  S2-  S169  1  0.37248451  -0.02385699  0.81430480  1
  S2-  S170  1  0.35151190  0.16637231  0.35305178  1
  S2-  S171  1  0.38162387  0.15779579  0.85321153  1
  S2-  S172  1  0.38002752  0.56024112  0.35420941  1
  S2-  S173  1  0.36475307  0.59005077  0.85741438  1
  S2-  S174  1  0.35869767  0.80344368  0.35110132  1
  S2-  S175  1  0.36141554  0.78592980  0.81728518  1
  S2-  S176  1  0.61373211  -0.05878894  0.32637666  1
  S2-  S177  1  0.61945934  -0.01914043  0.84434722  1
  S2-  S178  1  0.61696886  0.15795953  0.35462335  1
  S2-  S179  1  0.66804589  0.22039551  0.84692215  1
  S2-  S180  1  0.63554892  0.51271539  0.34194690  1
  S2-  S181  1  0.62774174  0.51138255  0.85023153  1
  S2-  S182  1  0.64846288  0.74734700  0.32574453  1
  S2-  S183  1  0.55270603  0.73892209  0.84706062  1
  S2-  S184  1  0.80176826  0.01457473  0.34323859  1
  S2-  S185  1  0.88809145  0.00516547  0.84780456  1
  S2-  S186  1  0.83919000  0.26552312  0.34565813  1
  S2-  S187  1  0.87017259  0.20582124  0.80731021  1
  S2-  S188  1  0.88237680  0.56428836  0.34469672  1
  S2-  S189  1  0.88741923  0.40412535  0.85320055  1
  S2-  S190  1  0.88754806  0.78812355  0.32900652  1
  S2-  S191  1  0.84947932  0.76774820  0.85245835  1
  S2-  S192  1  -0.00219449  0.12930086  0.45987098  1
  S2-  S193  1  0.00046599  0.12513013  0.94839684  1
  S2-  S194  1  -0.00134202  0.37958143  0.45158150  1
  S2-  S195  1  0.00629003  0.37339806  0.95376454  1
  S2-  S196  1  -0.00155470  0.63061617  0.45611369  1
  S2-  S197  1  0.00746117  0.62459091  0.95814827  1
  S2-  S198  1  0.00087746  0.87821238  0.44906276  1
  S2-  S199  1  0.00551940  0.87132708  0.95178234  1
  S2-  S200  1  0.25015108  0.12554215  0.46309665  1
  S2-  S201  1  0.25057403  0.12161348  0.95050369  1
  S2-  S202  1  0.24804938  0.37886667  0.45016107  1
  S2-  S203  1  0.25125534  0.37801441  0.94803077  1
  S2-  S204  1  0.25021406  0.63192635  0.45720041  1
  S2-  S205  1  0.24854529  0.62295324  0.95444101  1
  S2-  S206  1  0.24779394  0.87837925  0.46569135  1
  S2-  S207  1  0.25327991  0.87357418  0.94051669  1
  S2-  S208  1  0.49187257  0.12700319  0.45246542  1
  S2-  S209  1  0.50611383  0.12465580  0.95445835  1
  S2-  S210  1  0.49768279  0.37513199  0.44855309  1
  S2-  S211  1  0.50297871  0.37636116  0.95033896  1
  S2-  S212  1  0.49805663  0.63174770  0.45369038  1
  S2-  S213  1  0.50793897  0.61590281  0.95470027  1
  S2-  S214  1  0.49300945  0.88876644  0.44166974  1
  S2-  S215  1  0.50139905  0.87688038  0.94463747  1
  S2-  S216  1  0.75080118  0.13305741  0.45414837  1
  S2-  S217  1  0.75627128  0.12461752  0.95223849  1
  S2-  S218  1  0.74568048  0.37684609  0.45411098  1
  S2-  S219  1  0.75378273  0.37174327  0.94892752  1
  S2-  S220  1  0.74503834  0.63140102  0.44329500  1
  S2-  S221  1  0.75268873  0.62065649  0.95090676  1
  S2-  S222  1  0.74986882  0.87882228  0.44467075  1
  S2-  S223  1  0.75343717  0.87339473  0.96083780  1
  S2-  S224  1  0.13205798  -0.00338415  0.04263142  1
  S2-  S225  1  0.12090933  0.00591251  0.55285853  1
  S2-  S226  1  0.12714557  0.24842530  0.04378601  1
  S2-  S227  1  0.12162604  0.25324369  0.55241162  1
  S2-  S228  1  0.13459218  0.50076858  0.04850593  1
  S2-  S229  1  0.12175218  0.50408988  0.55405830  1
  S2-  S230  1  0.13019108  0.75019798  0.04521258  1
  S2-  S231  1  0.11992147  0.75005537  0.54558368  1
  S2-  S232  1  0.38159403  0.00020697  0.03758876  1
  S2-  S233  1  0.37267328  -0.00577794  0.57072183  1
  S2-  S234  1  0.37494910  0.25025068  0.03946382  1
  S2-  S235  1  0.37265105  0.25292938  0.54784132  1
  S2-  S236  1  0.37806005  0.49737309  0.04603076  1
  S2-  S237  1  0.37299424  0.50534126  0.55456953  1
  S2-  S238  1  0.37992732  0.74888538  0.03243298  1
  S2-  S239  1  0.37732597  0.75826167  0.55397189  1
  S2-  S240  1  0.62375934  -0.00618944  0.05320732  1
  S2-  S241  1  0.62205375  0.00070368  0.53622854  1
  S2-  S242  1  0.63064994  0.24957897  0.04657213  1
  S2-  S243  1  0.62067486  0.24999861  0.54398816  1
  S2-  S244  1  0.62977048  0.49718059  0.05304502  1
  S2-  S245  1  0.62033365  0.50445175  0.54977387  1
  S2-  S246  1  0.62543599  0.75070967  0.04788408  1
  S2-  S247  1  0.61944592  0.75705756  0.53642846  1
  S2-  S248  1  0.87647331  -0.00336286  0.05252917  1
  S2-  S249  1  0.87093448  0.00032169  0.54717632  1
  S2-  S250  1  0.87941525  0.24698300  0.04833565  1
  S2-  S251  1  0.86838005  0.25257742  0.54968471  1
  S2-  S252  1  0.87879514  0.50147355  0.04485993  1
  S2-  S253  1  0.86837545  0.50273159  0.54916033  1
  S2-  S254  1  0.88224063  0.74628028  0.05348508  1
  S2-  S255  1  0.86968912  0.75820428  0.53942860  1
