# generated using pymatgen
data_La9Ce10Pr6Nd4Sm3(BiS2)32
_symmetry_space_group_name_H-M   'P 1'
_cell_length_a   16.11700810
_cell_length_b   16.10068612
_cell_length_c   27.43993212
_cell_angle_alpha   89.62889687
_cell_angle_beta   89.72324069
_cell_angle_gamma   90.07309427
_symmetry_Int_Tables_number   1
_chemical_formula_structural   La9Ce10Pr6Nd4Sm3(BiS2)32
_chemical_formula_sum   'La18 Ce20 Pr12 Nd8 Sm6 Bi64 S128'
_cell_volume   7120.28361999
_cell_formula_units_Z   2
loop_
 _symmetry_equiv_pos_site_id
 _symmetry_equiv_pos_as_xyz
  1  'x, y, z'
loop_
 _atom_type_symbol
 _atom_type_oxidation_number
  La3+  3.0
  Ce3+  3.0
  Pr3+  3.0
  Nd3+  3.0
  Sm3+  3.0
  Bi2+  2.0
  S2-  -2.0
loop_
 _atom_site_type_symbol
 _atom_site_label
 _atom_site_symmetry_multiplicity
 _atom_site_fract_x
 _atom_site_fract_y
 _atom_site_fract_z
 _atom_site_occupancy
  La3+  La0  1  0.62922456  0.48232682  0.91803030  1
  La3+  La1  1  0.88647691  0.26460181  0.39620018  1
  La3+  La2  1  0.36444439  0.24235522  0.91492355  1
  La3+  La3  1  0.12327084  0.01161400  0.43880456  1
  La3+  La4  1  0.86317429  0.74950551  0.90997492  1
  La3+  La5  1  -0.01010622  0.85484789  0.07385887  1
  La3+  La6  1  -0.00280347  0.12956126  0.56637673  1
  La3+  La7  1  0.61713239  -0.01745714  0.93928073  1
  La3+  La8  1  0.49692878  0.38157819  0.57649357  1
  La3+  La9  1  0.62796143  0.01259688  0.42548114  1
  La3+  La10  1  0.74354132  0.88637723  0.57841125  1
  La3+  La11  1  0.36649822  -0.01688546  0.93931643  1
  La3+  La12  1  0.74227032  0.37885736  0.57257199  1
  La3+  La13  1  -0.00588143  0.38257875  0.56589284  1
  La3+  La14  1  0.38531740  0.75059920  0.42063260  1
  La3+  La15  1  0.49300544  0.60100720  0.05817778  1
  La3+  La16  1  0.76574506  0.63238822  0.60970655  1
  La3+  La17  1  0.73344957  0.11402511  0.10419765  1
  Ce3+  Ce18  1  0.87030147  0.75771033  0.44342642  1
  Ce3+  Ce19  1  0.61166158  0.23644730  0.92805671  1
  Ce3+  Ce20  1  0.12559707  0.75645347  0.44197710  1
  Ce3+  Ce21  1  0.74202079  0.35506262  0.05249853  1
  Ce3+  Ce22  1  0.12335349  0.25792181  0.44575846  1
  Ce3+  Ce23  1  -0.00405253  0.63139064  0.55649993  1
  Ce3+  Ce24  1  0.86303201  -0.01572291  0.95158172  1
  Ce3+  Ce25  1  0.11350187  0.73435502  0.93864709  1
  Ce3+  Ce26  1  -0.01574473  0.35279580  0.06883348  1
  Ce3+  Ce27  1  0.62452429  0.50475822  0.45234069  1
  Ce3+  Ce28  1  0.36950873  0.73002929  0.93462305  1
  Ce3+  Ce29  1  0.86893708  0.00616677  0.43087955  1
  Ce3+  Ce30  1  0.87405252  0.48895414  0.93572760  1
  Ce3+  Ce31  1  0.10803210  0.48603254  0.94796661  1
  Ce3+  Ce32  1  0.23980280  0.35513340  0.05667225  1
  Ce3+  Ce33  1  0.87088642  0.50536016  0.44323237  1
  Ce3+  Ce34  1  0.24013372  0.10831250  0.05086350  1
  Ce3+  Ce35  1  0.61061460  0.73127453  0.92586164  1
  Ce3+  Ce36  1  0.24141245  0.85582855  0.05434675  1
  Ce3+  Ce37  1  -0.00825336  0.10689157  0.06609431  1
  Pr3+  Pr38  1  0.25324593  0.63093924  0.56036873  1
  Pr3+  Pr39  1  0.24210828  0.60300521  0.06232001  1
  Pr3+  Pr40  1  0.49488095  0.62974335  0.57316238  1
  Pr3+  Pr41  1  0.10935418  -0.02542631  0.93286849  1
  Pr3+  Pr42  1  0.36148473  0.48786410  0.92911345  1
  Pr3+  Pr43  1  0.49400522  0.35732273  0.05552315  1
  Pr3+  Pr44  1  0.37387087  0.25925190  0.43239108  1
  Pr3+  Pr45  1  0.12448527  0.50661109  0.44463676  1
  Pr3+  Pr46  1  0.25676614  0.12695741  0.56584119  1
  Pr3+  Pr47  1  0.87072497  0.23171684  0.93521535  1
  Pr3+  Pr48  1  -0.00557652  0.87831197  0.56004495  1
  Pr3+  Pr49  1  0.73548508  0.85247224  0.06710090  1
  Nd3+  Nd50  1  0.74861655  0.12819405  0.55230072  1
  Nd3+  Nd51  1  0.38029343  0.00060929  0.41998795  1
  Nd3+  Nd52  1  0.38706207  0.50424799  0.42670715  1
  Nd3+  Nd53  1  0.62460951  0.75496964  0.45190509  1
  Nd3+  Nd54  1  0.11318031  0.23247042  0.93164909  1
  Nd3+  Nd55  1  0.25312747  0.37962709  0.56116640  1
  Nd3+  Nd56  1  0.49829313  0.88176220  0.56073811  1
  Nd3+  Nd57  1  0.25159197  0.88043582  0.54960404  1
  Sm3+  Sm58  1  0.73968320  0.61264951  0.05031156  1
  Sm3+  Sm59  1  0.48870060  0.85092285  0.06341940  1
  Sm3+  Sm60  1  0.49849500  0.12848694  0.54795005  1
  Sm3+  Sm61  1  -0.01459875  0.60731133  0.06489501  1
  Sm3+  Sm62  1  0.49353519  0.10811137  0.05897174  1
  Sm3+  Sm63  1  0.62762123  0.25869927  0.43755916  1
  Bi2+  Bi64  1  0.03823560  0.13245161  0.29071142  1
  Bi2+  Bi65  1  0.00413749  0.13821930  0.77846020  1
  Bi2+  Bi66  1  0.01919027  0.41128555  0.29276206  1
  Bi2+  Bi67  1  0.03102291  0.37822964  0.78853660  1
  Bi2+  Bi68  1  -0.06793264  0.62741291  0.29267546  1
  Bi2+  Bi69  1  0.07003471  0.62551614  0.81208574  1
  Bi2+  Bi70  1  0.00246807  0.86726189  0.29102846  1
  Bi2+  Bi71  1  0.01120372  0.93045362  0.79570370  1
  Bi2+  Bi72  1  0.29254389  0.14042633  0.33096150  1
  Bi2+  Bi73  1  0.27179081  0.12397235  0.79424334  1
  Bi2+  Bi74  1  0.26375476  0.31837911  0.28342082  1
  Bi2+  Bi75  1  0.23563220  0.42595623  0.80271036  1
  Bi2+  Bi76  1  0.22383808  0.60997717  0.28654545  1
  Bi2+  Bi77  1  0.27038487  0.63403392  0.83138153  1
  Bi2+  Bi78  1  0.21849089  0.87373772  0.28853873  1
  Bi2+  Bi79  1  0.25929936  0.83535163  0.79364165  1
  Bi2+  Bi80  1  0.48277266  0.14514529  0.29133642  1
  Bi2+  Bi81  1  0.49556710  0.13104344  0.75127363  1
  Bi2+  Bi82  1  0.48643504  0.40526798  0.27588179  1
  Bi2+  Bi83  1  0.50393451  0.32931833  0.78470344  1
  Bi2+  Bi84  1  0.50307643  0.62141327  0.29589435  1
  Bi2+  Bi85  1  0.45226261  0.62019188  0.78909787  1
  Bi2+  Bi86  1  0.49761410  0.86860765  0.28906653  1
  Bi2+  Bi87  1  0.48525942  0.89574330  0.79622076  1
  Bi2+  Bi88  1  0.75036822  0.11396333  0.29567923  1
  Bi2+  Bi89  1  0.80735567  0.14726536  0.80239497  1
  Bi2+  Bi90  1  0.67593682  0.38455890  0.28889903  1
  Bi2+  Bi91  1  0.78711891  0.34431184  0.79328218  1
  Bi2+  Bi92  1  0.73483754  0.57746370  0.29711497  1
  Bi2+  Bi93  1  0.74570125  0.62380457  0.79076611  1
  Bi2+  Bi94  1  0.76465140  0.85884346  0.27620139  1
  Bi2+  Bi95  1  0.74438253  0.89877187  0.78717256  1
  Bi2+  Bi96  1  0.14782159  -0.02055144  0.20306179  1
  Bi2+  Bi97  1  0.21026343  -0.00771424  0.72139301  1
  Bi2+  Bi98  1  0.11757923  0.24085548  0.21287277  1
  Bi2+  Bi99  1  0.14929165  0.28092104  0.71315008  1
  Bi2+  Bi100  1  0.15441379  0.43959921  0.21551209  1
  Bi2+  Bi101  1  0.15515506  0.50868927  0.71100395  1
  Bi2+  Bi102  1  0.07747935  0.71064407  0.23575783  1
  Bi2+  Bi103  1  0.16825400  0.70568350  0.72684671  1
  Bi2+  Bi104  1  0.33978113  0.03984024  0.23869280  1
  Bi2+  Bi105  1  0.40196375  -0.01551059  0.68897184  1
  Bi2+  Bi106  1  0.33153880  0.22447207  0.18973902  1
  Bi2+  Bi107  1  0.34210185  0.26150760  0.72308080  1
  Bi2+  Bi108  1  0.38596106  0.53973928  0.18600447  1
  Bi2+  Bi109  1  0.36111981  0.50729776  0.70758412  1
  Bi2+  Bi110  1  0.35970748  0.77430482  0.19353534  1
  Bi2+  Bi111  1  0.37706791  0.77539592  0.70547823  1
  Bi2+  Bi112  1  0.59824549  -0.02454503  0.21107740  1
  Bi2+  Bi113  1  0.64161113  0.00698267  0.71094100  1
  Bi2+  Bi114  1  0.51764456  0.26150857  0.20036472  1
  Bi2+  Bi115  1  0.68260642  0.21867860  0.72055664  1
  Bi2+  Bi116  1  0.65249446  0.50185003  0.19900054  1
  Bi2+  Bi117  1  0.63114580  0.46499354  0.70869578  1
  Bi2+  Bi118  1  0.64960031  0.71923721  0.23096554  1
  Bi2+  Bi119  1  0.56790742  0.76933638  0.72467173  1
  Bi2+  Bi120  1  0.90924248  -0.00930850  0.22751664  1
  Bi2+  Bi121  1  0.88854939  -0.02823566  0.69872165  1
  Bi2+  Bi122  1  0.86622878  0.29208028  0.20019956  1
  Bi2+  Bi123  1  0.87689121  0.23722294  0.70565978  1
  Bi2+  Bi124  1  0.84638064  0.54869396  0.19914543  1
  Bi2+  Bi125  1  0.92137183  0.48695232  0.71647848  1
  Bi2+  Bi126  1  0.85214855  0.75829611  0.19324301  1
  Bi2+  Bi127  1  0.92141935  0.75460107  0.71609496  1
  S2-  S128  1  -0.00743764  0.22459355  0.13950291  1
  S2-  S129  1  -0.02535180  0.10548690  0.66509609  1
  S2-  S130  1  -0.05278177  0.43572927  0.15503060  1
  S2-  S131  1  -0.00146021  0.35536231  0.66459975  1
  S2-  S132  1  0.00087325  0.71607212  0.14302323  1
  S2-  S133  1  -0.05811582  0.62381773  0.65017060  1
  S2-  S134  1  0.00132986  0.98556424  0.14292908  1
  S2-  S135  1  0.01144790  0.87300357  0.66079215  1
  S2-  S136  1  0.20605466  0.12172401  0.14629845  1
  S2-  S137  1  0.20153266  0.14339584  0.66153049  1
  S2-  S138  1  0.28153460  0.41802930  0.14454709  1
  S2-  S139  1  0.35317929  0.36745952  0.64253394  1
  S2-  S140  1  0.25778477  0.63925434  0.16054734  1
  S2-  S141  1  0.35401486  0.64332388  0.64130106  1
  S2-  S142  1  0.21638424  0.85547526  0.15103419  1
  S2-  S143  1  0.26347116  0.88808126  0.64755888  1
  S2-  S144  1  0.57153639  0.11359855  0.14762205  1
  S2-  S145  1  0.46027501  0.12246009  0.64344316  1
  S2-  S146  1  0.51420851  0.47025304  0.13281751  1
  S2-  S147  1  0.61968430  0.33347897  0.64771564  1
  S2-  S148  1  0.46929065  0.68545540  0.14749620  1
  S2-  S149  1  0.50770454  0.51120508  0.65262367  1
  S2-  S150  1  0.46616714  0.89347496  0.15891650  1
  S2-  S151  1  0.59263940  0.88595142  0.64530955  1
  S2-  S152  1  0.81505085  0.12608969  0.19695691  1
  S2-  S153  1  0.75898614  0.03723423  0.63859719  1
  S2-  S154  1  0.73515796  0.29152254  0.14361204  1
  S2-  S155  1  0.78648346  0.46941402  0.65968932  1
  S2-  S156  1  0.71550717  0.71186293  0.13437214  1
  S2-  S157  1  0.66734522  0.63801027  0.69534979  1
  S2-  S158  1  0.72164905  0.94971931  0.15280390  1
  S2-  S159  1  0.79886385  0.79292450  0.66011771  1
  S2-  S160  1  0.10755202  -0.01035415  0.33926580  1
  S2-  S161  1  0.10374010  0.05448520  0.84181816  1
  S2-  S162  1  0.05406876  0.26737783  0.35520096  1
  S2-  S163  1  0.22348799  0.24509333  0.85056839  1
  S2-  S164  1  0.14514207  0.49824688  0.34501150  1
  S2-  S165  1  0.00866769  0.48882598  0.86692512  1
  S2-  S166  1  0.15430098  0.73766816  0.34688235  1
  S2-  S167  1  0.09392202  0.83915529  0.86020040  1
  S2-  S168  1  0.51202644  -0.00388549  0.34831970  1
  S2-  S169  1  0.35247741  -0.01956670  0.83942127  1
  S2-  S170  1  0.37651233  0.37608339  0.35567687  1
  S2-  S171  1  0.49485094  0.19428082  0.84991247  1
  S2-  S172  1  0.35811195  0.62145475  0.34981893  1
  S2-  S173  1  0.38487004  0.38933752  0.84744694  1
  S2-  S174  1  0.35485132  0.87196558  0.34669993  1
  S2-  S175  1  0.47820833  0.75563405  0.85790824  1
  S2-  S176  1  0.74451983  -0.02941880  0.35328061  1
  S2-  S177  1  0.62327040  -0.02251265  0.83805837  1
  S2-  S178  1  0.62839468  0.17305030  0.35155852  1
  S2-  S179  1  0.63458907  0.34529161  0.85013734  1
  S2-  S180  1  0.54389617  0.51037979  0.36629278  1
  S2-  S181  1  0.59622865  0.57448720  0.83278906  1
  S2-  S182  1  0.54892798  0.75300164  0.36083930  1
  S2-  S183  1  0.71420911  0.75983890  0.84717047  1
  S2-  S184  1  0.90064207  0.10535302  0.35026564  1
  S2-  S185  1  0.87084968  -0.08361009  0.86015960  1
  S2-  S186  1  0.80876556  0.27870894  0.30000258  1
  S2-  S187  1  0.99121104  0.24945659  0.85895215  1
  S2-  S188  1  0.89928944  0.43664217  0.35603371  1
  S2-  S189  1  0.78911134  0.49271265  0.84874811  1
  S2-  S190  1  0.87818411  0.77118184  0.34558953  1
  S2-  S191  1  0.90788369  0.68966787  0.81530251  1
  S2-  S192  1  -0.00219397  0.13563357  0.45854623  1
  S2-  S193  1  -0.00893517  0.10304767  0.95789560  1
  S2-  S194  1  -0.00206841  0.38015234  0.46044599  1
  S2-  S195  1  -0.01013562  0.35823344  0.96432730  1
  S2-  S196  1  -0.00193190  0.63174121  0.45059470  1
  S2-  S197  1  -0.01209508  0.61913649  0.96089766  1
  S2-  S198  1  -0.00103983  0.88194630  0.45219958  1
  S2-  S199  1  -0.01629795  0.85619109  0.96477818  1
  S2-  S200  1  0.25036175  0.13229934  0.45746101  1
  S2-  S201  1  0.24117453  0.10772169  0.94748394  1
  S2-  S202  1  0.24829101  0.38260096  0.45619750  1
  S2-  S203  1  0.23509142  0.36355397  0.95320940  1
  S2-  S204  1  0.24988316  0.63132457  0.45554081  1
  S2-  S205  1  0.23549879  0.60817611  0.95530940  1
  S2-  S206  1  0.24827940  0.88322250  0.44677969  1
  S2-  S207  1  0.24371904  0.85424992  0.94985946  1
  S2-  S208  1  0.49608723  0.13479560  0.44705586  1
  S2-  S209  1  0.48879999  0.10810765  0.95608067  1
  S2-  S210  1  0.50354405  0.37614232  0.46332632  1
  S2-  S211  1  0.49071907  0.36172772  0.95098909  1
  S2-  S212  1  0.50124159  0.62971789  0.46612394  1
  S2-  S213  1  0.49037715  0.60360152  0.94972942  1
  S2-  S214  1  0.50129757  0.88303852  0.45684169  1
  S2-  S215  1  0.48961313  0.85896160  0.95832883  1
  S2-  S216  1  0.75831206  0.14312552  0.44984681  1
  S2-  S217  1  0.73955405  0.11129001  0.93712370  1
  S2-  S218  1  0.75029731  0.37695256  0.45570920  1
  S2-  S219  1  0.75101205  0.35687184  0.95063528  1
  S2-  S220  1  0.74759920  0.63090999  0.44121800  1
  S2-  S221  1  0.74879133  0.61785822  0.94847426  1
  S2-  S222  1  0.74765454  0.87897717  0.46120340  1
  S2-  S223  1  0.73895134  0.85720352  0.95914301  1
  S2-  S224  1  0.11909167  -0.01943223  0.04005230  1
  S2-  S225  1  0.12490056  0.00437268  0.54865926  1
  S2-  S226  1  0.11693499  0.23308356  0.03925622  1
  S2-  S227  1  0.12683212  0.25581784  0.55244874  1
  S2-  S228  1  0.11083520  0.48318310  0.05433487  1
  S2-  S229  1  0.12587043  0.50583743  0.55330836  1
  S2-  S230  1  0.11802013  0.72887350  0.04390157  1
  S2-  S231  1  0.12482645  0.75523375  0.54996957  1
  S2-  S232  1  0.36836454  -0.01632051  0.04839691  1
  S2-  S233  1  0.37573980  0.00395187  0.53552047  1
  S2-  S234  1  0.36841923  0.23240315  0.04475081  1
  S2-  S235  1  0.37508357  0.25221264  0.54002976  1
  S2-  S236  1  0.36366975  0.47976176  0.03499236  1
  S2-  S237  1  0.37352646  0.50428249  0.53924619  1
  S2-  S238  1  0.36372847  0.73127391  0.04032013  1
  S2-  S239  1  0.37629298  0.75956787  0.53828677  1
  S2-  S240  1  0.60823459  -0.02026545  0.04607728  1
  S2-  S241  1  0.62106409  0.00845073  0.53635655  1
  S2-  S242  1  0.61595882  0.23064428  0.03771537  1
  S2-  S243  1  0.62221910  0.24831398  0.54063304  1
  S2-  S244  1  0.62485388  0.48238071  0.03073072  1
  S2-  S245  1  0.63268636  0.51474574  0.55479511  1
  S2-  S246  1  0.60935243  0.73133775  0.03493384  1
  S2-  S247  1  0.62746656  0.74928393  0.55562511  1
  S2-  S248  1  0.85530612  -0.01294147  0.05382358  1
  S2-  S249  1  0.87563483  0.00357539  0.53908468  1
  S2-  S250  1  0.85812158  0.22371561  0.04264210  1
  S2-  S251  1  0.86936689  0.25427717  0.56279338  1
  S2-  S252  1  0.86168853  0.48802762  0.04334960  1
  S2-  S253  1  0.86958151  0.50921425  0.54712807  1
  S2-  S254  1  0.86524308  0.73054427  0.04576129  1
  S2-  S255  1  0.86948452  0.75221932  0.54714242  1
