# generated using pymatgen
data_La9Ce10Pr6Nd4Sm3(BiS2)32
_symmetry_space_group_name_H-M   'P 1'
_cell_length_a   16.07789163
_cell_length_b   16.13227516
_cell_length_c   27.14517951
_cell_angle_alpha   89.70344698
_cell_angle_beta   90.07365059
_cell_angle_gamma   90.09431363
_symmetry_Int_Tables_number   1
_chemical_formula_structural   La9Ce10Pr6Nd4Sm3(BiS2)32
_chemical_formula_sum   'La18 Ce20 Pr12 Nd8 Sm6 Bi64 S128'
_cell_volume   7040.61629330
_cell_formula_units_Z   2
loop_
 _symmetry_equiv_pos_site_id
 _symmetry_equiv_pos_as_xyz
  1  'x, y, z'
loop_
 _atom_type_symbol
 _atom_type_oxidation_number
  La3+  3.0
  Ce3+  3.0
  Pr3+  3.0
  Nd3+  3.0
  Sm3+  3.0
  Bi2+  2.0
  S2-  -2.0
loop_
 _atom_site_type_symbol
 _atom_site_label
 _atom_site_symmetry_multiplicity
 _atom_site_fract_x
 _atom_site_fract_y
 _atom_site_fract_z
 _atom_site_occupancy
  La3+  La0  1  0.51265365  0.63002251  0.09326759  1
  La3+  La1  1  0.15027130  0.53202566  0.43378302  1
  La3+  La2  1  0.14935342  0.27482542  0.41146752  1
  La3+  La3  1  0.87839363  0.01289607  0.92631420  1
  La3+  La4  1  0.01838280  0.62344113  0.59102387  1
  La3+  La5  1  0.75792818  0.63765464  0.58092222  1
  La3+  La6  1  0.34522342  0.73745027  0.39390312  1
  La3+  La7  1  0.76858549  0.13341363  0.56271931  1
  La3+  La8  1  0.26872723  0.88563663  0.57523301  1
  La3+  La9  1  0.63373157  0.51387574  0.92630355  1
  La3+  La10  1  0.52081424  0.38331018  0.57744821  1
  La3+  La11  1  0.38053317  0.26774569  0.91719406  1
  La3+  La12  1  0.89245526  0.51539367  0.43772320  1
  La3+  La13  1  0.26928310  0.13365277  0.57384342  1
  La3+  La14  1  0.14617033  0.00459001  0.43212728  1
  La3+  La15  1  0.51973880  0.13114494  0.56030533  1
  La3+  La16  1  0.51054918  0.38297936  0.06796188  1
  La3+  La17  1  0.00180509  0.89692906  0.58669521  1
  Ce3+  Ce18  1  0.01039270  0.39257381  0.07341131  1
  Ce3+  Ce19  1  0.00970229  0.88222504  0.04803226  1
  Ce3+  Ce20  1  0.26320747  0.13439456  0.04840902  1
  Ce3+  Ce21  1  0.63462042  0.75934566  0.93251776  1
  Ce3+  Ce22  1  0.51561124  0.63615209  0.55673861  1
  Ce3+  Ce23  1  0.13297664  0.26239623  0.93871794  1
  Ce3+  Ce24  1  0.38544664  0.51105006  0.93997485  1
  Ce3+  Ce25  1  0.38534141  0.51128992  0.45689963  1
  Ce3+  Ce26  1  0.89240697  0.26913692  0.43393214  1
  Ce3+  Ce27  1  0.62741236  0.75895290  0.42986605  1
  Ce3+  Ce28  1  0.38471253  0.76193871  0.93566494  1
  Ce3+  Ce29  1  0.76155524  0.38730420  0.05842752  1
  Ce3+  Ce30  1  0.39347253  0.00654267  0.43059726  1
  Ce3+  Ce31  1  0.25992428  0.38192868  0.05782637  1
  Ce3+  Ce32  1  0.50917024  0.13696129  0.06671288  1
  Ce3+  Ce33  1  0.64424545  0.02028871  0.42348489  1
  Ce3+  Ce34  1  0.63842452  0.51156093  0.44038336  1
  Ce3+  Ce35  1  0.26712519  0.64037071  0.58602220  1
  Ce3+  Ce36  1  0.38947235  0.26496907  0.44311103  1
  Ce3+  Ce37  1  0.88574024  0.75585366  0.91491424  1
  Pr3+  Pr38  1  0.89348027  0.01937763  0.42110775  1
  Pr3+  Pr39  1  0.26232395  0.63667698  0.06294007  1
  Pr3+  Pr40  1  0.51842418  0.88117542  0.07375036  1
  Pr3+  Pr41  1  0.38977444  0.01114441  0.93385023  1
  Pr3+  Pr42  1  0.26246178  0.88340917  0.05510885  1
  Pr3+  Pr43  1  0.13422930  0.51571433  0.93691509  1
  Pr3+  Pr44  1  0.01775618  0.13078874  0.07397730  1
  Pr3+  Pr45  1  0.01771450  0.63870401  0.06526794  1
  Pr3+  Pr46  1  0.63365712  0.01048830  0.94068747  1
  Pr3+  Pr47  1  0.01943075  0.38328121  0.56211663  1
  Pr3+  Pr48  1  0.76383354  0.88344895  0.05945626  1
  Pr3+  Pr49  1  0.51728034  0.88542764  0.55340348  1
  Nd3+  Nd50  1  0.13311636  0.00954181  0.93122175  1
  Nd3+  Nd51  1  0.76612918  0.38439393  0.56854745  1
  Nd3+  Nd52  1  0.13586484  0.76644327  0.91739160  1
  Nd3+  Nd53  1  0.88790330  0.51140255  0.93796146  1
  Nd3+  Nd54  1  0.89217665  0.75626313  0.44535382  1
  Nd3+  Nd55  1  0.88740540  0.26098193  0.95117800  1
  Nd3+  Nd56  1  0.26594045  0.38145816  0.57249709  1
  Nd3+  Nd57  1  0.64082191  0.27039368  0.43370027  1
  Sm3+  Sm58  1  0.13602941  0.76362043  0.47009707  1
  Sm3+  Sm59  1  0.01945558  0.13623313  0.54630431  1
  Sm3+  Sm60  1  0.63475199  0.26172246  0.94759908  1
  Sm3+  Sm61  1  0.76776641  0.88600645  0.54940252  1
  Sm3+  Sm62  1  0.75735910  0.63510950  0.05506745  1
  Sm3+  Sm63  1  0.76357435  0.13250997  0.06497873  1
  Bi2+  Bi64  1  -0.02531260  0.10309068  0.28327179  1
  Bi2+  Bi65  1  -0.00778078  0.14187964  0.79154532  1
  Bi2+  Bi66  1  0.00712252  0.35072166  0.29522027  1
  Bi2+  Bi67  1  0.02472446  0.33625560  0.77938686  1
  Bi2+  Bi68  1  0.03656027  0.58075853  0.29554390  1
  Bi2+  Bi69  1  -0.00727329  0.60649753  0.78063621  1
  Bi2+  Bi70  1  -0.04249835  0.86110237  0.28831863  1
  Bi2+  Bi71  1  0.00810069  0.87433637  0.77832900  1
  Bi2+  Bi72  1  0.27918046  0.03442856  0.26299887  1
  Bi2+  Bi73  1  0.18473909  0.16771596  0.78210508  1
  Bi2+  Bi74  1  0.29940170  0.36904473  0.26171942  1
  Bi2+  Bi75  1  0.28559921  0.42099703  0.77496943  1
  Bi2+  Bi76  1  0.23607641  0.55431705  0.27805219  1
  Bi2+  Bi77  1  0.24466554  0.60393582  0.80118410  1
  Bi2+  Bi78  1  0.16893913  0.83069589  0.30206253  1
  Bi2+  Bi79  1  0.26203909  0.88334839  0.78588371  1
  Bi2+  Bi80  1  0.45517769  0.12225392  0.28911794  1
  Bi2+  Bi81  1  0.56430950  0.09895311  0.79495491  1
  Bi2+  Bi82  1  0.46492715  0.38332098  0.32191814  1
  Bi2+  Bi83  1  0.53102796  0.33861552  0.80530015  1
  Bi2+  Bi84  1  0.56289802  0.62949363  0.30061215  1
  Bi2+  Bi85  1  0.48768662  0.62079528  0.78675876  1
  Bi2+  Bi86  1  0.51928892  0.92182651  0.26203780  1
  Bi2+  Bi87  1  0.47199430  0.89092110  0.83360825  1
  Bi2+  Bi88  1  0.72677667  0.07963149  0.27154570  1
  Bi2+  Bi89  1  0.78834874  0.11368361  0.77952008  1
  Bi2+  Bi90  1  0.74270418  0.31697256  0.30264502  1
  Bi2+  Bi91  1  0.77171822  0.32354182  0.78795510  1
  Bi2+  Bi92  1  0.74789453  0.63374850  0.34308461  1
  Bi2+  Bi93  1  0.73406592  0.58663226  0.78511886  1
  Bi2+  Bi94  1  0.76341249  0.82117618  0.29946240  1
  Bi2+  Bi95  1  0.66130818  0.87477231  0.81115210  1
  Bi2+  Bi96  1  0.10047816  -0.03826392  0.20592292  1
  Bi2+  Bi97  1  0.12446365  0.04448227  0.70710767  1
  Bi2+  Bi98  1  0.12885642  0.22689143  0.20828139  1
  Bi2+  Bi99  1  0.01737277  0.23708232  0.67452463  1
  Bi2+  Bi100  1  0.11563224  0.46755091  0.19380277  1
  Bi2+  Bi101  1  0.14861731  0.38505559  0.69357407  1
  Bi2+  Bi102  1  0.06206088  0.73171549  0.21943516  1
  Bi2+  Bi103  1  0.15561356  0.72989491  0.71422433  1
  Bi2+  Bi104  1  0.40792618  -0.01398242  0.17504533  1
  Bi2+  Bi105  1  0.39625520  0.01502246  0.71387727  1
  Bi2+  Bi106  1  0.35855416  0.18570075  0.19787576  1
  Bi2+  Bi107  1  0.36995980  0.24272869  0.72113201  1
  Bi2+  Bi108  1  0.42233535  0.53487605  0.24113123  1
  Bi2+  Bi109  1  0.35773880  0.56477894  0.70665267  1
  Bi2+  Bi110  1  0.31746217  0.75448749  0.19165938  1
  Bi2+  Bi111  1  0.41874696  0.78437299  0.73613921  1
  Bi2+  Bi112  1  0.57818815  0.07868079  0.19586401  1
  Bi2+  Bi113  1  0.64001324  -0.03664665  0.70730631  1
  Bi2+  Bi114  1  0.56189960  0.34545000  0.22338525  1
  Bi2+  Bi115  1  0.62783461  0.22658852  0.71469764  1
  Bi2+  Bi116  1  0.67397813  0.51185674  0.21440743  1
  Bi2+  Bi117  1  0.54713684  0.49313523  0.70369971  1
  Bi2+  Bi118  1  0.62206040  0.76544766  0.21547837  1
  Bi2+  Bi119  1  0.61310559  0.76339688  0.71193029  1
  Bi2+  Bi120  1  0.81700377  -0.07215648  0.19243816  1
  Bi2+  Bi121  1  0.82342017  0.03415898  0.68224935  1
  Bi2+  Bi122  1  0.72983229  0.24328164  0.19653898  1
  Bi2+  Bi123  1  0.82181206  0.25028078  0.67542874  1
  Bi2+  Bi124  1  0.85272745  0.55481217  0.25633788  1
  Bi2+  Bi125  1  0.87806855  0.43179383  0.71533132  1
  Bi2+  Bi126  1  0.86008513  0.73345377  0.20736805  1
  Bi2+  Bi127  1  0.82561338  0.75165046  0.71878544  1
  S2-  S128  1  0.01611037  0.11262976  0.17681828  1
  S2-  S129  1  -0.00876781  0.06399808  0.63674045  1
  S2-  S130  1  0.01567534  0.32689561  0.16883528  1
  S2-  S131  1  -0.00430974  0.47114066  0.65123924  1
  S2-  S132  1  -0.00856774  0.52250374  0.14175755  1
  S2-  S133  1  -0.02526371  0.69904149  0.68698510  1
  S2-  S134  1  -0.02019246  0.90576799  0.14338684  1
  S2-  S135  1  0.07872391  0.88683842  0.68135308  1
  S2-  S136  1  0.21351820  0.13942568  0.14187175  1
  S2-  S137  1  0.26184389  0.00577790  0.65050912  1
  S2-  S138  1  0.26299603  0.38437060  0.15533101  1
  S2-  S139  1  0.24706695  0.26126214  0.64896431  1
  S2-  S140  1  0.14263350  0.68005856  0.13791144  1
  S2-  S141  1  0.16385264  0.59495670  0.66109731  1
  S2-  S142  1  0.23504102  0.89826471  0.15533737  1
  S2-  S143  1  0.28538653  0.77284010  0.65989191  1
  S2-  S144  1  0.48932404  0.25431757  0.14119585  1
  S2-  S145  1  0.42047240  0.13415973  0.64821060  1
  S2-  S146  1  0.52220504  0.47881526  0.15378936  1
  S2-  S147  1  0.43379695  0.36480087  0.66936299  1
  S2-  S148  1  0.35499980  0.61136928  0.15133039  1
  S2-  S149  1  0.59592322  0.63736360  0.64410273  1
  S2-  S150  1  0.48177243  0.77108285  0.15368044  1
  S2-  S151  1  0.49679913  0.92170779  0.65405948  1
  S2-  S152  1  0.80310464  0.09043062  0.15836683  1
  S2-  S153  1  0.64099020  0.12426145  0.63914210  1
  S2-  S154  1  0.76844327  0.39992111  0.15625081  1
  S2-  S155  1  0.65390508  0.39609284  0.64958600  1
  S2-  S156  1  0.67345741  0.64004995  0.14380516  1
  S2-  S157  1  0.79204719  0.60252613  0.68272710  1
  S2-  S158  1  0.66400269  0.88505686  0.14371160  1
  S2-  S159  1  0.84192972  0.88019949  0.64224359  1
  S2-  S160  1  0.02637922  -0.00620065  0.35151176  1
  S2-  S161  1  0.13272020  -0.08388473  0.84588047  1
  S2-  S162  1  0.10636544  0.20878384  0.31510682  1
  S2-  S163  1  0.22219897  0.27522816  0.85443479  1
  S2-  S164  1  0.11697892  0.42373616  0.35165440  1
  S2-  S165  1  0.09399176  0.52205789  0.83684473  1
  S2-  S166  1  0.16387573  0.71697812  0.37572678  1
  S2-  S167  1  0.01244752  0.73963073  0.84404301  1
  S2-  S168  1  0.27053960  -0.01853008  0.35625954  1
  S2-  S169  1  0.33489000  0.00623972  0.83507897  1
  S2-  S170  1  0.31330828  0.29292058  0.35539666  1
  S2-  S171  1  0.43556142  0.19920888  0.82591219  1
  S2-  S172  1  0.31157172  0.56215351  0.37202203  1
  S2-  S173  1  0.40302583  0.42091755  0.85433160  1
  S2-  S174  1  0.32157917  0.77098634  0.28765424  1
  S2-  S175  1  0.27683957  0.74774862  0.85445130  1
  S2-  S176  1  0.51634972  0.00288387  0.35182522  1
  S2-  S177  1  0.73457434  0.02007485  0.85823895  1
  S2-  S178  1  0.65798287  0.18906151  0.34338697  1
  S2-  S179  1  0.64489049  0.23072376  0.85069681  1
  S2-  S180  1  0.63444920  0.40445505  0.36097501  1
  S2-  S181  1  0.66120151  0.44760469  0.83124127  1
  S2-  S182  1  0.50916774  0.76077527  0.35415214  1
  S2-  S183  1  0.62311136  0.65105167  0.85341809  1
  S2-  S184  1  0.76307433  -0.01322539  0.34927587  1
  S2-  S185  1  0.93636727  -0.01672393  0.83039329  1
  S2-  S186  1  0.88993939  0.17089965  0.35151734  1
  S2-  S187  1  0.90214492  0.27457454  0.85132653  1
  S2-  S188  1  0.88008063  0.39334203  0.35793017  1
  S2-  S189  1  0.86671222  0.54923323  0.83911152  1
  S2-  S190  1  0.92700705  0.64556675  0.36725469  1
  S2-  S191  1  0.79911602  0.77466679  0.82849608  1
  S2-  S192  1  0.02797716  0.14550142  0.44531133  1
  S2-  S193  1  0.01079842  0.13429407  0.95326201  1
  S2-  S194  1  0.02281498  0.39162660  0.45698133  1
  S2-  S195  1  0.01095171  0.38795137  0.95622191  1
  S2-  S196  1  0.01979445  0.63467062  0.47487550  1
  S2-  S197  1  0.00884080  0.63767979  0.95432220  1
  S2-  S198  1  0.01320969  0.88092561  0.45758202  1
  S2-  S199  1  0.00310050  0.88494068  0.94514795  1
  S2-  S200  1  0.26721988  0.13871219  0.45202499  1
  S2-  S201  1  0.25990500  0.13263190  0.94411905  1
  S2-  S202  1  0.26316638  0.38912589  0.46430931  1
  S2-  S203  1  0.25665991  0.39005890  0.95296441  1
  S2-  S204  1  0.26860022  0.64524510  0.47898604  1
  S2-  S205  1  0.26114116  0.63442693  0.95470736  1
  S2-  S206  1  0.27241967  0.87116538  0.46074316  1
  S2-  S207  1  0.26221846  0.88982472  0.94956127  1
  S2-  S208  1  0.51476032  0.14265993  0.45072203  1
  S2-  S209  1  0.51192123  0.13833202  0.95495904  1
  S2-  S210  1  0.51158605  0.38958178  0.46512813  1
  S2-  S211  1  0.51426976  0.38429939  0.95651997  1
  S2-  S212  1  0.50864913  0.63220144  0.45262293  1
  S2-  S213  1  0.50390413  0.63633490  0.95002443  1
  S2-  S214  1  0.52271222  0.89205745  0.45095737  1
  S2-  S215  1  0.51271818  0.88417373  0.95989281  1
  S2-  S216  1  0.76526399  0.14292170  0.45417809  1
  S2-  S217  1  0.75982773  0.14085369  0.95942355  1
  S2-  S218  1  0.76484476  0.39129410  0.46293760  1
  S2-  S219  1  0.76146163  0.38515386  0.95083422  1
  S2-  S220  1  0.75860372  0.63746580  0.46275098  1
  S2-  S221  1  0.76394772  0.63633549  0.95069915  1
  S2-  S222  1  0.76542620  0.87627156  0.44783319  1
  S2-  S223  1  0.76164010  0.87994344  0.95344096  1
  S2-  S224  1  0.13466102  0.00911646  0.03901815  1
  S2-  S225  1  0.13842222  0.00817811  0.54297091  1
  S2-  S226  1  0.13161447  0.25958311  0.04496287  1
  S2-  S227  1  0.14098121  0.25704546  0.54451502  1
  S2-  S228  1  0.13883598  0.50820676  0.04387321  1
  S2-  S229  1  0.14703902  0.50724666  0.54983109  1
  S2-  S230  1  0.13647421  0.76557657  0.02855688  1
  S2-  S231  1  0.12947074  0.76581133  0.57098702  1
  S2-  S232  1  0.38935925  0.00997156  0.04301893  1
  S2-  S233  1  0.39095279  0.00927241  0.53875758  1
  S2-  S234  1  0.38183257  0.25949855  0.03471107  1
  S2-  S235  1  0.39306824  0.26226282  0.54760361  1
  S2-  S236  1  0.38667094  0.50774369  0.04457027  1
  S2-  S237  1  0.38980075  0.51046671  0.56304806  1
  S2-  S238  1  0.38785949  0.76065784  0.04286430  1
  S2-  S239  1  0.39799229  0.75912809  0.56154589  1
  S2-  S240  1  0.63687361  0.01430748  0.04736680  1
  S2-  S241  1  0.64620408  0.00607744  0.53574963  1
  S2-  S242  1  0.64168967  0.25726466  0.05202593  1
  S2-  S243  1  0.64322610  0.26203954  0.54207397  1
  S2-  S244  1  0.63695655  0.51067093  0.03979577  1
  S2-  S245  1  0.64084152  0.51142612  0.54509988  1
  S2-  S246  1  0.63401056  0.75591370  0.03980260  1
  S2-  S247  1  0.64302231  0.76296341  0.54216039  1
  S2-  S248  1  0.88718091  0.01400503  0.04017560  1
  S2-  S249  1  0.88973083  0.01084831  0.53121536  1
  S2-  S250  1  0.88855020  0.25615174  0.05721142  1
  S2-  S251  1  0.89293873  0.26149914  0.54284664  1
  S2-  S252  1  0.88229923  0.51304347  0.04268187  1
  S2-  S253  1  0.88357343  0.51241579  0.55079061  1
  S2-  S254  1  0.88436591  0.75562175  0.04818261  1
  S2-  S255  1  0.88888599  0.75547406  0.55138303  1
