# generated using pymatgen
data_La9Ce10Pr6Nd4Sm3(BiS2)32
_symmetry_space_group_name_H-M   'P 1'
_cell_length_a   16.18201164
_cell_length_b   16.23215401
_cell_length_c   27.17604092
_cell_angle_alpha   90.00013826
_cell_angle_beta   89.75922341
_cell_angle_gamma   90.11690521
_symmetry_Int_Tables_number   1
_chemical_formula_structural   La9Ce10Pr6Nd4Sm3(BiS2)32
_chemical_formula_sum   'La18 Ce20 Pr12 Nd8 Sm6 Bi64 S128'
_cell_volume   7138.22302504
_cell_formula_units_Z   2
loop_
 _symmetry_equiv_pos_site_id
 _symmetry_equiv_pos_as_xyz
  1  'x, y, z'
loop_
 _atom_type_symbol
 _atom_type_oxidation_number
  La3+  3.0
  Ce3+  3.0
  Pr3+  3.0
  Nd3+  3.0
  Sm3+  3.0
  Bi2+  2.0
  S2-  -2.0
loop_
 _atom_site_type_symbol
 _atom_site_label
 _atom_site_symmetry_multiplicity
 _atom_site_fract_x
 _atom_site_fract_y
 _atom_site_fract_z
 _atom_site_occupancy
  La3+  La0  1  0.64494392  -0.00869447  0.93181416  1
  La3+  La1  1  0.76765639  0.36023073  0.06992533  1
  La3+  La2  1  0.12474858  0.25757173  0.40450888  1
  La3+  La3  1  0.39227949  0.23997606  0.93373258  1
  La3+  La4  1  0.89253415  -0.01329964  0.92255877  1
  La3+  La5  1  0.22835847  0.64273367  0.57783750  1
  La3+  La6  1  0.49267535  0.39341095  0.57890766  1
  La3+  La7  1  0.61020568  0.26361087  0.43942104  1
  La3+  La8  1  0.35124915  0.76434641  0.42236569  1
  La3+  La9  1  0.73753250  0.38726185  0.56231759  1
  La3+  La10  1  0.72786448  0.13028831  0.59635021  1
  La3+  La11  1  -0.01883192  0.63468114  0.56520703  1
  La3+  La12  1  0.26837214  0.36723361  0.06768499  1
  La3+  La13  1  0.73338006  0.63661584  0.56373937  1
  La3+  La14  1  0.14186959  0.23891448  0.94264010  1
  La3+  La15  1  0.23048248  0.89459445  0.56599515  1
  La3+  La16  1  0.26652137  0.11033715  0.07504820  1
  La3+  La17  1  0.75411820  0.61621187  0.11612231  1
  Ce3+  Ce18  1  0.00985297  0.61574254  0.06582202  1
  Ce3+  Ce19  1  0.10934029  0.76210635  0.44261859  1
  Ce3+  Ce20  1  0.76767598  0.86705048  0.06475168  1
  Ce3+  Ce21  1  0.01455352  0.86570580  0.05893861  1
  Ce3+  Ce22  1  0.35686159  0.01050442  0.44066713  1
  Ce3+  Ce23  1  0.48304550  0.88085306  0.55760897  1
  Ce3+  Ce24  1  0.39708413  -0.00670640  0.93123612  1
  Ce3+  Ce25  1  0.89194556  0.49076592  0.94453891  1
  Ce3+  Ce26  1  0.85869751  0.25970794  0.43620364  1
  Ce3+  Ce27  1  0.51704840  0.86674497  0.06004766  1
  Ce3+  Ce28  1  0.23267813  0.13677701  0.56539472  1
  Ce3+  Ce29  1  0.51374447  0.11491307  0.06116994  1
  Ce3+  Ce30  1  0.86087861  0.76176760  0.43988066  1
  Ce3+  Ce31  1  0.35970765  0.26303889  0.45076010  1
  Ce3+  Ce32  1  0.51048912  0.61782825  0.06399434  1
  Ce3+  Ce33  1  0.89105770  0.24046161  0.94183842  1
  Ce3+  Ce34  1  0.48842704  0.13522021  0.55775182  1
  Ce3+  Ce35  1  0.76734810  0.11413422  0.07049940  1
  Ce3+  Ce36  1  0.64532644  0.49148706  0.94675862  1
  Ce3+  Ce37  1  0.11549873  0.51375044  0.43623024  1
  Pr3+  Pr38  1  -0.02160983  0.89502508  0.56007146  1
  Pr3+  Pr39  1  0.73031044  0.88838990  0.56313008  1
  Pr3+  Pr40  1  0.61012315  0.00654927  0.43108100  1
  Pr3+  Pr41  1  0.39052523  0.48446516  0.92946945  1
  Pr3+  Pr42  1  0.60173008  0.51781127  0.42730988  1
  Pr3+  Pr43  1  0.26603378  0.61712645  0.06474377  1
  Pr3+  Pr44  1  0.23205787  0.38481467  0.56646916  1
  Pr3+  Pr45  1  0.27407883  0.86418458  0.06195833  1
  Pr3+  Pr46  1  0.14778311  0.74051541  0.93916637  1
  Pr3+  Pr47  1  0.40113287  0.73215202  0.92472527  1
  Pr3+  Pr48  1  0.10828600  0.01355629  0.43127364  1
  Pr3+  Pr49  1  0.85580265  0.50772601  0.42561817  1
  Nd3+  Nd50  1  0.35509457  0.51158801  0.44151267  1
  Nd3+  Nd51  1  0.14173959  -0.00960598  0.93487064  1
  Nd3+  Nd52  1  0.60912630  0.76137465  0.43251636  1
  Nd3+  Nd53  1  0.01900294  0.11553923  0.06586073  1
  Nd3+  Nd54  1  0.51792897  0.36824811  0.05776788  1
  Nd3+  Nd55  1  -0.01520907  0.38169476  0.54406729  1
  Nd3+  Nd56  1  0.64454525  0.73834153  0.94744829  1
  Nd3+  Nd57  1  0.47629330  0.64359967  0.56268865  1
  Sm3+  Sm58  1  0.85843581  0.01473806  0.44254297  1
  Sm3+  Sm59  1  -0.01749585  0.13831581  0.55204571  1
  Sm3+  Sm60  1  0.89303153  0.73925130  0.94418037  1
  Sm3+  Sm61  1  0.14196289  0.49306137  0.94638244  1
  Sm3+  Sm62  1  0.64591205  0.23918945  0.94164154  1
  Sm3+  Sm63  1  0.01350575  0.36621878  0.06216089  1
  Bi2+  Bi64  1  0.00791974  0.04489610  0.28360166  1
  Bi2+  Bi65  1  0.04313507  0.14487284  0.73103243  1
  Bi2+  Bi66  1  0.05936870  0.47393537  0.27467673  1
  Bi2+  Bi67  1  -0.02130452  0.33525740  0.81727877  1
  Bi2+  Bi68  1  0.05878508  0.67508216  0.27127748  1
  Bi2+  Bi69  1  -0.00022056  0.59543671  0.73747242  1
  Bi2+  Bi70  1  0.06085842  0.86857998  0.30049999  1
  Bi2+  Bi71  1  0.03272953  0.85454122  0.80791513  1
  Bi2+  Bi72  1  0.28412935  0.06011022  0.29819492  1
  Bi2+  Bi73  1  0.21247545  0.10249765  0.80740165  1
  Bi2+  Bi74  1  0.22452651  0.37300757  0.29139016  1
  Bi2+  Bi75  1  0.24705734  0.36039114  0.79261686  1
  Bi2+  Bi76  1  0.27428503  0.63547302  0.29369092  1
  Bi2+  Bi77  1  0.24546038  0.62262001  0.80593968  1
  Bi2+  Bi78  1  0.25326895  0.86978017  0.27632749  1
  Bi2+  Bi79  1  0.27093430  0.92093694  0.79440093  1
  Bi2+  Bi80  1  0.46709081  0.13948042  0.28784797  1
  Bi2+  Bi81  1  0.49073057  0.11364210  0.79304397  1
  Bi2+  Bi82  1  0.43989113  0.35822452  0.29785361  1
  Bi2+  Bi83  1  0.49284907  0.46093654  0.79796609  1
  Bi2+  Bi84  1  0.51224092  0.59542399  0.28204315  1
  Bi2+  Bi85  1  0.56786918  0.68520742  0.75146278  1
  Bi2+  Bi86  1  0.52333979  0.94211847  0.28261251  1
  Bi2+  Bi87  1  0.48101954  0.85155593  0.79751593  1
  Bi2+  Bi88  1  0.65680975  0.08851269  0.30567780  1
  Bi2+  Bi89  1  0.75164180  0.14303664  0.79396397  1
  Bi2+  Bi90  1  0.71069646  0.35441179  0.28930353  1
  Bi2+  Bi91  1  0.80092220  0.40750455  0.79123890  1
  Bi2+  Bi92  1  0.77801450  0.63196966  0.31649286  1
  Bi2+  Bi93  1  0.73191581  0.59227507  0.79335303  1
  Bi2+  Bi94  1  0.77474549  0.91292419  0.29507307  1
  Bi2+  Bi95  1  0.71716935  0.87138821  0.78970767  1
  Bi2+  Bi96  1  0.10573096  0.00524021  0.19066584  1
  Bi2+  Bi97  1  0.13059358  -0.03233500  0.71553470  1
  Bi2+  Bi98  1  0.04632388  0.23876897  0.20743277  1
  Bi2+  Bi99  1  0.18409918  0.25213898  0.68202962  1
  Bi2+  Bi100  1  0.14124111  0.56743145  0.17937789  1
  Bi2+  Bi101  1  0.09225747  0.42186483  0.73006514  1
  Bi2+  Bi102  1  0.19839275  0.74731650  0.19316773  1
  Bi2+  Bi103  1  0.10098858  0.75269010  0.70978301  1
  Bi2+  Bi104  1  0.38248032  -0.00934626  0.20324196  1
  Bi2+  Bi105  1  0.40987076  -0.02396213  0.71185762  1
  Bi2+  Bi106  1  0.38298374  0.26283312  0.20541703  1
  Bi2+  Bi107  1  0.33895335  0.16290000  0.72389204  1
  Bi2+  Bi108  1  0.32145272  0.50303216  0.21117967  1
  Bi2+  Bi109  1  0.38861510  0.48068883  0.70828549  1
  Bi2+  Bi110  1  0.46048685  0.72962105  0.20233292  1
  Bi2+  Bi111  1  0.36363747  0.75766351  0.70635139  1
  Bi2+  Bi112  1  0.60571010  0.00344993  0.15878970  1
  Bi2+  Bi113  1  0.61067099  -0.03053274  0.71243722  1
  Bi2+  Bi114  1  0.61575452  0.19010709  0.20429678  1
  Bi2+  Bi115  1  0.59089316  0.26722370  0.70718936  1
  Bi2+  Bi116  1  0.59708862  0.47435272  0.20987150  1
  Bi2+  Bi117  1  0.65977018  0.55090070  0.68818627  1
  Bi2+  Bi118  1  0.64786352  0.83652781  0.21697128  1
  Bi2+  Bi119  1  0.69860829  0.78971901  0.68417100  1
  Bi2+  Bi120  1  0.78793964  -0.01540119  0.18771421  1
  Bi2+  Bi121  1  0.92948361  -0.03386517  0.71718068  1
  Bi2+  Bi122  1  0.79858125  0.18265566  0.24571623  1
  Bi2+  Bi123  1  0.90165912  0.27850848  0.71394450  1
  Bi2+  Bi124  1  0.87682566  0.48385784  0.21593277  1
  Bi2+  Bi125  1  0.85491324  0.48227087  0.68819604  1
  Bi2+  Bi126  1  0.92021169  0.76633860  0.21361397  1
  Bi2+  Bi127  1  0.84870758  0.73467794  0.75773255  1
  S2-  S128  1  -0.03999388  0.12250418  0.16061505  1
  S2-  S129  1  -0.03952765  0.08663143  0.64595987  1
  S2-  S130  1  -0.02710199  0.36353751  0.15896202  1
  S2-  S131  1  -0.01124798  0.38557450  0.64454021  1
  S2-  S132  1  -0.07470877  0.61280282  0.15272270  1
  S2-  S133  1  0.08807026  0.61966299  0.64707204  1
  S2-  S134  1  0.00348513  0.86777443  0.15779360  1
  S2-  S135  1  -0.02760429  0.84365380  0.65726721  1
  S2-  S136  1  0.16075155  0.15711538  0.15882689  1
  S2-  S137  1  0.22141597  0.02525266  0.63924003  1
  S2-  S138  1  0.25365435  0.35762991  0.16852648  1
  S2-  S139  1  0.23501681  0.41988029  0.66613844  1
  S2-  S140  1  0.38340652  0.61273638  0.13980641  1
  S2-  S141  1  0.31553964  0.61776795  0.66978087  1
  S2-  S142  1  0.24473852  0.97016064  0.14155130  1
  S2-  S143  1  0.23052038  0.78936276  0.64682269  1
  S2-  S144  1  0.40411969  0.12937015  0.14138299  1
  S2-  S145  1  0.56675520  0.13337551  0.64528164  1
  S2-  S146  1  0.50177501  0.37385264  0.15814088  1
  S2-  S147  1  0.45153049  0.32659929  0.67423906  1
  S2-  S148  1  0.58700901  0.62384178  0.15386629  1
  S2-  S149  1  0.50628525  0.53869267  0.64171006  1
  S2-  S150  1  0.41188696  0.84309494  0.13875483  1
  S2-  S151  1  0.47932796  0.77352160  0.63476198  1
  S2-  S152  1  0.75832656  0.22802922  0.14610843  1
  S2-  S153  1  0.75663651  0.20054125  0.69077615  1
  S2-  S154  1  0.74973517  0.44593604  0.15759291  1
  S2-  S155  1  0.64968325  0.38361439  0.65039903  1
  S2-  S156  1  0.75523724  0.60439591  0.22574728  1
  S2-  S157  1  0.85349591  0.62908529  0.63787557  1
  S2-  S158  1  0.77766342  0.78404767  0.15252636  1
  S2-  S159  1  0.74264317  0.97994426  0.64993071  1
  S2-  S160  1  0.13815701  0.10716304  0.34779077  1
  S2-  S161  1  0.02986952  -0.00371102  0.85587503  1
  S2-  S162  1  0.07069186  0.30090458  0.30900800  1
  S2-  S163  1  0.13986092  0.25330334  0.84172644  1
  S2-  S164  1  0.23462998  0.51023270  0.36368673  1
  S2-  S165  1  0.18634033  0.49089063  0.85000214  1
  S2-  S166  1  0.20295198  0.74744796  0.36101752  1
  S2-  S167  1  0.11409382  0.70206550  0.84168660  1
  S2-  S168  1  0.35401944  -0.07735912  0.35646888  1
  S2-  S169  1  0.36517680  0.11937048  0.86021156  1
  S2-  S170  1  0.29395746  0.27248188  0.35930385  1
  S2-  S171  1  0.38610314  0.35257282  0.85361874  1
  S2-  S172  1  0.46332889  0.48784321  0.36013477  1
  S2-  S173  1  0.40266650  0.58941702  0.84860479  1
  S2-  S174  1  0.41709608  0.71207571  0.32727951  1
  S2-  S175  1  0.31325138  0.77476691  0.83980590  1
  S2-  S176  1  0.61704285  -0.11909725  0.35759261  1
  S2-  S177  1  0.52138924  -0.01541613  0.85720229  1
  S2-  S178  1  0.57341763  0.29364146  0.34159313  1
  S2-  S179  1  0.62910702  0.20928204  0.84337027  1
  S2-  S180  1  0.71947204  0.47792594  0.35225531  1
  S2-  S181  1  0.63406813  0.46661594  0.84814762  1
  S2-  S182  1  0.61945732  0.65541167  0.35287911  1
  S2-  S183  1  0.59017670  0.74624648  0.85183282  1
  S2-  S184  1  0.87547673  0.02526366  0.34406305  1
  S2-  S185  1  0.76098382  -0.00139005  0.85173474  1
  S2-  S186  1  0.83095730  0.26802561  0.33890932  1
  S2-  S187  1  0.88021748  0.18786156  0.84755588  1
  S2-  S188  1  0.92285315  0.52322165  0.32865752  1
  S2-  S189  1  0.92541162  0.49272409  0.84748768  1
  S2-  S190  1  0.85422916  0.78133698  0.34166987  1
  S2-  S191  1  0.88755549  0.81022004  0.85383236  1
  S2-  S192  1  -0.01480430  0.14083381  0.44654008  1
  S2-  S193  1  0.01472053  0.11619087  0.95679247  1
  S2-  S194  1  -0.00826506  0.38141143  0.43804103  1
  S2-  S195  1  0.01886759  0.36830806  0.95627840  1
  S2-  S196  1  -0.01439771  0.63574293  0.44936253  1
  S2-  S197  1  0.01813088  0.61700940  0.95676020  1
  S2-  S198  1  -0.01706799  0.89104781  0.45057080  1
  S2-  S199  1  0.01831922  0.86100461  0.95460183  1
  S2-  S200  1  0.23640666  0.13603432  0.45923946  1
  S2-  S201  1  0.26117761  0.11334626  0.96311683  1
  S2-  S202  1  0.23089370  0.38110711  0.46035538  1
  S2-  S203  1  0.26163901  0.36804117  0.95874164  1
  S2-  S204  1  0.23013884  0.63781995  0.46554464  1
  S2-  S205  1  0.26701069  0.61304451  0.95654299  1
  S2-  S206  1  0.22773297  0.89210222  0.45736841  1
  S2-  S207  1  0.26735169  0.86979313  0.95223278  1
  S2-  S208  1  0.48428116  0.13452492  0.44841771  1
  S2-  S209  1  0.52098958  0.11997371  0.95677026  1
  S2-  S210  1  0.48229191  0.38439650  0.46510956  1
  S2-  S211  1  0.52367589  0.36339808  0.95268156  1
  S2-  S212  1  0.47732715  0.64138393  0.45585957  1
  S2-  S213  1  0.52110384  0.61180497  0.95631147  1
  S2-  S214  1  0.48185175  0.88495762  0.45372997  1
  S2-  S215  1  0.51701992  0.86151676  0.95566018  1
  S2-  S216  1  0.73420217  0.13419863  0.44307830  1
  S2-  S217  1  0.76736620  0.11809533  0.96029004  1
  S2-  S218  1  0.73732563  0.38239945  0.45532476  1
  S2-  S219  1  0.76799710  0.36412810  0.95588990  1
  S2-  S220  1  0.73951388  0.63781202  0.45480561  1
  S2-  S221  1  0.77099056  0.61761656  0.94374125  1
  S2-  S222  1  0.74079330  0.88888875  0.45593873  1
  S2-  S223  1  0.76804720  0.86183296  0.95745395  1
  S2-  S224  1  0.13651449  -0.01191661  0.04081612  1
  S2-  S225  1  0.10146713  0.01705937  0.53885659  1
  S2-  S226  1  0.13808372  0.24612878  0.05000491  1
  S2-  S227  1  0.10707958  0.25703271  0.54908620  1
  S2-  S228  1  0.13834115  0.49019232  0.05117831  1
  S2-  S229  1  0.10721033  0.50611912  0.54245709  1
  S2-  S230  1  0.14088014  0.74081860  0.04813649  1
  S2-  S231  1  0.09978751  0.76819458  0.54601767  1
  S2-  S232  1  0.39623424  -0.01038580  0.03958099  1
  S2-  S233  1  0.36583329  0.01305239  0.54647653  1
  S2-  S234  1  0.39136812  0.24634896  0.04249993  1
  S2-  S235  1  0.36120509  0.25933774  0.55731494  1
  S2-  S236  1  0.39080780  0.48806737  0.04071323  1
  S2-  S237  1  0.35504874  0.51100721  0.54993226  1
  S2-  S238  1  0.39074090  0.73838132  0.03315208  1
  S2-  S239  1  0.35199428  0.76747957  0.53722840  1
  S2-  S240  1  0.64360412  -0.00870309  0.04241397  1
  S2-  S241  1  0.60820759  0.00974977  0.54022470  1
  S2-  S242  1  0.63712561  0.23900384  0.04649283  1
  S2-  S243  1  0.61503045  0.25621362  0.54676391  1
  S2-  S244  1  0.64258736  0.49380082  0.05121645  1
  S2-  S245  1  0.61356552  0.51409094  0.53740494  1
  S2-  S246  1  0.64178814  0.74273822  0.05234864  1
  S2-  S247  1  0.61177767  0.76190652  0.53933381  1
  S2-  S248  1  0.89214028  -0.00886316  0.04561211  1
  S2-  S249  1  0.85319053  0.01907185  0.54499871  1
  S2-  S250  1  0.89648080  0.23902130  0.04742556  1
  S2-  S251  1  0.85563465  0.25566719  0.54787990  1
  S2-  S252  1  0.89094452  0.48848868  0.04957466  1
  S2-  S253  1  0.86179605  0.50649605  0.53505601  1
  S2-  S254  1  0.89033742  0.74075479  0.04705839  1
  S2-  S255  1  0.85753132  0.76743206  0.54484237  1
