# generated using pymatgen
data_La9Ce10Pr6Nd4Sm3(BiS2)32
_symmetry_space_group_name_H-M   'P 1'
_cell_length_a   16.21205283
_cell_length_b   16.23834577
_cell_length_c   27.09450571
_cell_angle_alpha   89.99950935
_cell_angle_beta   90.03047602
_cell_angle_gamma   89.91391304
_symmetry_Int_Tables_number   1
_chemical_formula_structural   La9Ce10Pr6Nd4Sm3(BiS2)32
_chemical_formula_sum   'La18 Ce20 Pr12 Nd8 Sm6 Bi64 S128'
_cell_volume   7132.80704776
_cell_formula_units_Z   2
loop_
 _symmetry_equiv_pos_site_id
 _symmetry_equiv_pos_as_xyz
  1  'x, y, z'
loop_
 _atom_type_symbol
 _atom_type_oxidation_number
  La3+  3.0
  Ce3+  3.0
  Pr3+  3.0
  Nd3+  3.0
  Sm3+  3.0
  Bi2+  2.0
  S2-  -2.0
loop_
 _atom_site_type_symbol
 _atom_site_label
 _atom_site_symmetry_multiplicity
 _atom_site_fract_x
 _atom_site_fract_y
 _atom_site_fract_z
 _atom_site_occupancy
  La3+  La0  1  0.63117854  0.00621931  0.42695473  1
  La3+  La1  1  0.36514282  0.24511412  0.91431732  1
  La3+  La2  1  0.11563794  0.74589320  0.94032413  1
  La3+  La3  1  0.87676808  0.49914907  0.42860351  1
  La3+  La4  1  0.74407852  0.13288165  0.57297090  1
  La3+  La5  1  0.88637458  0.00220227  0.89296485  1
  La3+  La6  1  0.86992604  0.74352297  0.93686995  1
  La3+  La7  1  0.37764031  0.74871031  0.93630669  1
  La3+  La8  1  0.37567344  0.49956528  0.41120464  1
  La3+  La9  1  -0.00577032  0.61473856  0.08094806  1
  La3+  La10  1  0.61977968  0.49975117  0.43739957  1
  La3+  La11  1  0.10737157  0.75541383  0.41786983  1
  La3+  La12  1  -0.00252956  0.62675024  0.55684116  1
  La3+  La13  1  0.73697671  0.87376178  0.58825684  1
  La3+  La14  1  0.37051568  0.24485816  0.42693580  1
  La3+  La15  1  0.86845225  0.24895947  0.43664023  1
  La3+  La16  1  0.75555849  0.87137033  0.08131821  1
  La3+  La17  1  0.48590877  0.37092507  0.57772186  1
  Ce3+  Ce18  1  0.49404031  0.36772717  0.05139243  1
  Ce3+  Ce19  1  0.50043074  0.87702113  0.55524872  1
  Ce3+  Ce20  1  0.37250743  0.00032115  0.43587419  1
  Ce3+  Ce21  1  0.63439710  -0.00563367  0.94541266  1
  Ce3+  Ce22  1  0.24895401  0.86894538  0.05359282  1
  Ce3+  Ce23  1  0.62080208  0.49120166  0.93878746  1
  Ce3+  Ce24  1  0.12432695  0.49310092  0.95011981  1
  Ce3+  Ce25  1  0.87726453  0.24362523  0.94199488  1
  Ce3+  Ce26  1  0.62261797  0.75437800  0.43807270  1
  Ce3+  Ce27  1  0.11840493  -0.00401023  0.94469756  1
  Ce3+  Ce28  1  0.62484754  0.24186608  0.94179994  1
  Ce3+  Ce29  1  0.74887739  0.61621939  0.05865389  1
  Ce3+  Ce30  1  0.24975600  0.62031477  0.06014630  1
  Ce3+  Ce31  1  0.74532784  0.37623272  0.56321489  1
  Ce3+  Ce32  1  0.24630200  0.12592983  0.55474997  1
  Ce3+  Ce33  1  0.74480089  0.62490632  0.55989823  1
  Ce3+  Ce34  1  0.37203316  0.74977248  0.43404341  1
  Ce3+  Ce35  1  -0.00320775  0.87135234  0.06743659  1
  Ce3+  Ce36  1  0.74968214  0.37042821  0.05241386  1
  Ce3+  Ce37  1  0.87828063  0.49595138  0.93793700  1
  Pr3+  Pr38  1  0.49976280  0.86910105  0.07040214  1
  Pr3+  Pr39  1  0.36695581  0.50350327  0.92902664  1
  Pr3+  Pr40  1  0.12720286  0.50579374  0.41984205  1
  Pr3+  Pr41  1  0.00285929  0.12177167  0.07143597  1
  Pr3+  Pr42  1  -0.00170888  0.37562858  0.56289202  1
  Pr3+  Pr43  1  0.12194219  0.24666638  0.94316158  1
  Pr3+  Pr44  1  0.37848394  -0.00511819  0.93566636  1
  Pr3+  Pr45  1  0.49575723  0.11616815  0.06829457  1
  Pr3+  Pr46  1  0.24706741  0.62662674  0.55258581  1
  Pr3+  Pr47  1  0.00011341  0.36658267  0.07218482  1
  Pr3+  Pr48  1  0.75036650  0.12158604  0.06220491  1
  Pr3+  Pr49  1  0.24124373  0.37609906  0.56120533  1
  Nd3+  Nd50  1  0.24736527  0.87443043  0.55388980  1
  Nd3+  Nd51  1  0.85632427  0.75649774  0.43849353  1
  Nd3+  Nd52  1  0.12018534  0.25129627  0.43551373  1
  Nd3+  Nd53  1  0.11755192  -0.00281244  0.43752993  1
  Nd3+  Nd54  1  0.26033706  0.36724465  0.07376141  1
  Nd3+  Nd55  1  0.62709034  0.74804208  0.94559895  1
  Nd3+  Nd56  1  0.49427152  0.62247564  0.55803705  1
  Nd3+  Nd57  1  -0.00445002  0.87491648  0.56559682  1
  Sm3+  Sm58  1  0.25175636  0.12062617  0.05617966  1
  Sm3+  Sm59  1  0.49287578  0.12533006  0.55973721  1
  Sm3+  Sm60  1  0.49883043  0.61951508  0.05605449  1
  Sm3+  Sm61  1  -0.00278608  0.12492689  0.55552323  1
  Sm3+  Sm62  1  0.86597105  -0.00010938  0.45195030  1
  Sm3+  Sm63  1  0.61775209  0.25227544  0.44633251  1
  Bi2+  Bi64  1  0.05120494  0.06476825  0.30189932  1
  Bi2+  Bi65  1  0.03637418  0.23226666  0.81001416  1
  Bi2+  Bi66  1  0.02050384  0.34204516  0.28187334  1
  Bi2+  Bi67  1  -0.05173469  0.40250956  0.81869114  1
  Bi2+  Bi68  1  -0.03663445  0.61133925  0.30058552  1
  Bi2+  Bi69  1  0.03922175  0.59719671  0.80433810  1
  Bi2+  Bi70  1  -0.01936104  0.88226322  0.28486160  1
  Bi2+  Bi71  1  0.01334618  0.86516697  0.79037551  1
  Bi2+  Bi72  1  0.24367949  0.07387632  0.29062975  1
  Bi2+  Bi73  1  0.27418734  0.08186616  0.76613604  1
  Bi2+  Bi74  1  0.25482939  0.35490550  0.27404506  1
  Bi2+  Bi75  1  0.25835225  0.38597134  0.79725002  1
  Bi2+  Bi76  1  0.26142622  0.61825208  0.28335084  1
  Bi2+  Bi77  1  0.28785440  0.63883535  0.75211591  1
  Bi2+  Bi78  1  0.28581630  0.87713434  0.30497016  1
  Bi2+  Bi79  1  0.26949035  0.88838855  0.78431528  1
  Bi2+  Bi80  1  0.50452057  0.10749738  0.28592216  1
  Bi2+  Bi81  1  0.49258399  0.05011355  0.79345799  1
  Bi2+  Bi82  1  0.49666379  0.39253447  0.26803482  1
  Bi2+  Bi83  1  0.52869861  0.37594635  0.79738869  1
  Bi2+  Bi84  1  0.54599829  0.64527939  0.30206402  1
  Bi2+  Bi85  1  0.49185252  0.61940123  0.79891728  1
  Bi2+  Bi86  1  0.48281862  0.83092119  0.29316501  1
  Bi2+  Bi87  1  0.44579742  0.87133697  0.83184861  1
  Bi2+  Bi88  1  0.77541585  0.13597158  0.30596860  1
  Bi2+  Bi89  1  0.73119976  0.14980708  0.79682708  1
  Bi2+  Bi90  1  0.75199909  0.41538272  0.30703742  1
  Bi2+  Bi91  1  0.76298991  0.35035471  0.78479419  1
  Bi2+  Bi92  1  0.69806137  0.64551436  0.23416497  1
  Bi2+  Bi93  1  0.79550763  0.60752558  0.77778010  1
  Bi2+  Bi94  1  0.71912366  0.88590467  0.28895454  1
  Bi2+  Bi95  1  0.75677127  0.87706120  0.78786147  1
  Bi2+  Bi96  1  0.05975530  -0.01368298  0.17974091  1
  Bi2+  Bi97  1  0.12577345  -0.01327630  0.72741815  1
  Bi2+  Bi98  1  0.13950308  0.15743239  0.20357932  1
  Bi2+  Bi99  1  0.11741426  0.25838322  0.70498638  1
  Bi2+  Bi100  1  0.12631383  0.52993447  0.20242446  1
  Bi2+  Bi101  1  0.09207801  0.44742566  0.73967181  1
  Bi2+  Bi102  1  0.14543171  0.82760272  0.22163126  1
  Bi2+  Bi103  1  0.13509367  0.71127035  0.69656691  1
  Bi2+  Bi104  1  0.37081649  -0.01393213  0.21922151  1
  Bi2+  Bi105  1  0.39880763  -0.00904070  0.69405397  1
  Bi2+  Bi106  1  0.41880257  0.22978925  0.20835704  1
  Bi2+  Bi107  1  0.37472980  0.25446078  0.70303129  1
  Bi2+  Bi108  1  0.37851314  0.50178670  0.19892064  1
  Bi2+  Bi109  1  0.41544903  0.51940992  0.69903709  1
  Bi2+  Bi110  1  0.34936936  0.76136703  0.20991388  1
  Bi2+  Bi111  1  0.38135095  0.79290646  0.69963387  1
  Bi2+  Bi112  1  0.62485198  0.03492038  0.19981535  1
  Bi2+  Bi113  1  0.59568025  -0.00361534  0.70761681  1
  Bi2+  Bi114  1  0.65277214  0.26727903  0.26047710  1
  Bi2+  Bi115  1  0.63999429  0.24289283  0.71541552  1
  Bi2+  Bi116  1  0.65518344  0.45286886  0.20487200  1
  Bi2+  Bi117  1  0.66705617  0.54158400  0.70490771  1
  Bi2+  Bi118  1  0.54352759  0.74537927  0.19163218  1
  Bi2+  Bi119  1  0.57562564  0.78114558  0.76701852  1
  Bi2+  Bi120  1  0.88976953  0.04605465  0.22786925  1
  Bi2+  Bi121  1  0.89610525  0.01756205  0.69024131  1
  Bi2+  Bi122  1  0.89431980  0.24651758  0.22266427  1
  Bi2+  Bi123  1  0.90447164  0.27309376  0.71373587  1
  Bi2+  Bi124  1  0.85826827  0.46957068  0.21409512  1
  Bi2+  Bi125  1  0.84746220  0.46234423  0.69947178  1
  Bi2+  Bi126  1  0.90120264  0.73604791  0.21551416  1
  Bi2+  Bi127  1  0.87492964  0.71547316  0.70122749  1
  S2-  S128  1  0.00563900  0.24220111  0.14774630  1
  S2-  S129  1  -0.01052214  0.15597787  0.65295532  1
  S2-  S130  1  -0.00761670  0.47818682  0.15186364  1
  S2-  S131  1  0.11386637  0.38764299  0.63819001  1
  S2-  S132  1  0.04584553  0.68556696  0.17146470  1
  S2-  S133  1  0.00805023  0.62756740  0.65814676  1
  S2-  S134  1  -0.10592368  0.85448944  0.14734015  1
  S2-  S135  1  0.02396092  0.90468894  0.66361827  1
  S2-  S136  1  0.28382640  0.15994571  0.15038230  1
  S2-  S137  1  0.24728072  0.17678498  0.64839067  1
  S2-  S138  1  0.20015688  0.39532991  0.17288893  1
  S2-  S139  1  0.34606681  0.38336584  0.64391842  1
  S2-  S140  1  0.26231728  0.62002283  0.15818862  1
  S2-  S141  1  0.23282557  0.59800895  0.65317042  1
  S2-  S142  1  0.26451078  0.88434566  0.15117541  1
  S2-  S143  1  0.23690582  0.83102655  0.65029109  1
  S2-  S144  1  0.54943244  0.18767192  0.15838328  1
  S2-  S145  1  0.50058114  0.21290018  0.64723515  1
  S2-  S146  1  0.40462888  0.36657764  0.13601280  1
  S2-  S147  1  0.55843694  0.43251156  0.66957995  1
  S2-  S148  1  0.49536068  0.58496291  0.15319359  1
  S2-  S149  1  0.47493382  0.65302245  0.65709279  1
  S2-  S150  1  0.48278361  0.98696367  0.14399106  1
  S2-  S151  1  0.58461739  0.87085161  0.64131680  1
  S2-  S152  1  0.76211132  0.09710058  0.16256042  1
  S2-  S153  1  0.73682570  0.04126500  0.65816971  1
  S2-  S154  1  0.77899898  0.35604425  0.14865404  1
  S2-  S155  1  0.74717558  0.27080596  0.64314571  1
  S2-  S156  1  0.80901404  0.62621703  0.15049049  1
  S2-  S157  1  0.72757461  0.68307414  0.65157595  1
  S2-  S158  1  0.68240418  0.88592866  0.17961269  1
  S2-  S159  1  0.81572229  0.86410730  0.68261657  1
  S2-  S160  1  0.10940773  -0.10105451  0.35481186  1
  S2-  S161  1  0.05848730  -0.00550200  0.85397946  1
  S2-  S162  1  0.14408446  0.27111311  0.33658305  1
  S2-  S163  1  0.20142486  0.25972188  0.85321702  1
  S2-  S164  1  0.00211563  0.46840489  0.35075969  1
  S2-  S165  1  0.16633441  0.50179397  0.85466202  1
  S2-  S166  1  0.12500110  0.64900258  0.33611544  1
  S2-  S167  1  0.10390064  0.73929927  0.83857959  1
  S2-  S168  1  0.38125576  0.10449421  0.35644346  1
  S2-  S169  1  0.36499950  0.09912653  0.85570505  1
  S2-  S170  1  0.37683302  0.32338621  0.33511725  1
  S2-  S171  1  0.39743470  0.28131482  0.80883468  1
  S2-  S172  1  0.24522219  0.47757595  0.34223496  1
  S2-  S173  1  0.40234525  0.46507041  0.83131985  1
  S2-  S174  1  0.37922161  0.65157623  0.35106917  1
  S2-  S175  1  0.35326845  0.65505841  0.85219899  1
  S2-  S176  1  0.58018305  -0.03995146  0.33051271  1
  S2-  S177  1  0.71052744  -0.00321962  0.85532423  1
  S2-  S178  1  0.62241735  0.18130339  0.35635994  1
  S2-  S179  1  0.60187772  0.23223184  0.84458301  1
  S2-  S180  1  0.52728895  0.49230034  0.35167213  1
  S2-  S181  1  0.61442498  0.50917962  0.84073474  1
  S2-  S182  1  0.72545380  0.77811669  0.35972596  1
  S2-  S183  1  0.67873843  0.75818244  0.84949044  1
  S2-  S184  1  0.78777916  -0.00623554  0.36331841  1
  S2-  S185  1  0.88933203  -0.00757436  0.78343624  1
  S2-  S186  1  0.90312246  0.24903130  0.33737025  1
  S2-  S187  1  0.88030974  0.16790538  0.85337138  1
  S2-  S188  1  0.80933845  0.56176130  0.34093239  1
  S2-  S189  1  0.89135060  0.61158781  0.86286864  1
  S2-  S190  1  0.94759322  0.75535593  0.35357778  1
  S2-  S191  1  0.88451409  0.83672418  0.85116589  1
  S2-  S192  1  -0.00613517  0.12123277  0.44964969  1
  S2-  S193  1  -0.00072004  0.12103340  0.96157302  1
  S2-  S194  1  -0.00266131  0.36997711  0.45580374  1
  S2-  S195  1  -0.00082834  0.37051735  0.95994346  1
  S2-  S196  1  -0.00813191  0.62875626  0.45043110  1
  S2-  S197  1  0.00250504  0.61589201  0.96647327  1
  S2-  S198  1  -0.01372298  0.87965577  0.45911158  1
  S2-  S199  1  -0.00530843  0.87433198  0.95948470  1
  S2-  S200  1  0.23905218  0.12093034  0.44861448  1
  S2-  S201  1  0.24373448  0.11713077  0.95262126  1
  S2-  S202  1  0.24494941  0.37167421  0.45176999  1
  S2-  S203  1  0.25238410  0.37221312  0.95930931  1
  S2-  S204  1  0.24491214  0.63232423  0.44695322  1
  S2-  S205  1  0.24437203  0.62534308  0.95603853  1
  S2-  S206  1  0.24740382  0.87587832  0.44860048  1
  S2-  S207  1  0.24708564  0.87147449  0.94601340  1
  S2-  S208  1  0.50035217  0.12323913  0.45671091  1
  S2-  S209  1  0.50482420  0.11650252  0.95627743  1
  S2-  S210  1  0.49517671  0.37076621  0.45397709  1
  S2-  S211  1  0.49427344  0.36767657  0.94550468  1
  S2-  S212  1  0.49930271  0.62961088  0.45277904  1
  S2-  S213  1  0.50222900  0.62175342  0.95118170  1
  S2-  S214  1  0.49758991  0.87760807  0.44792107  1
  S2-  S215  1  0.50492484  0.87177519  0.96206976  1
  S2-  S216  1  0.74710559  0.12963646  0.46345308  1
  S2-  S217  1  0.75302520  0.12171255  0.95609877  1
  S2-  S218  1  0.74445106  0.37397562  0.45321083  1
  S2-  S219  1  0.75089141  0.36959961  0.94488067  1
  S2-  S220  1  0.74382627  0.62380547  0.45527406  1
  S2-  S221  1  0.74341880  0.61504339  0.95382273  1
  S2-  S222  1  0.74222458  0.88156303  0.47090513  1
  S2-  S223  1  0.74887372  0.86850587  0.96671357  1
  S2-  S224  1  0.12728467  -0.00276456  0.05078810  1
  S2-  S225  1  0.12059632  -0.00011094  0.54615049  1
  S2-  S226  1  0.13330834  0.24684947  0.04955045  1
  S2-  S227  1  0.11816662  0.24542553  0.54145405  1
  S2-  S228  1  0.13062302  0.49128718  0.05487298  1
  S2-  S229  1  0.12104775  0.50376844  0.53480297  1
  S2-  S230  1  0.12380590  0.74655636  0.05015549  1
  S2-  S231  1  0.12021460  0.75410783  0.53961608  1
  S2-  S232  1  0.36990593  -0.00608463  0.04200901  1
  S2-  S233  1  0.37124049  0.00060800  0.54448952  1
  S2-  S234  1  0.37487447  0.23930352  0.03571983  1
  S2-  S235  1  0.36920545  0.24558705  0.53787077  1
  S2-  S236  1  0.37507099  0.49974764  0.03882310  1
  S2-  S237  1  0.37072339  0.50222431  0.53805266  1
  S2-  S238  1  0.37725178  0.74493406  0.04734626  1
  S2-  S239  1  0.37319000  0.75249184  0.54236828  1
  S2-  S240  1  0.62810529  -0.00600370  0.05196307  1
  S2-  S241  1  0.61695933  0.00731341  0.54443941  1
  S2-  S242  1  0.62374026  0.24677166  0.04679559  1
  S2-  S243  1  0.61506683  0.25410316  0.54739377  1
  S2-  S244  1  0.62056348  0.49315072  0.04722332  1
  S2-  S245  1  0.61982205  0.49900537  0.54768259  1
  S2-  S246  1  0.62496735  0.74275966  0.05412836  1
  S2-  S247  1  0.61868642  0.74590603  0.54324358  1
  S2-  S248  1  0.87769163  0.00093626  0.05882453  1
  S2-  S249  1  0.87335987  0.00188989  0.55597832  1
  S2-  S250  1  0.87437571  0.24537108  0.04750119  1
  S2-  S251  1  0.87691755  0.25121628  0.54499180  1
  S2-  S252  1  0.87265011  0.49226444  0.04447389  1
  S2-  S253  1  0.87131918  0.49831850  0.54539266  1
  S2-  S254  1  0.87366784  0.73955197  0.04572618  1
  S2-  S255  1  0.86960508  0.75334231  0.55012413  1
