# generated using pymatgen
data_La9Ce10Pr6Nd4Sm3(BiS2)32
_symmetry_space_group_name_H-M   'P 1'
_cell_length_a   16.21340765
_cell_length_b   16.20961796
_cell_length_c   27.25485784
_cell_angle_alpha   89.95134750
_cell_angle_beta   89.64456529
_cell_angle_gamma   90.02454244
_symmetry_Int_Tables_number   1
_chemical_formula_structural   La9Ce10Pr6Nd4Sm3(BiS2)32
_chemical_formula_sum   'La18 Ce20 Pr12 Nd8 Sm6 Bi64 S128'
_cell_volume   7162.79379247
_cell_formula_units_Z   2
loop_
 _symmetry_equiv_pos_site_id
 _symmetry_equiv_pos_as_xyz
  1  'x, y, z'
loop_
 _atom_type_symbol
 _atom_type_oxidation_number
  La3+  3.0
  Ce3+  3.0
  Pr3+  3.0
  Nd3+  3.0
  Sm3+  3.0
  Bi2+  2.0
  S2-  -2.0
loop_
 _atom_site_type_symbol
 _atom_site_label
 _atom_site_symmetry_multiplicity
 _atom_site_fract_x
 _atom_site_fract_y
 _atom_site_fract_z
 _atom_site_occupancy
  La3+  La0  1  0.24479476  0.38345979  0.09815832  1
  La3+  La1  1  0.13255966  0.75688590  0.93061304  1
  La3+  La2  1  0.50030035  0.12613618  0.56479855  1
  La3+  La3  1  0.00720427  0.36513737  0.58355910  1
  La3+  La4  1  0.25099111  0.88281992  0.05978979  1
  La3+  La5  1  0.62509722  0.26360118  0.93026245  1
  La3+  La6  1  0.88323159  0.74332488  0.39230153  1
  La3+  La7  1  0.75574834  0.87541946  0.07567296  1
  La3+  La8  1  0.38292831  0.24240512  0.41658032  1
  La3+  La9  1  0.75556270  0.62972639  0.06468784  1
  La3+  La10  1  0.88292802  0.25820946  0.89232193  1
  La3+  La11  1  0.63428387  0.24098922  0.42723183  1
  La3+  La12  1  0.24425905  0.87894826  0.59253085  1
  La3+  La13  1  0.39228416  0.75239642  0.90958135  1
  La3+  La14  1  0.13219104  0.25866850  0.93180657  1
  La3+  La15  1  0.88898321  0.00985087  0.40281436  1
  La3+  La16  1  0.74764620  0.11995744  0.57010620  1
  La3+  La17  1  0.50149612  0.13390352  0.06776082  1
  Ce3+  Ce18  1  0.75235519  0.37419302  0.55192231  1
  Ce3+  Ce19  1  0.25327935  0.13631631  0.05372786  1
  Ce3+  Ce20  1  0.88452136  0.50134723  0.44334363  1
  Ce3+  Ce21  1  0.63548050  0.75091530  0.43302450  1
  Ce3+  Ce22  1  0.63478059  0.00785524  0.94724725  1
  Ce3+  Ce23  1  0.87826785  0.00939811  0.94823597  1
  Ce3+  Ce24  1  0.88098960  0.24886555  0.44738857  1
  Ce3+  Ce25  1  0.12519910  -0.00562879  0.44102471  1
  Ce3+  Ce26  1  0.12714459  0.49901530  0.44594386  1
  Ce3+  Ce27  1  0.75420229  0.62207370  0.55577871  1
  Ce3+  Ce28  1  0.87812027  0.50266879  0.93484344  1
  Ce3+  Ce29  1  0.87614721  0.75931386  0.93450820  1
  Ce3+  Ce30  1  0.50329265  0.86850558  0.56234112  1
  Ce3+  Ce31  1  0.00401546  0.38118454  0.05278534  1
  Ce3+  Ce32  1  0.37703748  -0.00092363  0.44306970  1
  Ce3+  Ce33  1  0.50201422  0.62566770  0.55103104  1
  Ce3+  Ce34  1  0.75458789  0.13617787  0.06097159  1
  Ce3+  Ce35  1  0.38494056  0.00273743  0.93592523  1
  Ce3+  Ce36  1  0.50433762  0.36807563  0.55542212  1
  Ce3+  Ce37  1  0.25562712  0.62326271  0.56340954  1
  Pr3+  Pr38  1  0.38442453  0.25916026  0.94325648  1
  Pr3+  Pr39  1  0.00281948  0.12171492  0.56584624  1
  Pr3+  Pr40  1  0.25351406  0.62949180  0.06159443  1
  Pr3+  Pr41  1  0.00190256  0.86925617  0.55921363  1
  Pr3+  Pr42  1  0.75800282  0.87130579  0.54600041  1
  Pr3+  Pr43  1  0.50043018  0.63521930  0.06898490  1
  Pr3+  Pr44  1  0.38029994  0.49757295  0.43945410  1
  Pr3+  Pr45  1  0.25388123  0.12548106  0.56240519  1
  Pr3+  Pr46  1  0.00576067  0.62242061  0.56414979  1
  Pr3+  Pr47  1  0.51383830  0.38871974  0.10543566  1
  Pr3+  Pr48  1  0.37506448  0.75179299  0.43772772  1
  Pr3+  Pr49  1  0.63182639  -0.00510959  0.43438595  1
  Nd3+  Nd50  1  0.12910487  0.00866854  0.93936363  1
  Nd3+  Nd51  1  0.00498692  0.13633751  0.05704925  1
  Nd3+  Nd52  1  0.63377354  0.75773844  0.93813902  1
  Nd3+  Nd53  1  0.12600414  0.24745888  0.43941978  1
  Nd3+  Nd54  1  0.62677595  0.50765330  0.94585391  1
  Nd3+  Nd55  1  0.13341626  0.50660824  0.93649634  1
  Nd3+  Nd56  1  0.63195846  0.50171724  0.43724004  1
  Nd3+  Nd57  1  0.50241884  0.88545977  0.06449790  1
  Sm3+  Sm58  1  0.25622087  0.37147812  0.54812749  1
  Sm3+  Sm59  1  0.00400134  0.88081492  0.05380029  1
  Sm3+  Sm60  1  0.38075487  0.50592328  0.95520358  1
  Sm3+  Sm61  1  0.13215727  0.74799727  0.44027407  1
  Sm3+  Sm62  1  0.75204022  0.37806159  0.05704687  1
  Sm3+  Sm63  1  0.00608957  0.62990009  0.04687586  1
  Bi2+  Bi64  1  0.00073676  0.19833889  0.27922449  1
  Bi2+  Bi65  1  0.01274601  0.10093463  0.80579234  1
  Bi2+  Bi66  1  -0.05672434  0.38638196  0.30240592  1
  Bi2+  Bi67  1  0.01970424  0.40324408  0.78370628  1
  Bi2+  Bi68  1  0.00865590  0.64864130  0.28104787  1
  Bi2+  Bi69  1  -0.06185494  0.63774559  0.76578926  1
  Bi2+  Bi70  1  0.04482742  0.88574795  0.28254509  1
  Bi2+  Bi71  1  -0.03393392  0.81905635  0.80638986  1
  Bi2+  Bi72  1  0.24674699  0.06408679  0.28002873  1
  Bi2+  Bi73  1  0.27519170  0.14471303  0.79576415  1
  Bi2+  Bi74  1  0.20829308  0.39611848  0.30028129  1
  Bi2+  Bi75  1  0.28697179  0.34013845  0.79447700  1
  Bi2+  Bi76  1  0.24223946  0.62016823  0.28898681  1
  Bi2+  Bi77  1  0.27009182  0.54400506  0.80069481  1
  Bi2+  Bi78  1  0.24383152  0.87121539  0.29426500  1
  Bi2+  Bi79  1  0.23883959  0.85343140  0.79919253  1
  Bi2+  Bi80  1  0.50697822  0.12041381  0.29803532  1
  Bi2+  Bi81  1  0.47721433  0.11565477  0.79047126  1
  Bi2+  Bi82  1  0.46939254  0.40962399  0.29963465  1
  Bi2+  Bi83  1  0.49196799  0.31308276  0.76491825  1
  Bi2+  Bi84  1  0.49291136  0.71896911  0.28658689  1
  Bi2+  Bi85  1  0.55416745  0.58552873  0.81434727  1
  Bi2+  Bi86  1  0.42991608  0.88513200  0.33202252  1
  Bi2+  Bi87  1  0.48197419  0.91001656  0.76810179  1
  Bi2+  Bi88  1  0.76497397  0.13887286  0.28656461  1
  Bi2+  Bi89  1  0.73740907  0.09357651  0.79973199  1
  Bi2+  Bi90  1  0.74987245  0.35546804  0.29266666  1
  Bi2+  Bi91  1  0.72758415  0.38964098  0.79037637  1
  Bi2+  Bi92  1  0.74924042  0.58610694  0.29658331  1
  Bi2+  Bi93  1  0.75836672  0.61787245  0.80845702  1
  Bi2+  Bi94  1  0.62086161  0.87876034  0.31824078  1
  Bi2+  Bi95  1  0.71196453  0.82321655  0.77304024  1
  Bi2+  Bi96  1  0.12907160  -0.00794471  0.19833159  1
  Bi2+  Bi97  1  0.07512370  -0.04963729  0.74074312  1
  Bi2+  Bi98  1  0.12982483  0.23297655  0.19539678  1
  Bi2+  Bi99  1  0.15767398  0.21450669  0.71399131  1
  Bi2+  Bi100  1  0.03858315  0.48777291  0.21823376  1
  Bi2+  Bi101  1  0.17165276  0.43481244  0.71760160  1
  Bi2+  Bi102  1  0.14697222  0.66631625  0.19430503  1
  Bi2+  Bi103  1  0.13284087  0.71880731  0.70224168  1
  Bi2+  Bi104  1  0.37646659  -0.04040879  0.21660265  1
  Bi2+  Bi105  1  0.35602751  0.02379068  0.71275844  1
  Bi2+  Bi106  1  0.37295700  0.24190093  0.21882713  1
  Bi2+  Bi107  1  0.34841396  0.21071441  0.68079498  1
  Bi2+  Bi108  1  0.38711180  0.60542046  0.20963108  1
  Bi2+  Bi109  1  0.39440022  0.46741108  0.71847500  1
  Bi2+  Bi110  1  0.43912899  0.77562576  0.17425363  1
  Bi2+  Bi111  1  0.37345724  0.68785610  0.71742796  1
  Bi2+  Bi112  1  0.58587240  -0.00677722  0.22480115  1
  Bi2+  Bi113  1  0.63121087  -0.04375581  0.70394377  1
  Bi2+  Bi114  1  0.63927554  0.24700900  0.21313816  1
  Bi2+  Bi115  1  0.64473089  0.22586473  0.69291322  1
  Bi2+  Bi116  1  0.64681544  0.49795450  0.22122665  1
  Bi2+  Bi117  1  0.58790290  0.47476886  0.71485100  1
  Bi2+  Bi118  1  0.62226795  0.80011797  0.21017258  1
  Bi2+  Bi119  1  0.61928406  0.67965805  0.71634014  1
  Bi2+  Bi120  1  0.87974396  0.03645835  0.21576100  1
  Bi2+  Bi121  1  0.88155790  -0.03270070  0.74341378  1
  Bi2+  Bi122  1  0.87154386  0.29128963  0.20872900  1
  Bi2+  Bi123  1  0.87688376  0.26962860  0.69857726  1
  Bi2+  Bi124  1  0.84260258  0.49064052  0.20165181  1
  Bi2+  Bi125  1  0.81844936  0.50838573  0.71285209  1
  Bi2+  Bi126  1  0.89460046  0.78054393  0.18637552  1
  Bi2+  Bi127  1  0.86624217  0.78775690  0.70170185  1
  S2-  S128  1  0.01245997  0.11337178  0.15590229  1
  S2-  S129  1  0.02371745  0.21596907  0.65067956  1
  S2-  S130  1  0.07524338  0.37418833  0.14148794  1
  S2-  S131  1  -0.03179010  0.42084026  0.67779489  1
  S2-  S132  1  -0.00954236  0.64926869  0.14382011  1
  S2-  S133  1  0.01425545  0.63668873  0.66508045  1
  S2-  S134  1  0.01967503  0.88129863  0.15123328  1
  S2-  S135  1  0.08457074  0.85905240  0.64930599  1
  S2-  S136  1  0.26606136  0.15393595  0.15077641  1
  S2-  S137  1  0.23103310  0.03097468  0.64709074  1
  S2-  S138  1  0.24547939  0.35014301  0.20098293  1
  S2-  S139  1  0.23303621  0.33353012  0.64314716  1
  S2-  S140  1  0.25210443  0.54559959  0.15014012  1
  S2-  S141  1  0.24924295  0.60883789  0.66127751  1
  S2-  S142  1  0.24151886  0.88567957  0.16034632  1
  S2-  S143  1  0.28491231  0.81210603  0.68693424  1
  S2-  S144  1  0.50317179  0.22823316  0.15198664  1
  S2-  S145  1  0.60942753  0.09449696  0.64092699  1
  S2-  S146  1  0.43968328  0.38955646  0.20319284  1
  S2-  S147  1  0.49554029  0.26640372  0.63484011  1
  S2-  S148  1  0.53650141  0.55797222  0.15667185  1
  S2-  S149  1  0.49490959  0.65984389  0.64627938  1
  S2-  S150  1  0.48839731  1.00432112  0.14112280  1
  S2-  S151  1  0.49066390  0.89283032  0.65947691  1
  S2-  S152  1  0.74162197  0.13935230  0.15977293  1
  S2-  S153  1  0.80000012  0.14064262  0.66818148  1
  S2-  S154  1  0.67329646  0.37289081  0.14652878  1
  S2-  S155  1  0.73655857  0.35147419  0.64880210  1
  S2-  S156  1  0.74604848  0.72717276  0.14651259  1
  S2-  S157  1  0.74959097  0.62106636  0.65352144  1
  S2-  S158  1  0.79894693  0.92332510  0.17148594  1
  S2-  S159  1  0.73927908  0.86665940  0.64724294  1
  S2-  S160  1  0.04586480  0.00158681  0.35294047  1
  S2-  S161  1  0.14069494  -0.01258391  0.84052526  1
  S2-  S162  1  0.12425840  0.26292603  0.33972642  1
  S2-  S163  1  0.04995684  0.25819757  0.84399984  1
  S2-  S164  1  0.12231484  0.52192488  0.34944123  1
  S2-  S165  1  0.10298690  0.50758115  0.83802971  1
  S2-  S166  1  0.04776097  0.75186803  0.35430484  1
  S2-  S167  1  0.11769997  0.74619931  0.82984467  1
  S2-  S168  1  0.36604789  0.09152301  0.35697372  1
  S2-  S169  1  0.38057148  -0.08952210  0.85214386  1
  S2-  S170  1  0.33410361  0.30490897  0.32176002  1
  S2-  S171  1  0.48877769  0.24378007  0.86029806  1
  S2-  S172  1  0.35457973  0.51623796  0.34010836  1
  S2-  S173  1  0.40260496  0.53155345  0.85823037  1
  S2-  S174  1  0.25800654  0.73720183  0.36219554  1
  S2-  S175  1  0.31764184  0.71514643  0.81847967  1
  S2-  S176  1  0.64542997  0.10728874  0.35745632  1
  S2-  S177  1  0.62823482  0.00640967  0.84857796  1
  S2-  S178  1  0.52361450  0.26904325  0.34908781  1
  S2-  S179  1  0.72348617  0.23892552  0.84740409  1
  S2-  S180  1  0.60099619  0.50787147  0.33939110  1
  S2-  S181  1  0.62103475  0.42753911  0.85752114  1
  S2-  S182  1  0.72071184  0.73330277  0.34712564  1
  S2-  S183  1  0.53786104  0.73943554  0.85539240  1
  S2-  S184  1  0.82619570  -0.01394389  0.30692104  1
  S2-  S185  1  0.86727664  0.01082962  0.85059702  1
  S2-  S186  1  0.88419368  0.17579319  0.35965987  1
  S2-  S187  1  0.88643428  0.20284179  0.78815065  1
  S2-  S188  1  0.88915822  0.57628897  0.35396833  1
  S2-  S189  1  0.88222074  0.41761082  0.84755252  1
  S2-  S190  1  0.89705034  0.78338800  0.28429850  1
  S2-  S191  1  0.75859147  0.77311277  0.86398180  1
  S2-  S192  1  0.00395250  0.12338735  0.45950076  1
  S2-  S193  1  0.00240127  0.13484822  0.94995180  1
  S2-  S194  1  0.00469336  0.37322857  0.45882148  1
  S2-  S195  1  0.00525851  0.38267326  0.94928844  1
  S2-  S196  1  0.00621784  0.62614274  0.45795400  1
  S2-  S197  1  0.00280530  0.63068395  0.94174664  1
  S2-  S198  1  -0.00132766  0.87098606  0.45307631  1
  S2-  S199  1  0.00534144  0.88312714  0.94847251  1
  S2-  S200  1  0.24617090  0.12186107  0.45489314  1
  S2-  S201  1  0.25752589  0.13044780  0.94635832  1
  S2-  S202  1  0.25360253  0.37215340  0.44494528  1
  S2-  S203  1  0.25807902  0.38411633  0.94270531  1
  S2-  S204  1  0.25424259  0.61918974  0.45931831  1
  S2-  S205  1  0.25785852  0.63335867  0.95237924  1
  S2-  S206  1  0.25136040  0.87777713  0.45714407  1
  S2-  S207  1  0.25352155  0.88138484  0.95111297  1
  S2-  S208  1  0.50525008  0.11887517  0.45668727  1
  S2-  S209  1  0.50506534  0.12617032  0.95965072  1
  S2-  S210  1  0.50727531  0.37706319  0.45127143  1
  S2-  S211  1  0.50078113  0.38687856  0.96088741  1
  S2-  S212  1  0.50400589  0.62674121  0.44449630  1
  S2-  S213  1  0.50421683  0.63080911  0.96271719  1
  S2-  S214  1  0.50431558  0.87134961  0.45528415  1
  S2-  S215  1  0.50880684  0.88134045  0.95897830  1
  S2-  S216  1  0.76403234  0.11621985  0.46017818  1
  S2-  S217  1  0.75862334  0.13499173  0.95554308  1
  S2-  S218  1  0.75617554  0.37641742  0.44485887  1
  S2-  S219  1  0.75870472  0.38024894  0.95454499  1
  S2-  S220  1  0.75785919  0.62439748  0.45215811  1
  S2-  S221  1  0.75533517  0.62789917  0.95701450  1
  S2-  S222  1  0.76844796  0.87742592  0.44005431  1
  S2-  S223  1  0.75653054  0.88425206  0.96501290  1
  S2-  S224  1  0.12578686  0.00862616  0.04533243  1
  S2-  S225  1  0.12493788  -0.00216849  0.54569211  1
  S2-  S226  1  0.13225784  0.25956487  0.04022119  1
  S2-  S227  1  0.13042322  0.24841755  0.54406782  1
  S2-  S228  1  0.13034662  0.50606966  0.04194381  1
  S2-  S229  1  0.12983381  0.49248936  0.55395305  1
  S2-  S230  1  0.12698507  0.75509985  0.04077981  1
  S2-  S231  1  0.13385923  0.74724253  0.54671368  1
  S2-  S232  1  0.37323783  0.00755323  0.04192285  1
  S2-  S233  1  0.37776929  -0.00454061  0.55068550  1
  S2-  S234  1  0.36945104  0.26607081  0.05029273  1
  S2-  S235  1  0.37513571  0.24887852  0.53165357  1
  S2-  S236  1  0.38128254  0.50000690  0.05891386  1
  S2-  S237  1  0.37976270  0.49469297  0.54883702  1
  S2-  S238  1  0.37550188  0.75870360  0.04951709  1
  S2-  S239  1  0.37361389  0.75153752  0.54682136  1
  S2-  S240  1  0.63481842  0.00551588  0.05299944  1
  S2-  S241  1  0.62708977  -0.01017607  0.53975189  1
  S2-  S242  1  0.62982360  0.25803625  0.04341708  1
  S2-  S243  1  0.63153572  0.24962450  0.53568887  1
  S2-  S244  1  0.63082371  0.50498966  0.04978587  1
  S2-  S245  1  0.62559035  0.49862856  0.54504859  1
  S2-  S246  1  0.62437557  0.75806657  0.04766792  1
  S2-  S247  1  0.62992265  0.74663492  0.54103545  1
  S2-  S248  1  0.88316983  0.00779103  0.05359010  1
  S2-  S249  1  0.88066493  -0.00377053  0.56097204  1
  S2-  S250  1  0.87936150  0.25972159  0.05743147  1
  S2-  S251  1  0.87786575  0.24918854  0.55137196  1
  S2-  S252  1  0.88005480  0.50555373  0.04494898  1
  S2-  S253  1  0.88161038  0.49568211  0.55141446  1
  S2-  S254  1  0.88405997  0.75562204  0.04092412  1
  S2-  S255  1  0.87979295  0.74383520  0.55416351  1
