# generated using pymatgen
data_La9Ce10Pr6Nd4Sm3(BiS2)32
_symmetry_space_group_name_H-M   'P 1'
_cell_length_a   16.21976235
_cell_length_b   16.23315451
_cell_length_c   27.12660675
_cell_angle_alpha   90.12380203
_cell_angle_beta   89.95809684
_cell_angle_gamma   90.06516398
_symmetry_Int_Tables_number   1
_chemical_formula_structural   La9Ce10Pr6Nd4Sm3(BiS2)32
_chemical_formula_sum   'La18 Ce20 Pr12 Nd8 Sm6 Bi64 S128'
_cell_volume   7142.35562755
_cell_formula_units_Z   2
loop_
 _symmetry_equiv_pos_site_id
 _symmetry_equiv_pos_as_xyz
  1  'x, y, z'
loop_
 _atom_type_symbol
 _atom_type_oxidation_number
  La3+  3.0
  Ce3+  3.0
  Pr3+  3.0
  Nd3+  3.0
  Sm3+  3.0
  Bi2+  2.0
  S2-  -2.0
loop_
 _atom_site_type_symbol
 _atom_site_label
 _atom_site_symmetry_multiplicity
 _atom_site_fract_x
 _atom_site_fract_y
 _atom_site_fract_z
 _atom_site_occupancy
  La3+  La0  1  0.50125415  0.62347914  0.57468737  1
  La3+  La1  1  0.13433158  0.49017940  0.43404723  1
  La3+  La2  1  0.61289099  0.76074726  0.92167281  1
  La3+  La3  1  0.61741496  0.26615304  0.92887920  1
  La3+  La4  1  0.51106230  0.86521142  0.55778657  1
  La3+  La5  1  0.63919047  0.23781478  0.42857278  1
  La3+  La6  1  0.01281625  0.86734383  0.59278690  1
  La3+  La7  1  0.87477958  0.75568060  0.91627965  1
  La3+  La8  1  0.39170655  0.48217808  0.42686261  1
  La3+  La9  1  0.63680653  0.50024325  0.42642731  1
  La3+  La10  1  0.86785913  0.25721156  0.93984777  1
  La3+  La11  1  0.62734590  0.74930688  0.41006018  1
  La3+  La12  1  0.73747473  0.88908253  0.08293203  1
  La3+  La13  1  0.37556576  0.73736280  0.41497377  1
  La3+  La14  1  0.11848026  0.25867450  0.94263002  1
  La3+  La15  1  0.24350182  0.63599845  0.06517248  1
  La3+  La16  1  0.26909567  0.36379850  0.57630262  1
  La3+  La17  1  0.36395007  0.50193496  0.90978504  1
  Ce3+  Ce18  1  0.74005878  0.13135564  0.05594305  1
  Ce3+  Ce19  1  0.51152136  0.11854610  0.55313141  1
  Ce3+  Ce20  1  0.25656734  0.12005146  0.55538436  1
  Ce3+  Ce21  1  0.01096142  0.36782041  0.56047861  1
  Ce3+  Ce22  1  0.13789877  0.24575828  0.43203483  1
  Ce3+  Ce23  1  0.49438296  0.88219173  0.06214318  1
  Ce3+  Ce24  1  -0.00858573  0.63852665  0.06391308  1
  Ce3+  Ce25  1  0.75701826  0.62177373  0.55565704  1
  Ce3+  Ce26  1  0.73803383  0.38272210  0.05902086  1
  Ce3+  Ce27  1  0.36624023  0.00622251  0.94872282  1
  Ce3+  Ce28  1  0.38727698  0.23706151  0.43459885  1
  Ce3+  Ce29  1  0.26021378  0.61515481  0.55380946  1
  Ce3+  Ce30  1  0.13380867  -0.01021570  0.43834098  1
  Ce3+  Ce31  1  0.49384238  0.63495194  0.05680731  1
  Ce3+  Ce32  1  0.61879958  0.51470633  0.93745550  1
  Ce3+  Ce33  1  -0.00923341  0.38513339  0.06198012  1
  Ce3+  Ce34  1  0.48718253  0.38409517  0.05764201  1
  Ce3+  Ce35  1  0.36755510  0.76046656  0.93882991  1
  Ce3+  Ce36  1  0.51676493  0.36773473  0.55936105  1
  Ce3+  Ce37  1  0.75997723  0.11588154  0.56155740  1
  Pr3+  Pr38  1  0.36706220  0.25658687  0.93712879  1
  Pr3+  Pr39  1  0.88430516  0.24048192  0.44169577  1
  Pr3+  Pr40  1  0.88026194  0.49412096  0.44497148  1
  Pr3+  Pr41  1  0.23947853  0.13525469  0.06562124  1
  Pr3+  Pr42  1  0.86855544  0.51478802  0.94625169  1
  Pr3+  Pr43  1  0.74027522  0.63791066  0.06532837  1
  Pr3+  Pr44  1  0.88395820  0.74296782  0.43681531  1
  Pr3+  Pr45  1  0.24500607  0.88016490  0.07598632  1
  Pr3+  Pr46  1  0.62076547  0.00292462  0.93259763  1
  Pr3+  Pr47  1  -0.01122867  0.13151765  0.06898474  1
  Pr3+  Pr48  1  0.11980315  0.50900489  0.93718744  1
  Pr3+  Pr49  1  0.87671443  0.00663712  0.92962431  1
  Nd3+  Nd50  1  0.75697174  0.36895469  0.56554134  1
  Nd3+  Nd51  1  -0.00872046  0.88338450  0.06264906  1
  Nd3+  Nd52  1  0.25645055  0.86465631  0.56184021  1
  Nd3+  Nd53  1  0.49199967  0.13419108  0.05667046  1
  Nd3+  Nd54  1  0.00966295  0.12231271  0.56098368  1
  Nd3+  Nd55  1  0.76067760  0.86551716  0.56167226  1
  Nd3+  Nd56  1  0.12222982  0.76037537  0.93777345  1
  Nd3+  Nd57  1  0.88870741  -0.01153376  0.44303208  1
  Sm3+  Sm58  1  0.13217046  0.73558178  0.43553189  1
  Sm3+  Sm59  1  0.24234949  0.39325172  0.06902598  1
  Sm3+  Sm60  1  0.01026690  0.61822974  0.56625360  1
  Sm3+  Sm61  1  0.38270950  -0.01098336  0.44466682  1
  Sm3+  Sm62  1  0.64253435  -0.01178724  0.43127339  1
  Sm3+  Sm63  1  0.11725041  0.00540204  0.94792898  1
  Bi2+  Bi64  1  0.00240600  0.10607326  0.31192691  1
  Bi2+  Bi65  1  0.03818673  0.13853035  0.79400641  1
  Bi2+  Bi66  1  -0.01576535  0.30187578  0.30447124  1
  Bi2+  Bi67  1  0.00928863  0.41521598  0.78543262  1
  Bi2+  Bi68  1  0.00778780  0.64927781  0.26900285  1
  Bi2+  Bi69  1  0.02028012  0.62078387  0.79512740  1
  Bi2+  Bi70  1  -0.01541995  0.90548289  0.27111118  1
  Bi2+  Bi71  1  -0.05124683  0.89897361  0.79819694  1
  Bi2+  Bi72  1  0.19198527  0.15577363  0.30879192  1
  Bi2+  Bi73  1  0.26009899  0.11597183  0.79075530  1
  Bi2+  Bi74  1  0.24824490  0.35049678  0.28347292  1
  Bi2+  Bi75  1  0.22786501  0.38131853  0.78616510  1
  Bi2+  Bi76  1  0.21874270  0.63109471  0.28890517  1
  Bi2+  Bi77  1  0.23676312  0.64438232  0.78106668  1
  Bi2+  Bi78  1  0.24805354  0.88178150  0.27945555  1
  Bi2+  Bi79  1  0.23907536  0.82468956  0.82358623  1
  Bi2+  Bi80  1  0.37988717  0.10840462  0.31320076  1
  Bi2+  Bi81  1  0.46602123  0.11043394  0.78288862  1
  Bi2+  Bi82  1  0.51040093  0.32521168  0.29025831  1
  Bi2+  Bi83  1  0.50665943  0.36744086  0.79539830  1
  Bi2+  Bi84  1  0.49014242  0.60124352  0.29283231  1
  Bi2+  Bi85  1  0.52273657  0.65361523  0.78135115  1
  Bi2+  Bi86  1  0.49999966  0.96589976  0.27759449  1
  Bi2+  Bi87  1  0.42255682  0.87430249  0.77978892  1
  Bi2+  Bi88  1  0.72827682  0.12990293  0.29649591  1
  Bi2+  Bi89  1  0.75203037  0.22083563  0.80515157  1
  Bi2+  Bi90  1  0.76675813  0.36455422  0.28515321  1
  Bi2+  Bi91  1  0.80153922  0.41169244  0.79769407  1
  Bi2+  Bi92  1  0.77410442  0.61271381  0.28810552  1
  Bi2+  Bi93  1  0.76466850  0.62591134  0.78745727  1
  Bi2+  Bi94  1  0.76120306  0.88546847  0.28732192  1
  Bi2+  Bi95  1  0.71249353  0.90287084  0.77481590  1
  Bi2+  Bi96  1  0.20123283  -0.00013711  0.19313488  1
  Bi2+  Bi97  1  0.17652021  -0.04127761  0.74655093  1
  Bi2+  Bi98  1  0.11580502  0.25625164  0.21676101  1
  Bi2+  Bi99  1  0.13444759  0.21641672  0.70983213  1
  Bi2+  Bi100  1  0.13543366  0.48418927  0.22622680  1
  Bi2+  Bi101  1  0.09222406  0.52782468  0.70126768  1
  Bi2+  Bi102  1  0.11570026  0.82032616  0.19894669  1
  Bi2+  Bi103  1  0.12170004  0.75855157  0.71693654  1
  Bi2+  Bi104  1  0.38516993  -0.07951330  0.18714478  1
  Bi2+  Bi105  1  0.35198411  0.01176814  0.70415007  1
  Bi2+  Bi106  1  0.39719521  0.22096216  0.21937677  1
  Bi2+  Bi107  1  0.39506960  0.23370706  0.70139756  1
  Bi2+  Bi108  1  0.37168491  0.47550111  0.19576617  1
  Bi2+  Bi109  1  0.37982462  0.50001149  0.70397590  1
  Bi2+  Bi110  1  0.37374017  0.73764047  0.21991330  1
  Bi2+  Bi111  1  0.34135993  0.75528109  0.70643516  1
  Bi2+  Bi112  1  0.63104280  0.05375028  0.21222066  1
  Bi2+  Bi113  1  0.65417544  0.07663756  0.74646995  1
  Bi2+  Bi114  1  0.67258322  0.24309059  0.17990106  1
  Bi2+  Bi115  1  0.67780053  0.24593627  0.69586771  1
  Bi2+  Bi116  1  0.63109918  0.44126811  0.22236741  1
  Bi2+  Bi117  1  0.66053259  0.47958694  0.72206436  1
  Bi2+  Bi118  1  0.62027938  0.74366415  0.19871351  1
  Bi2+  Bi119  1  0.62049397  0.72844609  0.69569690  1
  Bi2+  Bi120  1  0.91603409  0.05746262  0.20871586  1
  Bi2+  Bi121  1  0.91781483  0.08976518  0.70950433  1
  Bi2+  Bi122  1  0.85896182  0.24104326  0.20946161  1
  Bi2+  Bi123  1  0.87303183  0.30255719  0.70048575  1
  Bi2+  Bi124  1  0.94490889  0.46816700  0.24103433  1
  Bi2+  Bi125  1  0.89032208  0.50541218  0.70663308  1
  Bi2+  Bi126  1  0.86873954  0.69714821  0.19498900  1
  Bi2+  Bi127  1  0.85081362  0.77391472  0.69225664  1
  S2-  S128  1  0.06322595  0.12580088  0.16043760  1
  S2-  S129  1  0.05906500  0.08760174  0.65511578  1
  S2-  S130  1  0.03252478  0.38918695  0.15699638  1
  S2-  S131  1  0.02386659  0.30842146  0.65181568  1
  S2-  S132  1  0.03041704  0.65763272  0.15861851  1
  S2-  S133  1  -0.00732533  0.71539762  0.64829894  1
  S2-  S134  1  -0.02498833  0.90905710  0.16182385  1
  S2-  S135  1  -0.07372495  0.91280447  0.68195910  1
  S2-  S136  1  0.30152293  0.12473388  0.15933293  1
  S2-  S137  1  0.25844687  0.21502917  0.63848977  1
  S2-  S138  1  0.32150594  0.34157383  0.15292517  1
  S2-  S139  1  0.22728549  0.43816996  0.67260578  1
  S2-  S140  1  0.23971051  0.52570575  0.14581836  1
  S2-  S141  1  0.34204071  0.61804990  0.64061160  1
  S2-  S142  1  0.25140938  0.74835056  0.14613010  1
  S2-  S143  1  0.16243410  0.87667241  0.64737820  1
  S2-  S144  1  0.52166856  0.15666578  0.15478604  1
  S2-  S145  1  0.51683500  0.15542713  0.64875952  1
  S2-  S146  1  0.51956265  0.41487135  0.15337150  1
  S2-  S147  1  0.41636608  0.37066222  0.64103485  1
  S2-  S148  1  0.48685376  0.65438787  0.15787145  1
  S2-  S149  1  0.53887466  0.56050566  0.67377103  1
  S2-  S150  1  0.58670262  0.87284458  0.14426675  1
  S2-  S151  1  0.48963292  0.77687807  0.64422732  1
  S2-  S152  1  0.75470850  0.03989457  0.13863266  1
  S2-  S153  1  0.76436799  0.09142788  0.65898540  1
  S2-  S154  1  0.76838151  0.38571542  0.15517004  1
  S2-  S155  1  0.63763184  0.37813525  0.63823270  1
  S2-  S156  1  0.72199425  0.61505257  0.16694476  1
  S2-  S157  1  0.75707564  0.63688133  0.65355718  1
  S2-  S158  1  0.77073274  0.82976915  0.18420894  1
  S2-  S159  1  0.70411899  0.86233835  0.65766791  1
  S2-  S160  1  0.09172387  -0.03787988  0.34264672  1
  S2-  S161  1  0.03260705  0.00376075  0.86204754  1
  S2-  S162  1  0.12896676  0.36616456  0.35904822  1
  S2-  S163  1  0.12501097  0.31806501  0.84747859  1
  S2-  S164  1  0.09046259  0.60851888  0.36011546  1
  S2-  S165  1  0.21652187  0.51350143  0.85211279  1
  S2-  S166  1  0.22943406  0.76518768  0.35266096  1
  S2-  S167  1  0.02325264  0.76852742  0.85409580  1
  S2-  S168  1  0.37110415  -0.05684992  0.34983558  1
  S2-  S169  1  0.39128417  -0.00279813  0.85273034  1
  S2-  S170  1  0.36897775  0.33794425  0.35576472  1
  S2-  S171  1  0.35925675  0.34295966  0.84972679  1
  S2-  S172  1  0.34375399  0.57572316  0.34293186  1
  S2-  S173  1  0.43758245  0.52599292  0.81371255  1
  S2-  S174  1  0.48087235  0.74374354  0.33403043  1
  S2-  S175  1  0.45947429  0.75418382  0.85553847  1
  S2-  S176  1  0.63168102  -0.10607953  0.34676854  1
  S2-  S177  1  0.61625624  -0.10200457  0.85148966  1
  S2-  S178  1  0.57762343  0.18939132  0.33391724  1
  S2-  S179  1  0.56149213  0.21782838  0.83723639  1
  S2-  S180  1  0.52728163  0.46143458  0.34953131  1
  S2-  S181  1  0.61648660  0.41137701  0.85805799  1
  S2-  S182  1  0.64198832  0.62089431  0.34144139  1
  S2-  S183  1  0.63809613  0.62564905  0.85624374  1
  S2-  S184  1  0.80610796  0.00112205  0.35460195  1
  S2-  S185  1  0.83023593  -0.00459212  0.82844973  1
  S2-  S186  1  0.77924417  0.24887592  0.36130797  1
  S2-  S187  1  0.91153331  0.21123301  0.84602483  1
  S2-  S188  1  0.79440903  0.48630388  0.35662532  1
  S2-  S189  1  0.88120362  0.60040455  0.85772985  1
  S2-  S190  1  0.81425042  0.75034416  0.34263622  1
  S2-  S191  1  0.81247536  0.78821421  0.81932992  1
  S2-  S192  1  0.01024085  0.11814392  0.45260215  1
  S2-  S193  1  -0.00229891  0.13316269  0.96153587  1
  S2-  S194  1  0.00242571  0.36839418  0.45578342  1
  S2-  S195  1  -0.00801014  0.38650790  0.95288296  1
  S2-  S196  1  0.00359676  0.61788585  0.46360013  1
  S2-  S197  1  -0.00054215  0.63655343  0.95864583  1
  S2-  S198  1  0.01100489  0.86272364  0.44775052  1
  S2-  S199  1  -0.00514211  0.88057786  0.95856912  1
  S2-  S200  1  0.25925141  0.11452982  0.44920002  1
  S2-  S201  1  0.24020238  0.13072331  0.95457232  1
  S2-  S202  1  0.25945297  0.36432183  0.46123720  1
  S2-  S203  1  0.24314146  0.38435180  0.96164817  1
  S2-  S204  1  0.25664533  0.61463522  0.45181856  1
  S2-  S205  1  0.24517898  0.63493688  0.95385078  1
  S2-  S206  1  0.25565570  0.86834552  0.45680021  1
  S2-  S207  1  0.24114699  0.88530208  0.96333901  1
  S2-  S208  1  0.51191672  0.10628356  0.44745962  1
  S2-  S209  1  0.49258910  0.13125369  0.94977268  1
  S2-  S210  1  0.51606818  0.35642103  0.45425285  1
  S2-  S211  1  0.48705364  0.38543714  0.95291596  1
  S2-  S212  1  0.50681572  0.62314194  0.44904447  1
  S2-  S213  1  0.48447041  0.62668800  0.95184091  1
  S2-  S214  1  0.50795222  0.87160488  0.45093900  1
  S2-  S215  1  0.49024804  0.88474060  0.95722187  1
  S2-  S216  1  0.76149013  0.11092018  0.45728353  1
  S2-  S217  1  0.74216503  0.13091058  0.94685679  1
  S2-  S218  1  0.75877544  0.36882159  0.46123994  1
  S2-  S219  1  0.74781283  0.38631743  0.95312276  1
  S2-  S220  1  0.75918507  0.62527229  0.45218688  1
  S2-  S221  1  0.74804720  0.64081591  0.95830228  1
  S2-  S222  1  0.76070639  0.86725135  0.45555922  1
  S2-  S223  1  0.75160616  0.88262906  0.94941987  1
  S2-  S224  1  0.11828538  0.00656744  0.05206914  1
  S2-  S225  1  0.13166272  -0.00663303  0.54392748  1
  S2-  S226  1  0.11823308  0.26221423  0.05175445  1
  S2-  S227  1  0.13198856  0.24324224  0.53954824  1
  S2-  S228  1  0.11321604  0.50950112  0.04509635  1
  S2-  S229  1  0.13133320  0.49361550  0.54815550  1
  S2-  S230  1  0.11631029  0.76235989  0.04556605  1
  S2-  S231  1  0.13269824  0.73987059  0.54412319  1
  S2-  S232  1  0.36762729  0.00883583  0.05300258  1
  S2-  S233  1  0.38147159  -0.00842101  0.55066636  1
  S2-  S234  1  0.36585823  0.25588184  0.04355836  1
  S2-  S235  1  0.38833666  0.23700782  0.53886300  1
  S2-  S236  1  0.36902689  0.50974857  0.04692505  1
  S2-  S237  1  0.38798430  0.49354348  0.53913973  1
  S2-  S238  1  0.37201972  0.76116203  0.04533972  1
  S2-  S239  1  0.37840802  0.74512409  0.53647603  1
  S2-  S240  1  0.61469323  0.01027135  0.04017114  1
  S2-  S241  1  0.63629198  -0.00843817  0.54328223  1
  S2-  S242  1  0.61595587  0.25879167  0.04010174  1
  S2-  S243  1  0.63969112  0.23773420  0.53976916  1
  S2-  S244  1  0.61817764  0.50959436  0.04735292  1
  S2-  S245  1  0.63413528  0.50083756  0.53986189  1
  S2-  S246  1  0.61786995  0.75919289  0.04012914  1
  S2-  S247  1  0.63497878  0.74319828  0.54292157  1
  S2-  S248  1  0.87032723  0.00756772  0.04062523  1
  S2-  S249  1  0.88916795  -0.01053515  0.55049448  1
  S2-  S250  1  0.86717789  0.25710857  0.04929448  1
  S2-  S251  1  0.88166568  0.24380161  0.54956647  1
  S2-  S252  1  0.86723782  0.51141898  0.05418568  1
  S2-  S253  1  0.88423433  0.49418565  0.55420528  1
  S2-  S254  1  0.86492242  0.76316680  0.05682071  1
  S2-  S255  1  0.88700536  0.74625999  0.54530140  1
