# generated using pymatgen
data_La9Ce10Pr6Nd4Sm3(BiS2)32
_symmetry_space_group_name_H-M   'P 1'
_cell_length_a   16.08151427
_cell_length_b   16.16002592
_cell_length_c   27.18154732
_cell_angle_alpha   90.01121377
_cell_angle_beta   89.58315305
_cell_angle_gamma   90.10514213
_symmetry_Int_Tables_number   1
_chemical_formula_structural   La9Ce10Pr6Nd4Sm3(BiS2)32
_chemical_formula_sum   'La18 Ce20 Pr12 Nd8 Sm6 Bi64 S128'
_cell_volume   7063.67870125
_cell_formula_units_Z   2
loop_
 _symmetry_equiv_pos_site_id
 _symmetry_equiv_pos_as_xyz
  1  'x, y, z'
loop_
 _atom_type_symbol
 _atom_type_oxidation_number
  La3+  3.0
  Ce3+  3.0
  Pr3+  3.0
  Nd3+  3.0
  Sm3+  3.0
  Bi2+  2.0
  S2-  -2.0
loop_
 _atom_site_type_symbol
 _atom_site_label
 _atom_site_symmetry_multiplicity
 _atom_site_fract_x
 _atom_site_fract_y
 _atom_site_fract_z
 _atom_site_occupancy
  La3+  La0  1  0.23286792  0.37937487  0.56409399  1
  La3+  La1  1  0.87457513  0.25742137  0.90945775  1
  La3+  La2  1  -0.01609163  0.88930056  0.57663057  1
  La3+  La3  1  -0.02381057  0.14497316  0.58028215  1
  La3+  La4  1  0.75257012  0.13409335  0.07426584  1
  La3+  La5  1  0.23231284  0.88881159  0.57171238  1
  La3+  La6  1  0.36568215  0.00821571  0.42967690  1
  La3+  La7  1  -0.02916516  0.39291476  0.57394851  1
  La3+  La8  1  0.87715456  0.75921758  0.92907137  1
  La3+  La9  1  0.35128097  0.51307896  0.42578538  1
  La3+  La10  1  -0.00157729  0.63118533  0.06214274  1
  La3+  La11  1  0.50046348  0.63107515  0.06849083  1
  La3+  La12  1  0.47599642  0.63432301  0.57173058  1
  La3+  La13  1  0.37825414  0.75721396  0.91067272  1
  La3+  La14  1  0.61893042  0.00781875  0.40431204  1
  La3+  La15  1  0.48348325  0.13841594  0.55769968  1
  La3+  La16  1  0.24716138  0.12562971  0.09931404  1
  La3+  La17  1  0.09986295  0.25717944  0.42773778  1
  Ce3+  Ce18  1  0.87717975  0.50322879  0.93759864  1
  Ce3+  Ce19  1  0.22770841  0.62404554  0.56835010  1
  Ce3+  Ce20  1  0.72455444  0.13990124  0.56547475  1
  Ce3+  Ce21  1  0.62512057  0.25570313  0.93568413  1
  Ce3+  Ce22  1  0.38034379  0.51105711  0.94407344  1
  Ce3+  Ce23  1  0.23148468  0.13699843  0.54993263  1
  Ce3+  Ce24  1  0.10831069  0.76380867  0.44635002  1
  Ce3+  Ce25  1  0.47758294  0.39007314  0.55601369  1
  Ce3+  Ce26  1  0.72914323  0.63773046  0.54864595  1
  Ce3+  Ce27  1  0.62974880  0.75843772  0.93495959  1
  Ce3+  Ce28  1  0.75524167  0.64043483  0.06769977  1
  Ce3+  Ce29  1  -0.02192332  0.63212509  0.55668575  1
  Ce3+  Ce30  1  0.72838139  0.39025822  0.55184115  1
  Ce3+  Ce31  1  0.13466435  0.25683363  0.94038313  1
  Ce3+  Ce32  1  0.49955450  0.88354626  0.05990903  1
  Ce3+  Ce33  1  0.49780175  0.37845260  0.06222288  1
  Ce3+  Ce34  1  0.00814327  0.13809546  0.05457501  1
  Ce3+  Ce35  1  0.62918373  0.51021851  0.95085724  1
  Ce3+  Ce36  1  0.75454608  0.37558000  0.06001428  1
  Ce3+  Ce37  1  0.12783878  0.75646005  0.93272490  1
  Pr3+  Pr38  1  0.85803921  0.76894195  0.43660332  1
  Pr3+  Pr39  1  0.25225099  0.88043008  0.06202484  1
  Pr3+  Pr40  1  0.38239588  0.25627249  0.94127863  1
  Pr3+  Pr41  1  0.60135802  0.75813363  0.43109938  1
  Pr3+  Pr42  1  0.13407857  0.50782749  0.93668762  1
  Pr3+  Pr43  1  0.13142325  0.00701071  0.93476663  1
  Pr3+  Pr44  1  0.00392029  0.88540302  0.06185817  1
  Pr3+  Pr45  1  0.85902444  0.01310125  0.44673888  1
  Pr3+  Pr46  1  0.10530679  0.50989128  0.43318321  1
  Pr3+  Pr47  1  0.48161018  0.88013903  0.57279456  1
  Pr3+  Pr48  1  0.24401254  0.38912158  0.09482434  1
  Pr3+  Pr49  1  0.60798655  0.26097110  0.42606876  1
  Nd3+  Nd50  1  0.85586452  0.25832517  0.43981329  1
  Nd3+  Nd51  1  0.35304687  0.26372180  0.42050399  1
  Nd3+  Nd52  1  0.24386034  0.63414996  0.06983945  1
  Nd3+  Nd53  1  0.73253346  0.88486348  0.56760098  1
  Nd3+  Nd54  1  0.87636356  0.01102058  0.94640511  1
  Nd3+  Nd55  1  0.86359559  0.51077655  0.42784165  1
  Nd3+  Nd56  1  0.60457781  0.51340355  0.42770969  1
  Nd3+  Nd57  1  0.35477602  0.76185585  0.44460378  1
  Sm3+  Sm58  1  0.75063646  0.88285623  0.06971894  1
  Sm3+  Sm59  1  0.49724766  0.13357780  0.06377952  1
  Sm3+  Sm60  1  0.63021679  0.00739020  0.94619031  1
  Sm3+  Sm61  1  0.38071912  0.00298848  0.94020281  1
  Sm3+  Sm62  1  0.00778101  0.37798116  0.05410392  1
  Sm3+  Sm63  1  0.11253452  0.01108375  0.43636152  1
  Bi2+  Bi64  1  -0.05434425  0.10145911  0.31325019  1
  Bi2+  Bi65  1  0.06607943  0.12778585  0.75897225  1
  Bi2+  Bi66  1  -0.04313319  0.35498289  0.27190217  1
  Bi2+  Bi67  1  0.02113711  0.35931384  0.79754101  1
  Bi2+  Bi68  1  -0.02960377  0.58883650  0.27225025  1
  Bi2+  Bi69  1  -0.09694011  0.62220452  0.79878816  1
  Bi2+  Bi70  1  0.01405265  0.84421811  0.32673305  1
  Bi2+  Bi71  1  -0.05241161  0.91157698  0.82283899  1
  Bi2+  Bi72  1  0.24550322  0.13835016  0.30187723  1
  Bi2+  Bi73  1  0.33655182  0.11329713  0.77442648  1
  Bi2+  Bi74  1  0.26474213  0.40852750  0.28780978  1
  Bi2+  Bi75  1  0.28470846  0.30679585  0.78328301  1
  Bi2+  Bi76  1  0.24186093  0.64874594  0.27409737  1
  Bi2+  Bi77  1  0.22773355  0.60263139  0.78613746  1
  Bi2+  Bi78  1  0.27364736  0.85878629  0.29707118  1
  Bi2+  Bi79  1  0.21941831  0.88107133  0.79506526  1
  Bi2+  Bi80  1  0.55692658  0.06592030  0.26429410  1
  Bi2+  Bi81  1  0.60717844  0.14527758  0.79751585  1
  Bi2+  Bi82  1  0.58800869  0.40253280  0.31116229  1
  Bi2+  Bi83  1  0.47534098  0.35477037  0.78254912  1
  Bi2+  Bi84  1  0.43805393  0.61781812  0.28878408  1
  Bi2+  Bi85  1  0.48912391  0.61641612  0.78964872  1
  Bi2+  Bi86  1  0.51826581  0.85410142  0.28375057  1
  Bi2+  Bi87  1  0.48504414  0.87806680  0.78463025  1
  Bi2+  Bi88  1  0.75077618  0.12926850  0.27017084  1
  Bi2+  Bi89  1  0.74781432  0.06931156  0.73021178  1
  Bi2+  Bi90  1  0.76337079  0.30990620  0.32093934  1
  Bi2+  Bi91  1  0.75217443  0.37202744  0.78522661  1
  Bi2+  Bi92  1  0.76318073  0.51330342  0.31108996  1
  Bi2+  Bi93  1  0.70590247  0.59293786  0.80138050  1
  Bi2+  Bi94  1  0.82484654  0.87140087  0.29698172  1
  Bi2+  Bi95  1  0.72684969  0.91601536  0.80215889  1
  Bi2+  Bi96  1  0.07417777  -0.02199471  0.25247185  1
  Bi2+  Bi97  1  0.23292587  -0.01142401  0.70548880  1
  Bi2+  Bi98  1  0.08377440  0.25422374  0.21344131  1
  Bi2+  Bi99  1  0.16065526  0.26343446  0.70211116  1
  Bi2+  Bi100  1  0.12598444  0.52964538  0.20821112  1
  Bi2+  Bi101  1  0.08534881  0.52669165  0.72253415  1
  Bi2+  Bi102  1  0.08199609  0.79035899  0.21305229  1
  Bi2+  Bi103  1  0.05833855  0.71805363  0.74668254  1
  Bi2+  Bi104  1  0.39486499  -0.00060330  0.19675267  1
  Bi2+  Bi105  1  0.46751973  0.01825990  0.70403639  1
  Bi2+  Bi106  1  0.42157235  0.24750843  0.22459969  1
  Bi2+  Bi107  1  0.42766719  0.21417344  0.68958991  1
  Bi2+  Bi108  1  0.42741931  0.49903129  0.19834488  1
  Bi2+  Bi109  1  0.34736218  0.48739823  0.69044683  1
  Bi2+  Bi110  1  0.27543531  0.79030540  0.19227755  1
  Bi2+  Bi111  1  0.38808365  0.76030742  0.71526899  1
  Bi2+  Bi112  1  0.66172209  -0.10301020  0.20838410  1
  Bi2+  Bi113  1  0.64088068  -0.08190460  0.69141430  1
  Bi2+  Bi114  1  0.65673702  0.30049999  0.22078823  1
  Bi2+  Bi115  1  0.62537377  0.28677118  0.70857827  1
  Bi2+  Bi116  1  0.65782188  0.50584386  0.20906818  1
  Bi2+  Bi117  1  0.59123258  0.48377230  0.72218206  1
  Bi2+  Bi118  1  0.66400023  0.67029960  0.26657653  1
  Bi2+  Bi119  1  0.65183144  0.72219704  0.71399756  1
  Bi2+  Bi120  1  0.89675873  -0.00694243  0.20601140  1
  Bi2+  Bi121  1  0.98524434  -0.08159533  0.71509974  1
  Bi2+  Bi122  1  0.90222752  0.19225880  0.19365194  1
  Bi2+  Bi123  1  0.87428807  0.26639623  0.71232372  1
  Bi2+  Bi124  1  0.85710444  0.47476077  0.20354068  1
  Bi2+  Bi125  1  0.83888090  0.51224394  0.70434672  1
  Bi2+  Bi126  1  0.84023404  0.72793947  0.21240518  1
  Bi2+  Bi127  1  0.86689935  0.75042706  0.71417080  1
  S2-  S128  1  0.08489438  0.13231743  0.14358463  1
  S2-  S129  1  0.01668668  0.06696236  0.67236485  1
  S2-  S130  1  0.08290524  0.38910269  0.14468677  1
  S2-  S131  1  0.00580060  0.28582743  0.65290430  1
  S2-  S132  1  0.10578592  0.65498611  0.14161314  1
  S2-  S133  1  -0.02527402  0.53770119  0.64041954  1
  S2-  S134  1  -0.05212975  0.84442332  0.15511369  1
  S2-  S135  1  0.11523938  0.88031082  0.64958060  1
  S2-  S136  1  0.29617629  0.14213856  0.19964701  1
  S2-  S137  1  0.23618267  0.13717207  0.64857358  1
  S2-  S138  1  0.30393063  0.34142721  0.18984143  1
  S2-  S139  1  0.19844718  0.48396908  0.64637330  1
  S2-  S140  1  0.27604261  0.53608609  0.15212913  1
  S2-  S141  1  0.32546628  0.64463962  0.65026645  1
  S2-  S142  1  0.24968339  0.96474651  0.15022898  1
  S2-  S143  1  0.35520548  0.89553300  0.64873357  1
  S2-  S144  1  0.51231832  0.12096966  0.16299474  1
  S2-  S145  1  0.59734060  0.16991803  0.63716165  1
  S2-  S146  1  0.51500006  0.35443746  0.15890518  1
  S2-  S147  1  0.36921089  0.34380005  0.63421662  1
  S2-  S148  1  0.49954728  0.63757677  0.17022539  1
  S2-  S149  1  0.49929153  0.50075097  0.63761895  1
  S2-  S150  1  0.50487130  0.87982059  0.15914235  1
  S2-  S151  1  0.51675175  0.75027720  0.64790984  1
  S2-  S152  1  0.74373758  0.00042882  0.14683046  1
  S2-  S153  1  0.82497734  0.14373433  0.64839243  1
  S2-  S154  1  0.76188822  0.27082399  0.14122539  1
  S2-  S155  1  0.80948804  0.38857863  0.64007528  1
  S2-  S156  1  0.87797267  0.61587316  0.13891492  1
  S2-  S157  1  0.73460487  0.62235309  0.64727729  1
  S2-  S158  1  0.72375461  0.76334080  0.14162358  1
  S2-  S159  1  0.84852130  0.87605702  0.64693399  1
  S2-  S160  1  0.09333246  0.11402443  0.35627782  1
  S2-  S161  1  0.10550584  0.00314827  0.83419959  1
  S2-  S162  1  0.21296349  0.29174797  0.34761597  1
  S2-  S163  1  0.14182977  0.26542329  0.84191298  1
  S2-  S164  1  0.21856215  0.52354663  0.35178255  1
  S2-  S165  1  0.11649681  0.50397187  0.83489017  1
  S2-  S166  1  0.15999856  0.75050064  0.35192412  1
  S2-  S167  1  0.00955883  0.76011693  0.85626343  1
  S2-  S168  1  0.24453109  -0.01361400  0.35458760  1
  S2-  S169  1  0.36238377  -0.08293936  0.85353372  1
  S2-  S170  1  0.39046143  0.20161645  0.32597567  1
  S2-  S171  1  0.49887462  0.24977631  0.86160970  1
  S2-  S172  1  0.41674022  0.45685004  0.33184838  1
  S2-  S173  1  0.36145850  0.56344173  0.85018052  1
  S2-  S174  1  0.40419359  0.76165917  0.34689973  1
  S2-  S175  1  0.23308211  0.74239414  0.85180738  1
  S2-  S176  1  0.47394403  -0.01275207  0.34312980  1
  S2-  S177  1  0.58584135  0.00227964  0.84974667  1
  S2-  S178  1  0.61638157  0.15446843  0.34366769  1
  S2-  S179  1  0.72567141  0.24405562  0.85374338  1
  S2-  S180  1  0.58315030  0.63300555  0.35291425  1
  S2-  S181  1  0.59168749  0.50337009  0.85512595  1
  S2-  S182  1  0.64219445  0.85484749  0.34842128  1
  S2-  S183  1  0.52298871  0.74711583  0.85215411  1
  S2-  S184  1  0.78825668  0.01824768  0.35323625  1
  S2-  S185  1  0.83804276  0.02986239  0.84933318  1
  S2-  S186  1  0.95856612  0.26214045  0.35716505  1
  S2-  S187  1  0.94296462  0.21552798  0.81212613  1
  S2-  S188  1  0.98829475  0.49961678  0.35449111  1
  S2-  S189  1  0.88152444  0.41259828  0.85254486  1
  S2-  S190  1  0.87744992  0.72296762  0.33892303  1
  S2-  S191  1  0.74850538  0.78299070  0.85906972  1
  S2-  S192  1  -0.01906460  0.13384096  0.46474825  1
  S2-  S193  1  0.00405171  0.13477517  0.94618019  1
  S2-  S194  1  -0.02214493  0.38542326  0.46092545  1
  S2-  S195  1  0.00862439  0.37957097  0.95026389  1
  S2-  S196  1  -0.01841359  0.64106579  0.45152536  1
  S2-  S197  1  0.00288815  0.62565520  0.95301913  1
  S2-  S198  1  -0.01478130  0.89013159  0.46150740  1
  S2-  S199  1  0.00356004  0.88768993  0.95553325  1
  S2-  S200  1  0.23676696  0.13570282  0.44766041  1
  S2-  S201  1  0.26099847  0.12890775  0.93779791  1
  S2-  S202  1  0.23047697  0.38506728  0.45456017  1
  S2-  S203  1  0.25980028  0.38239691  0.94213816  1
  S2-  S204  1  0.22957786  0.63839703  0.45974701  1
  S2-  S205  1  0.25590580  0.63435770  0.96077599  1
  S2-  S206  1  0.23137640  0.88664854  0.46195626  1
  S2-  S207  1  0.25465328  0.88112297  0.95569388  1
  S2-  S208  1  0.48717320  0.13504682  0.44893095  1
  S2-  S209  1  0.50167363  0.12498612  0.95926812  1
  S2-  S210  1  0.48193260  0.38587830  0.44618298  1
  S2-  S211  1  0.50319355  0.38586875  0.95836538  1
  S2-  S212  1  0.47551460  0.63412599  0.45755841  1
  S2-  S213  1  0.50201312  0.63444320  0.95982803  1
  S2-  S214  1  0.48377500  0.88298498  0.45885541  1
  S2-  S215  1  0.50307739  0.88283893  0.95509063  1
  S2-  S216  1  0.72918343  0.13591410  0.45683300  1
  S2-  S217  1  0.75070110  0.13211137  0.96168103  1
  S2-  S218  1  0.73311427  0.38987632  0.44607555  1
  S2-  S219  1  0.75016882  0.38156429  0.95533403  1
  S2-  S220  1  0.73677501  0.63729867  0.44318017  1
  S2-  S221  1  0.75611924  0.62974071  0.95790485  1
  S2-  S222  1  0.73178946  0.88816193  0.46036015  1
  S2-  S223  1  0.75240002  0.88916753  0.96393555  1
  S2-  S224  1  0.13104453  0.01075442  0.04196984  1
  S2-  S225  1  0.10573666  0.01538641  0.54473604  1
  S2-  S226  1  0.13964253  0.25929630  0.04566187  1
  S2-  S227  1  0.10599474  0.26039617  0.54294672  1
  S2-  S228  1  0.13009822  0.50275108  0.04269009  1
  S2-  S229  1  0.10203236  0.50886346  0.53965968  1
  S2-  S230  1  0.12537895  0.76140235  0.04038985  1
  S2-  S231  1  0.10481360  0.75352813  0.55244977  1
  S2-  S232  1  0.37379205  0.01308247  0.04585460  1
  S2-  S233  1  0.35974344  0.01319622  0.54285447  1
  S2-  S234  1  0.36872312  0.25347009  0.05401548  1
  S2-  S235  1  0.35852715  0.25666989  0.52901870  1
  S2-  S236  1  0.37391497  0.50142345  0.04917730  1
  S2-  S237  1  0.35269303  0.50934376  0.53715921  1
  S2-  S238  1  0.37543504  0.75496282  0.05786659  1
  S2-  S239  1  0.35158921  0.75891808  0.54797404  1
  S2-  S240  1  0.62111605  0.01005272  0.05024347  1
  S2-  S241  1  0.60652181  0.00483284  0.55522140  1
  S2-  S242  1  0.62116645  0.25453201  0.04562871  1
  S2-  S243  1  0.60508647  0.27075804  0.53391116  1
  S2-  S244  1  0.63103109  0.50537911  0.05823510  1
  S2-  S245  1  0.60761208  0.51338646  0.53361326  1
  S2-  S246  1  0.62307800  0.75952247  0.04197556  1
  S2-  S247  1  0.60933644  0.76152645  0.54039419  1
  S2-  S248  1  0.88259552  0.01240297  0.05173268  1
  S2-  S249  1  0.85462271  0.01280009  0.55153085  1
  S2-  S250  1  0.88409902  0.25796222  0.03967102  1
  S2-  S251  1  0.85023874  0.26330982  0.54325918  1
  S2-  S252  1  0.87939284  0.49595395  0.04229935  1
  S2-  S253  1  0.85114222  0.51497220  0.53394855  1
  S2-  S254  1  0.87693897  0.76368387  0.03980556  1
  S2-  S255  1  0.85828148  0.75917073  0.54406521  1
