# generated using pymatgen
data_La9Ce10Pr6Nd4Sm3(BiS2)32
_symmetry_space_group_name_H-M   'P 1'
_cell_length_a   16.10179314
_cell_length_b   16.11528563
_cell_length_c   27.06409844
_cell_angle_alpha   89.20553093
_cell_angle_beta   89.54516881
_cell_angle_gamma   89.96927129
_symmetry_Int_Tables_number   1
_chemical_formula_structural   La9Ce10Pr6Nd4Sm3(BiS2)32
_chemical_formula_sum   'La18 Ce20 Pr12 Nd8 Sm6 Bi64 S128'
_cell_volume   7021.83045865
_cell_formula_units_Z   2
loop_
 _symmetry_equiv_pos_site_id
 _symmetry_equiv_pos_as_xyz
  1  'x, y, z'
loop_
 _atom_type_symbol
 _atom_type_oxidation_number
  La3+  3.0
  Ce3+  3.0
  Pr3+  3.0
  Nd3+  3.0
  Sm3+  3.0
  Bi2+  2.0
  S2-  -2.0
loop_
 _atom_site_type_symbol
 _atom_site_label
 _atom_site_symmetry_multiplicity
 _atom_site_fract_x
 _atom_site_fract_y
 _atom_site_fract_z
 _atom_site_occupancy
  La3+  La0  1  0.75026647  0.36446770  0.57309745  1
  La3+  La1  1  0.13478859  0.48824954  0.42786100  1
  La3+  La2  1  0.88198000  0.51078041  0.38464997  1
  La3+  La3  1  0.50055630  0.10893503  0.06403716  1
  La3+  La4  1  0.74776283  0.36070728  0.07593312  1
  La3+  La5  1  0.24124351  0.36877362  0.58713787  1
  La3+  La6  1  0.00865630  0.35432625  0.09767451  1
  La3+  La7  1  0.76359447  0.62606470  0.59242994  1
  La3+  La8  1  0.63108777  0.74972898  0.92161663  1
  La3+  La9  1  0.63401851  0.50061018  0.43521114  1
  La3+  La10  1  0.50313062  0.36547112  0.58890256  1
  La3+  La11  1  0.24877120  0.11831232  0.05594198  1
  La3+  La12  1  0.13263608  0.75031643  0.42362022  1
  La3+  La13  1  0.75293871  0.10851109  0.06537213  1
  La3+  La14  1  0.12666282  0.49196749  0.94433108  1
  La3+  La15  1  0.25221093  0.86554596  0.57711672  1
  La3+  La16  1  0.00400558  0.86114802  0.07977627  1
  La3+  La17  1  0.88421654  0.74501799  0.93534462  1
  Ce3+  Ce18  1  0.50538741  0.61439232  0.05297394  1
  Ce3+  Ce19  1  0.87872466  -0.00437494  0.43544748  1
  Ce3+  Ce20  1  0.87868113  0.25150397  0.43896742  1
  Ce3+  Ce21  1  0.74719005  0.86987458  0.56076038  1
  Ce3+  Ce22  1  0.37955924  0.24496539  0.93159112  1
  Ce3+  Ce23  1  -0.00318530  0.61746434  0.54528278  1
  Ce3+  Ce24  1  0.50410278  0.86751609  0.55874950  1
  Ce3+  Ce25  1  0.12631242  0.74190121  0.94665596  1
  Ce3+  Ce26  1  0.49514286  0.86551013  0.05987868  1
  Ce3+  Ce27  1  0.87383296  0.49153121  0.94821162  1
  Ce3+  Ce28  1  0.62792209  0.24757909  0.44155402  1
  Ce3+  Ce29  1  0.74861319  0.11937115  0.55719849  1
  Ce3+  Ce30  1  0.74819445  0.86738546  0.05680729  1
  Ce3+  Ce31  1  0.50450583  0.36661015  0.05693588  1
  Ce3+  Ce32  1  0.74807256  0.61812773  0.05626793  1
  Ce3+  Ce33  1  0.63668621  0.49788531  0.91819100  1
  Ce3+  Ce34  1  0.00215890  0.37035684  0.55898781  1
  Ce3+  Ce35  1  0.25352019  0.36452680  0.05950907  1
  Ce3+  Ce36  1  0.00355731  0.11862803  0.05312434  1
  Ce3+  Ce37  1  0.24702934  0.61788216  0.56724273  1
  Pr3+  Pr38  1  0.11882123  0.25303078  0.91623244  1
  Pr3+  Pr39  1  0.00472435  0.61277071  0.07658140  1
  Pr3+  Pr40  1  -0.00231941  0.86414418  0.55806802  1
  Pr3+  Pr41  1  0.63310791  0.74092986  0.44052704  1
  Pr3+  Pr42  1  0.50127581  0.11596352  0.56870820  1
  Pr3+  Pr43  1  0.12807115  -0.00709709  0.93166332  1
  Pr3+  Pr44  1  0.63000674  0.24426607  0.93405984  1
  Pr3+  Pr45  1  0.63391681  -0.00373219  0.92430529  1
  Pr3+  Pr46  1  0.00051906  0.11536541  0.56463393  1
  Pr3+  Pr47  1  0.62564666  -0.00298971  0.42898690  1
  Pr3+  Pr48  1  0.13040661  -0.00137505  0.43605253  1
  Pr3+  Pr49  1  0.37628065  -0.00347898  0.44294106  1
  Nd3+  Nd50  1  0.37364064  -0.01860454  0.92445155  1
  Nd3+  Nd51  1  0.24851052  0.11568874  0.57765205  1
  Nd3+  Nd52  1  0.50366926  0.61548525  0.56890323  1
  Nd3+  Nd53  1  0.25240901  0.86596499  0.06567720  1
  Nd3+  Nd54  1  0.26387556  0.61152375  0.07062054  1
  Nd3+  Nd55  1  0.38114241  0.49042240  0.92697533  1
  Nd3+  Nd56  1  0.37779849  0.74459852  0.44368198  1
  Nd3+  Nd57  1  0.37514391  0.49280844  0.45032377  1
  Sm3+  Sm58  1  0.13004177  0.24583696  0.44543926  1
  Sm3+  Sm59  1  0.87273670  0.24791892  0.93699488  1
  Sm3+  Sm60  1  0.87782005  0.75212146  0.42577995  1
  Sm3+  Sm61  1  0.88386653  -0.00389678  0.93565386  1
  Sm3+  Sm62  1  0.37929482  0.24782708  0.45183765  1
  Sm3+  Sm63  1  0.37809431  0.73517440  0.93359536  1
  Bi2+  Bi64  1  -0.03558775  0.11268247  0.32227745  1
  Bi2+  Bi65  1  -0.09744378  0.11387030  0.79477918  1
  Bi2+  Bi66  1  0.02578717  0.37649717  0.28333097  1
  Bi2+  Bi67  1  -0.02550329  0.37616298  0.78783899  1
  Bi2+  Bi68  1  0.01856831  0.62465443  0.26825148  1
  Bi2+  Bi69  1  -0.03295791  0.62769046  0.78853423  1
  Bi2+  Bi70  1  0.00172998  0.92891373  0.28698027  1
  Bi2+  Bi71  1  -0.01448879  0.86210463  0.79485676  1
  Bi2+  Bi72  1  0.16496581  0.10453705  0.31597785  1
  Bi2+  Bi73  1  0.31114522  0.10462224  0.78147987  1
  Bi2+  Bi74  1  0.28249158  0.36417621  0.30333909  1
  Bi2+  Bi75  1  0.23265927  0.37754840  0.78892396  1
  Bi2+  Bi76  1  0.29087207  0.64533911  0.29678968  1
  Bi2+  Bi77  1  0.21936124  0.58026687  0.79858746  1
  Bi2+  Bi78  1  0.27589470  0.93407889  0.30244644  1
  Bi2+  Bi79  1  0.18432024  0.85419061  0.79826378  1
  Bi2+  Bi80  1  0.50787994  0.13983660  0.31377156  1
  Bi2+  Bi81  1  0.49108644  0.10859064  0.84008570  1
  Bi2+  Bi82  1  0.48128097  0.38681264  0.27330554  1
  Bi2+  Bi83  1  0.51454693  0.29311382  0.80983024  1
  Bi2+  Bi84  1  0.48571937  0.57936744  0.28990034  1
  Bi2+  Bi85  1  0.46005838  0.71268044  0.79168870  1
  Bi2+  Bi86  1  0.52367090  0.85247301  0.27590107  1
  Bi2+  Bi87  1  0.48224024  0.92052743  0.77858149  1
  Bi2+  Bi88  1  0.80152206  0.10825417  0.25562052  1
  Bi2+  Bi89  1  0.67552245  0.09078149  0.77946271  1
  Bi2+  Bi90  1  0.75651232  0.35148597  0.28916957  1
  Bi2+  Bi91  1  0.76263787  0.37031722  0.79053559  1
  Bi2+  Bi92  1  0.72841306  0.69030229  0.29310234  1
  Bi2+  Bi93  1  0.74632841  0.63017146  0.79069478  1
  Bi2+  Bi94  1  0.71240592  0.88598890  0.30372693  1
  Bi2+  Bi95  1  0.73826535  0.88540632  0.78340364  1
  Bi2+  Bi96  1  0.15268417  0.02332727  0.20860947  1
  Bi2+  Bi97  1  0.11886043  -0.01444561  0.71704812  1
  Bi2+  Bi98  1  0.17237725  0.22769111  0.22128996  1
  Bi2+  Bi99  1  0.12217839  0.23381071  0.71782107  1
  Bi2+  Bi100  1  0.23333659  0.50434553  0.22191879  1
  Bi2+  Bi101  1  0.09472416  0.49465564  0.71253671  1
  Bi2+  Bi102  1  0.23778055  0.78428800  0.20945978  1
  Bi2+  Bi103  1  0.12244935  0.70662101  0.72737714  1
  Bi2+  Bi104  1  0.39998571  -0.03429505  0.21160388  1
  Bi2+  Bi105  1  0.44926181  0.06388793  0.70132202  1
  Bi2+  Bi106  1  0.36748062  0.23233252  0.21560296  1
  Bi2+  Bi107  1  0.38080218  0.26715203  0.72609119  1
  Bi2+  Bi108  1  0.37778656  0.41666272  0.17138827  1
  Bi2+  Bi109  1  0.35535098  0.56285675  0.71644621  1
  Bi2+  Bi110  1  0.46052748  0.71152621  0.20245637  1
  Bi2+  Bi111  1  0.32063635  0.80831997  0.72025993  1
  Bi2+  Bi112  1  0.63340463  0.05735500  0.19659201  1
  Bi2+  Bi113  1  0.63959717  0.00507336  0.65432772  1
  Bi2+  Bi114  1  0.62100442  0.26785433  0.21378474  1
  Bi2+  Bi115  1  0.64478422  0.24724491  0.71524370  1
  Bi2+  Bi116  1  0.62327625  0.50052557  0.21993892  1
  Bi2+  Bi117  1  0.57611665  0.49367553  0.72253373  1
  Bi2+  Bi118  1  0.65086074  0.78185471  0.19801456  1
  Bi2+  Bi119  1  0.60029254  0.82910336  0.69386325  1
  Bi2+  Bi120  1  0.89424826  -0.03084457  0.19518938  1
  Bi2+  Bi121  1  0.81740410  0.01885506  0.70697660  1
  Bi2+  Bi122  1  0.94626571  0.23366904  0.22377105  1
  Bi2+  Bi123  1  0.87251328  0.26114346  0.71690525  1
  Bi2+  Bi124  1  0.85308471  0.52606590  0.17831820  1
  Bi2+  Bi125  1  0.88549255  0.51774597  0.70773396  1
  Bi2+  Bi126  1  0.85334457  0.77996506  0.21286309  1
  Bi2+  Bi127  1  0.90433152  0.77670207  0.70479443  1
  S2-  S128  1  0.02687926  0.16862233  0.14566707  1
  S2-  S129  1  0.04842357  0.12114462  0.66366478  1
  S2-  S130  1  0.00983061  0.50296335  0.15922170  1
  S2-  S131  1  0.07716907  0.36072493  0.64802968  1
  S2-  S132  1  -0.02576908  0.72958548  0.15435744  1
  S2-  S133  1  -0.06326500  0.64405444  0.63856015  1
  S2-  S134  1  0.14064627  0.88031142  0.14812530  1
  S2-  S135  1  0.01531814  0.88331069  0.65886091  1
  S2-  S136  1  0.28792847  0.06162154  0.15107221  1
  S2-  S137  1  0.25026217  0.23160405  0.65612225  1
  S2-  S138  1  0.17000454  0.34303441  0.14706305  1
  S2-  S139  1  0.23598274  0.51132241  0.64934011  1
  S2-  S140  1  0.19505147  0.64233551  0.16503737  1
  S2-  S141  1  0.23236206  0.73144860  0.64486398  1
  S2-  S142  1  0.36936687  0.83834025  0.14117609  1
  S2-  S143  1  0.23885857  0.98947547  0.65173231  1
  S2-  S144  1  0.49741593  0.18869241  0.15800976  1
  S2-  S145  1  0.50239653  0.21555446  0.65372960  1
  S2-  S146  1  0.60484423  0.39009314  0.13913297  1
  S2-  S147  1  0.42966543  0.41855609  0.68181993  1
  S2-  S148  1  0.41001243  0.59091592  0.13629481  1
  S2-  S149  1  0.49940386  0.62278661  0.67076055  1
  S2-  S150  1  0.52077185  0.97803398  0.13773981  1
  S2-  S151  1  0.43979974  0.85247441  0.64982951  1
  S2-  S152  1  0.73009153  0.19432642  0.15385148  1
  S2-  S153  1  0.76527342  0.21605231  0.64042231  1
  S2-  S154  1  0.86065751  0.36141030  0.15722778  1
  S2-  S155  1  0.63940794  0.39107331  0.65541709  1
  S2-  S156  1  0.69283285  0.60541594  0.15121269  1
  S2-  S157  1  0.71972681  0.57413414  0.68951322  1
  S2-  S158  1  0.74487423  0.96980732  0.13790279  1
  S2-  S159  1  0.75449057  0.78136977  0.64726975  1
  S2-  S160  1  0.13122902  -0.10827352  0.35533262  1
  S2-  S161  1  0.00050948  -0.00923558  0.85671132  1
  S2-  S162  1  0.13753338  0.32637881  0.35692884  1
  S2-  S163  1  0.18642237  0.21260219  0.81899380  1
  S2-  S164  1  0.04666277  0.50903758  0.33933038  1
  S2-  S165  1  0.10706277  0.40723295  0.85564837  1
  S2-  S166  1  0.12737136  0.69236648  0.32246854  1
  S2-  S167  1  0.02225618  0.73150103  0.86607192  1
  S2-  S168  1  0.42855347  0.01095249  0.34570843  1
  S2-  S169  1  0.24399576  -0.00745856  0.85170854  1
  S2-  S170  1  0.38099077  0.23166563  0.35228796  1
  S2-  S171  1  0.36688191  0.36440936  0.85446651  1
  S2-  S172  1  0.28445999  0.49891590  0.36372434  1
  S2-  S173  1  0.36911356  0.61752161  0.85390542  1
  S2-  S174  1  0.34106229  0.78046083  0.34748686  1
  S2-  S175  1  0.39165049  0.84000442  0.85332078  1
  S2-  S176  1  0.65345661  0.04212021  0.33144518  1
  S2-  S177  1  0.60798495  -0.12052853  0.84791854  1
  S2-  S178  1  0.63259890  0.26095225  0.34225042  1
  S2-  S179  1  0.75225442  0.25461285  0.85887213  1
  S2-  S180  1  0.72057598  0.47290465  0.34603877  1
  S2-  S181  1  0.57815987  0.44454959  0.82660227  1
  S2-  S182  1  0.59939849  0.64544137  0.35807259  1
  S2-  S183  1  0.60390395  0.64605139  0.83842847  1
  S2-  S184  1  0.87220148  -0.10872724  0.35635012  1
  S2-  S185  1  0.77798977  0.01221966  0.85474605  1
  S2-  S186  1  0.88919210  0.33281721  0.35076870  1
  S2-  S187  1  0.97149028  0.23404383  0.85149048  1
  S2-  S188  1  0.89317481  0.49532922  0.26865839  1
  S2-  S189  1  0.79085498  0.49836190  0.85976532  1
  S2-  S190  1  0.89110641  0.67277099  0.33551487  1
  S2-  S191  1  0.78653344  0.75622042  0.84841107  1
  S2-  S192  1  0.00440745  0.12238818  0.45545487  1
  S2-  S193  1  0.00410881  0.12318805  0.95121081  1
  S2-  S194  1  0.00409068  0.37053437  0.45545030  1
  S2-  S195  1  -0.00526686  0.36915258  0.95863119  1
  S2-  S196  1  0.00183626  0.62496862  0.44205446  1
  S2-  S197  1  0.00073175  0.61262273  0.96646420  1
  S2-  S198  1  0.00301335  0.87271936  0.45287158  1
  S2-  S199  1  0.00604885  0.86827595  0.96503398  1
  S2-  S200  1  0.25412201  0.12337397  0.46084048  1
  S2-  S201  1  0.25250214  0.12478334  0.94712642  1
  S2-  S202  1  0.25474219  0.36454687  0.46894817  1
  S2-  S203  1  0.25139596  0.36607241  0.95378935  1
  S2-  S204  1  0.25238786  0.62348627  0.45875193  1
  S2-  S205  1  0.25121388  0.61635953  0.95794578  1
  S2-  S206  1  0.25504477  0.87101632  0.46257164  1
  S2-  S207  1  0.25042733  0.86070534  0.95629684  1
  S2-  S208  1  0.50237687  0.12109787  0.45822053  1
  S2-  S209  1  0.50192529  0.11649369  0.95253077  1
  S2-  S210  1  0.50275624  0.37289358  0.45215678  1
  S2-  S211  1  0.50876739  0.36985640  0.95069724  1
  S2-  S212  1  0.49815569  0.61795836  0.46177425  1
  S2-  S213  1  0.50676433  0.61581605  0.94902640  1
  S2-  S214  1  0.50474879  0.86762532  0.44924045  1
  S2-  S215  1  0.50075057  0.86597972  0.95439050  1
  S2-  S216  1  0.75400948  0.12064379  0.44831982  1
  S2-  S217  1  0.75737626  0.11819495  0.95786037  1
  S2-  S218  1  0.75145553  0.36713034  0.46105652  1
  S2-  S219  1  0.75094264  0.36919870  0.96325206  1
  S2-  S220  1  0.76461667  0.62146679  0.44642571  1
  S2-  S221  1  0.75284340  0.62317695  0.95365815  1
  S2-  S222  1  0.74866464  0.87248110  0.45379133  1
  S2-  S223  1  0.75839066  0.87231243  0.95338925  1
  S2-  S224  1  0.12639779  -0.00785701  0.04212042  1
  S2-  S225  1  0.12417030  -0.00769098  0.54458569  1
  S2-  S226  1  0.12595650  0.24546560  0.03708821  1
  S2-  S227  1  0.12521395  0.23892528  0.54859491  1
  S2-  S228  1  0.13301818  0.49147044  0.05155536  1
  S2-  S229  1  0.12286046  0.49594982  0.54175651  1
  S2-  S230  1  0.13232147  0.73598827  0.05034708  1
  S2-  S231  1  0.12119143  0.74266415  0.53937802  1
  S2-  S232  1  0.37164650  -0.00954091  0.03379496  1
  S2-  S233  1  0.37781100  -0.00645114  0.54999133  1
  S2-  S234  1  0.37838769  0.24208358  0.04283258  1
  S2-  S235  1  0.37517044  0.24398598  0.55556032  1
  S2-  S236  1  0.37960363  0.48690114  0.03379140  1
  S2-  S237  1  0.37931483  0.49017503  0.55531407  1
  S2-  S238  1  0.37834494  0.73630002  0.03763569  1
  S2-  S239  1  0.37970133  0.73984618  0.54931209  1
  S2-  S240  1  0.62611051  -0.01169991  0.03216880  1
  S2-  S241  1  0.62508321  -0.00612185  0.53758127  1
  S2-  S242  1  0.62425892  0.23653819  0.04154485  1
  S2-  S243  1  0.62233345  0.24307645  0.54639828  1
  S2-  S244  1  0.62753047  0.49482148  0.03493970  1
  S2-  S245  1  0.63259414  0.50134792  0.54949247  1
  S2-  S246  1  0.62408981  0.74474334  0.04211969  1
  S2-  S247  1  0.62780257  0.73935949  0.54750823  1
  S2-  S248  1  0.88541111  -0.01177609  0.04311390  1
  S2-  S249  1  0.87378900  -0.00568837  0.54615594  1
  S2-  S250  1  0.87790378  0.24057280  0.04659734  1
  S2-  S251  1  0.88236274  0.24274950  0.54455933  1
  S2-  S252  1  0.87359610  0.49283851  0.05277203  1
  S2-  S253  1  0.87449496  0.49093049  0.55980824  1
  S2-  S254  1  0.87230860  0.74300606  0.04667076  1
  S2-  S255  1  0.87133714  0.74634008  0.53496290  1
