# generated using pymatgen
data_La9Ce10Pr6Nd4Sm3(BiS2)32
_symmetry_space_group_name_H-M   'P 1'
_cell_length_a   16.21845808
_cell_length_b   16.22012907
_cell_length_c   27.03626498
_cell_angle_alpha   89.96013871
_cell_angle_beta   90.10076157
_cell_angle_gamma   90.03860073
_symmetry_Int_Tables_number   1
_chemical_formula_structural   La9Ce10Pr6Nd4Sm3(BiS2)32
_chemical_formula_sum   'La18 Ce20 Pr12 Nd8 Sm6 Bi64 S128'
_cell_volume   7112.29378671
_cell_formula_units_Z   2
loop_
 _symmetry_equiv_pos_site_id
 _symmetry_equiv_pos_as_xyz
  1  'x, y, z'
loop_
 _atom_type_symbol
 _atom_type_oxidation_number
  La3+  3.0
  Ce3+  3.0
  Pr3+  3.0
  Nd3+  3.0
  Sm3+  3.0
  Bi2+  2.0
  S2-  -2.0
loop_
 _atom_site_type_symbol
 _atom_site_label
 _atom_site_symmetry_multiplicity
 _atom_site_fract_x
 _atom_site_fract_y
 _atom_site_fract_z
 _atom_site_occupancy
  La3+  La0  1  0.61932152  -0.00626910  0.92233520  1
  La3+  La1  1  0.87006731  0.74223862  0.41460444  1
  La3+  La2  1  0.24945298  0.62285200  0.57330540  1
  La3+  La3  1  0.87558261  0.01303936  0.92592522  1
  La3+  La4  1  0.61087484  0.26120035  0.91571104  1
  La3+  La5  1  0.75253385  0.37051481  0.56807354  1
  La3+  La6  1  0.36473661  0.26464869  0.92343189  1
  La3+  La7  1  0.49310737  0.63197927  0.06945927  1
  La3+  La8  1  0.49683994  0.87004679  0.58252604  1
  La3+  La9  1  0.13183142  0.00974838  0.39682496  1
  La3+  La10  1  0.50041655  0.11785238  0.58268726  1
  La3+  La11  1  0.13335760  0.73851477  0.40630299  1
  La3+  La12  1  0.86840931  0.75581947  0.93808664  1
  La3+  La13  1  0.50552252  0.36812038  0.58797773  1
  La3+  La14  1  0.86931894  0.25863910  0.93031184  1
  La3+  La15  1  0.49595244  0.37444574  0.10032738  1
  La3+  La16  1  0.24500156  0.37886008  0.06921506  1
  La3+  La17  1  0.24572155  0.11689829  0.56967933  1
  Ce3+  Ce18  1  0.62413985  0.75200633  0.43768363  1
  Ce3+  Ce19  1  0.49423764  0.87779490  0.06109744  1
  Ce3+  Ce20  1  0.75613014  0.11684475  0.57184360  1
  Ce3+  Ce21  1  0.62818619  -0.00410141  0.44343560  1
  Ce3+  Ce22  1  0.61563835  0.50267445  0.94495760  1
  Ce3+  Ce23  1  0.87679713  0.49716306  0.43858932  1
  Ce3+  Ce24  1  0.86878170  0.49767931  0.94453905  1
  Ce3+  Ce25  1  0.74048656  0.13010712  0.04801764  1
  Ce3+  Ce26  1  -0.00598233  0.63323564  0.05965849  1
  Ce3+  Ce27  1  0.12229360  0.25562316  0.93707786  1
  Ce3+  Ce28  1  -0.00807241  0.12859644  0.06468348  1
  Ce3+  Ce29  1  0.62245004  0.74955217  0.94216116  1
  Ce3+  Ce30  1  0.74645446  0.88538764  0.05991418  1
  Ce3+  Ce31  1  0.87631382  0.24593386  0.44508067  1
  Ce3+  Ce32  1  0.24610559  0.87253492  0.55122984  1
  Ce3+  Ce33  1  0.37124716  0.00114498  0.93156461  1
  Ce3+  Ce34  1  -0.00235599  0.37574983  0.06700710  1
  Ce3+  Ce35  1  0.11372752  0.75533901  0.93860943  1
  Ce3+  Ce36  1  0.74720993  0.63051539  0.06485457  1
  Ce3+  Ce37  1  -0.00516248  0.88801452  0.07322891  1
  Pr3+  Pr38  1  0.49593662  0.13190023  0.05236698  1
  Pr3+  Pr39  1  -0.00072840  0.11652570  0.56583053  1
  Pr3+  Pr40  1  0.24581427  0.88172825  0.05949220  1
  Pr3+  Pr41  1  -0.00427937  0.87103093  0.54784736  1
  Pr3+  Pr42  1  0.87313315  0.00359396  0.42705821  1
  Pr3+  Pr43  1  0.36647743  0.75184637  0.93032501  1
  Pr3+  Pr44  1  0.37973665  -0.00333972  0.43885660  1
  Pr3+  Pr45  1  0.49881539  0.62223212  0.55464019  1
  Pr3+  Pr46  1  0.62197657  0.49450246  0.43885212  1
  Pr3+  Pr47  1  0.12000832  0.00418479  0.93829365  1
  Pr3+  Pr48  1  0.37299874  0.49631535  0.44171111  1
  Pr3+  Pr49  1  -0.00130871  0.37449725  0.57072976  1
  Nd3+  Nd50  1  0.24106938  0.63155691  0.06222696  1
  Nd3+  Nd51  1  0.24807672  0.13145781  0.05430357  1
  Nd3+  Nd52  1  0.11815902  0.50358878  0.94005839  1
  Nd3+  Nd53  1  0.36904622  0.50797403  0.93863885  1
  Nd3+  Nd54  1  -0.00808156  0.62865086  0.55932723  1
  Nd3+  Nd55  1  0.24924409  0.37212935  0.55988524  1
  Nd3+  Nd56  1  0.62393261  0.24505055  0.44685249  1
  Nd3+  Nd57  1  0.74335964  0.37658296  0.06090806  1
  Sm3+  Sm58  1  0.37574519  0.75113074  0.43863268  1
  Sm3+  Sm59  1  0.12352156  0.24541053  0.44844580  1
  Sm3+  Sm60  1  0.37587283  0.24546034  0.44790522  1
  Sm3+  Sm61  1  0.75222933  0.86870678  0.56190356  1
  Sm3+  Sm62  1  0.12540389  0.49786912  0.44553172  1
  Sm3+  Sm63  1  0.74957821  0.62235078  0.55331475  1
  Bi2+  Bi64  1  -0.00432095  0.13532635  0.28413283  1
  Bi2+  Bi65  1  0.03306673  0.21750696  0.80809424  1
  Bi2+  Bi66  1  0.03807640  0.38060607  0.30989670  1
  Bi2+  Bi67  1  0.01966756  0.41270306  0.80877342  1
  Bi2+  Bi68  1  -0.01344480  0.64450656  0.28755570  1
  Bi2+  Bi69  1  -0.04015933  0.61506132  0.78043859  1
  Bi2+  Bi70  1  0.00394725  0.89539446  0.26502440  1
  Bi2+  Bi71  1  -0.01087998  0.90180686  0.79478997  1
  Bi2+  Bi72  1  0.26159605  0.19079207  0.30053280  1
  Bi2+  Bi73  1  0.16649760  0.06755560  0.75057573  1
  Bi2+  Bi74  1  0.23371237  0.38583070  0.29093861  1
  Bi2+  Bi75  1  0.22547589  0.37434044  0.79197920  1
  Bi2+  Bi76  1  0.26065530  0.58767257  0.30659284  1
  Bi2+  Bi77  1  0.23628056  0.64429382  0.78864852  1
  Bi2+  Bi78  1  0.35246257  0.92422242  0.28812833  1
  Bi2+  Bi79  1  0.32155952  0.87196987  0.81690877  1
  Bi2+  Bi80  1  0.50984577  0.05351988  0.28967248  1
  Bi2+  Bi81  1  0.50161950  0.12686359  0.77895373  1
  Bi2+  Bi82  1  0.52115322  0.37185077  0.31972919  1
  Bi2+  Bi83  1  0.48276964  0.38843249  0.78693182  1
  Bi2+  Bi84  1  0.48094004  0.62785537  0.27698192  1
  Bi2+  Bi85  1  0.50420401  0.61618817  0.79431444  1
  Bi2+  Bi86  1  0.50734478  0.87990367  0.35179532  1
  Bi2+  Bi87  1  0.50184442  0.81662423  0.79079403  1
  Bi2+  Bi88  1  0.73285377  0.14492204  0.29052553  1
  Bi2+  Bi89  1  0.76988079  0.09608620  0.78810744  1
  Bi2+  Bi90  1  0.84817627  0.31431741  0.29115292  1
  Bi2+  Bi91  1  0.74089993  0.44154577  0.79510957  1
  Bi2+  Bi92  1  0.73150170  0.60973842  0.29092376  1
  Bi2+  Bi93  1  0.69108392  0.62201744  0.83400573  1
  Bi2+  Bi94  1  0.69782836  0.89385459  0.28935066  1
  Bi2+  Bi95  1  0.77065123  0.78919504  0.80165115  1
  Bi2+  Bi96  1  0.16326842  0.02294103  0.19846673  1
  Bi2+  Bi97  1  0.11928181  -0.02152386  0.64621817  1
  Bi2+  Bi98  1  0.10916293  0.25169671  0.21416703  1
  Bi2+  Bi99  1  0.09888238  0.22821018  0.69848812  1
  Bi2+  Bi100  1  0.10912283  0.49247985  0.21968043  1
  Bi2+  Bi101  1  0.03419405  0.48405580  0.70212457  1
  Bi2+  Bi102  1  0.13337506  0.73303601  0.19653319  1
  Bi2+  Bi103  1  0.16104111  0.86691706  0.74565071  1
  Bi2+  Bi104  1  0.41414182  -0.02761704  0.17725200  1
  Bi2+  Bi105  1  0.35447369  -0.00866091  0.71223040  1
  Bi2+  Bi106  1  0.38777220  0.15230342  0.21591429  1
  Bi2+  Bi107  1  0.35151726  0.28252473  0.69728178  1
  Bi2+  Bi108  1  0.35766964  0.50528432  0.20995146  1
  Bi2+  Bi109  1  0.33132170  0.53384746  0.70539296  1
  Bi2+  Bi110  1  0.37757788  0.76563462  0.21963395  1
  Bi2+  Bi111  1  0.37723980  0.75113807  0.71022488  1
  Bi2+  Bi112  1  0.60393880  -0.02026306  0.19809907  1
  Bi2+  Bi113  1  0.63318456  -0.03649110  0.71526758  1
  Bi2+  Bi114  1  0.64185162  0.23702048  0.20329799  1
  Bi2+  Bi115  1  0.65248924  0.24993512  0.71389868  1
  Bi2+  Bi116  1  0.63654163  0.50030954  0.21443225  1
  Bi2+  Bi117  1  0.62900226  0.52990495  0.71530208  1
  Bi2+  Bi118  1  0.57456055  0.78137473  0.23357307  1
  Bi2+  Bi119  1  0.64842621  0.72133754  0.72123297  1
  Bi2+  Bi120  1  0.86500344  0.08443989  0.20133854  1
  Bi2+  Bi121  1  0.94979290  0.00035226  0.69945375  1
  Bi2+  Bi122  1  0.92198638  0.26866257  0.18006179  1
  Bi2+  Bi123  1  0.91313308  0.25776934  0.71853660  1
  Bi2+  Bi124  1  0.91408436  0.45685821  0.22616628  1
  Bi2+  Bi125  1  0.83815581  0.52343908  0.70734195  1
  Bi2+  Bi126  1  0.83603236  0.75154028  0.20597528  1
  Bi2+  Bi127  1  0.92859282  0.75052262  0.69652260  1
  S2-  S128  1  0.00330786  0.02403032  0.14479359  1
  S2-  S129  1  -0.11250814  0.12728481  0.64506169  1
  S2-  S130  1  0.11450167  0.37784993  0.14137762  1
  S2-  S131  1  -0.11955506  0.37402252  0.64712642  1
  S2-  S132  1  0.03518550  0.61197094  0.15494263  1
  S2-  S133  1  0.03941887  0.63584798  0.65631007  1
  S2-  S134  1  -0.01430797  0.81288892  0.16553356  1
  S2-  S135  1  -0.11654794  0.87310542  0.63256391  1
  S2-  S136  1  0.24165580  0.16324239  0.15364556  1
  S2-  S137  1  0.33364949  0.13529111  0.65722188  1
  S2-  S138  1  0.34683118  0.37644807  0.15269222  1
  S2-  S139  1  0.24139008  0.40542155  0.65828760  1
  S2-  S140  1  0.27282342  0.64528667  0.16168388  1
  S2-  S141  1  0.23815440  0.66823320  0.67203395  1
  S2-  S142  1  0.19739587  0.87823064  0.15747999  1
  S2-  S143  1  0.33567152  0.87462120  0.63814455  1
  S2-  S144  1  0.50503941  0.21121693  0.14311943  1
  S2-  S145  1  0.50959064  0.23490102  0.66071611  1
  S2-  S146  1  0.53486015  0.36514524  0.22316215  1
  S2-  S147  1  0.44613242  0.42563689  0.68086607  1
  S2-  S148  1  0.50160560  0.53458443  0.15468353  1
  S2-  S149  1  0.45242356  0.64735977  0.65096090  1
  S2-  S150  1  0.48477042  0.76712391  0.13898714  1
  S2-  S151  1  0.49924372  0.99580129  0.65976782  1
  S2-  S152  1  0.71790544  0.10892418  0.14604392  1
  S2-  S153  1  0.68594857  0.09914212  0.66596885  1
  S2-  S154  1  0.71097026  0.37402816  0.15980849  1
  S2-  S155  1  0.65552588  0.38103810  0.65274614  1
  S2-  S156  1  0.74228405  0.62702839  0.16502174  1
  S2-  S157  1  0.82173540  0.65354150  0.64129530  1
  S2-  S158  1  0.75688216  0.86799604  0.15954390  1
  S2-  S159  1  0.64625191  0.84647178  0.64463563  1
  S2-  S160  1  0.15137746  -0.03293441  0.28894883  1
  S2-  S161  1  0.07670717  0.02085152  0.84077889  1
  S2-  S162  1  0.11888405  0.17432604  0.35785930  1
  S2-  S163  1  0.22212385  0.25138877  0.85314603  1
  S2-  S164  1  0.11679508  0.57824542  0.35708068  1
  S2-  S165  1  0.15777093  0.51978043  0.84100084  1
  S2-  S166  1  0.10355316  0.76645168  0.29952692  1
  S2-  S167  1  0.16736068  0.76203251  0.84352199  1
  S2-  S168  1  0.29807751  0.04710869  0.35427315  1
  S2-  S169  1  0.38074874  0.03432999  0.83314288  1
  S2-  S170  1  0.40174010  0.27210807  0.35058735  1
  S2-  S171  1  0.47435969  0.24258897  0.84242380  1
  S2-  S172  1  0.42286957  0.51186424  0.34415348  1
  S2-  S173  1  0.36156158  0.41043012  0.85142198  1
  S2-  S174  1  0.29085448  0.72675854  0.35351540  1
  S2-  S175  1  0.36740074  0.62719863  0.85668994  1
  S2-  S176  1  0.73087513  0.00358674  0.36093910  1
  S2-  S177  1  0.61492150  0.03028793  0.81890222  1
  S2-  S178  1  0.63493563  0.24652763  0.34533894  1
  S2-  S179  1  0.69108698  0.22399580  0.81949253  1
  S2-  S180  1  0.66131191  0.48416940  0.33867529  1
  S2-  S181  1  0.60136007  0.41483889  0.85826049  1
  S2-  S182  1  0.71107067  0.74538167  0.35288704  1
  S2-  S183  1  0.62883372  0.83987653  0.85863991  1
  S2-  S184  1  0.97702661  -0.00876005  0.34373865  1
  S2-  S185  1  0.82783783  -0.05531103  0.83511343  1
  S2-  S186  1  0.87269537  0.17136409  0.35659338  1
  S2-  S187  1  0.88532802  0.14662231  0.85127247  1
  S2-  S188  1  0.87345970  0.58146738  0.35217756  1
  S2-  S189  1  0.86763004  0.39829264  0.86138830  1
  S2-  S190  1  0.90219365  0.78318683  0.31199877  1
  S2-  S191  1  0.93969291  0.74631346  0.84434730  1
  S2-  S192  1  0.00235719  0.12310342  0.45799856  1
  S2-  S193  1  0.00043033  0.13287649  0.95683011  1
  S2-  S194  1  0.00300711  0.37285553  0.45801024  1
  S2-  S195  1  -0.00113243  0.37827640  0.95970232  1
  S2-  S196  1  0.00224679  0.62079276  0.45278654  1
  S2-  S197  1  -0.00788831  0.62531879  0.95140179  1
  S2-  S198  1  0.00582056  0.86074534  0.43971250  1
  S2-  S199  1  -0.00596333  0.88258345  0.95555096  1
  S2-  S200  1  0.24986524  0.12973745  0.46150154  1
  S2-  S201  1  0.24758629  0.12451186  0.94813674  1
  S2-  S202  1  0.24746309  0.37041044  0.45227021  1
  S2-  S203  1  0.24010239  0.38429865  0.95881620  1
  S2-  S204  1  0.24993781  0.61923972  0.46169612  1
  S2-  S205  1  0.23703092  0.63214217  0.95560409  1
  S2-  S206  1  0.24856709  0.87401377  0.44359630  1
  S2-  S207  1  0.24296863  0.87849604  0.95110923  1
  S2-  S208  1  0.49983401  0.12275330  0.45562942  1
  S2-  S209  1  0.49692944  0.12458493  0.94505257  1
  S2-  S210  1  0.49815872  0.37089268  0.46163838  1
  S2-  S211  1  0.49036682  0.38367892  0.95697430  1
  S2-  S212  1  0.49847835  0.62544504  0.44721713  1
  S2-  S213  1  0.49727680  0.63176258  0.95846736  1
  S2-  S214  1  0.49944253  0.86985127  0.46723027  1
  S2-  S215  1  0.49029356  0.87444724  0.95270948  1
  S2-  S216  1  0.74964931  0.12680246  0.46297545  1
  S2-  S217  1  0.73727187  0.12902322  0.94334347  1
  S2-  S218  1  0.75004019  0.37197921  0.45464080  1
  S2-  S219  1  0.73985252  0.37882463  0.95576290  1
  S2-  S220  1  0.74641775  0.61712552  0.45146181  1
  S2-  S221  1  0.74836588  0.62530127  0.95848359  1
  S2-  S222  1  0.74878430  0.87066056  0.45604308  1
  S2-  S223  1  0.74920565  0.88128702  0.95457405  1
  S2-  S224  1  0.12277514  0.00657836  0.04443436  1
  S2-  S225  1  0.12220912  -0.00455002  0.53532564  1
  S2-  S226  1  0.11835621  0.24833924  0.04404806  1
  S2-  S227  1  0.12214025  0.24882033  0.55431588  1
  S2-  S228  1  0.11671404  0.50948494  0.04570635  1
  S2-  S229  1  0.12226389  0.49847939  0.55044610  1
  S2-  S230  1  0.11699869  0.75855894  0.04661818  1
  S2-  S231  1  0.12427152  0.74775941  0.54796148  1
  S2-  S232  1  0.37035534  0.00469739  0.04075714  1
  S2-  S233  1  0.37438410  -0.00031903  0.54477868  1
  S2-  S234  1  0.37063147  0.25451817  0.04070583  1
  S2-  S235  1  0.37349599  0.24863255  0.55253859  1
  S2-  S236  1  0.36600473  0.51049928  0.04743174  1
  S2-  S237  1  0.37572948  0.49388533  0.55018021  1
  S2-  S238  1  0.36380747  0.75511311  0.03964899  1
  S2-  S239  1  0.37248670  0.74576465  0.54214492  1
  S2-  S240  1  0.61756740  0.00135408  0.03853331  1
  S2-  S241  1  0.62870750  -0.00519230  0.54891321  1
  S2-  S242  1  0.61963423  0.25752247  0.03959641  1
  S2-  S243  1  0.62647278  0.24160475  0.55240697  1
  S2-  S244  1  0.62292796  0.50361537  0.05238929  1
  S2-  S245  1  0.62440547  0.49933807  0.54788409  1
  S2-  S246  1  0.62686297  0.75673339  0.04807223  1
  S2-  S247  1  0.62691751  0.74186766  0.54410210  1
  S2-  S248  1  0.86828773  0.00775494  0.04026646  1
  S2-  S249  1  0.87380644  -0.00245937  0.53551645  1
  S2-  S250  1  0.86755287  0.25334836  0.04273340  1
  S2-  S251  1  0.87801198  0.24707360  0.54738513  1
  S2-  S252  1  0.87076418  0.50166913  0.05363932  1
  S2-  S253  1  0.87546868  0.50017996  0.54443319  1
  S2-  S254  1  0.87020208  0.75742261  0.04841471  1
  S2-  S255  1  0.87031635  0.74463149  0.52900186  1
