# generated using pymatgen
data_La9Ce10Pr6Nd4Sm3(BiS2)32
_symmetry_space_group_name_H-M   'P 1'
_cell_length_a   16.18500138
_cell_length_b   16.19544819
_cell_length_c   27.10841492
_cell_angle_alpha   90.03939574
_cell_angle_beta   89.94914439
_cell_angle_gamma   89.97916139
_symmetry_Int_Tables_number   1
_chemical_formula_structural   La9Ce10Pr6Nd4Sm3(BiS2)32
_chemical_formula_sum   'La18 Ce20 Pr12 Nd8 Sm6 Bi64 S128'
_cell_volume   7105.74361426
_cell_formula_units_Z   2
loop_
 _symmetry_equiv_pos_site_id
 _symmetry_equiv_pos_as_xyz
  1  'x, y, z'
loop_
 _atom_type_symbol
 _atom_type_oxidation_number
  La3+  3.0
  Ce3+  3.0
  Pr3+  3.0
  Nd3+  3.0
  Sm3+  3.0
  Bi2+  2.0
  S2-  -2.0
loop_
 _atom_site_type_symbol
 _atom_site_label
 _atom_site_symmetry_multiplicity
 _atom_site_fract_x
 _atom_site_fract_y
 _atom_site_fract_z
 _atom_site_occupancy
  La3+  La0  1  0.48320707  0.62150266  0.57888066  1
  La3+  La1  1  -0.00535207  0.63753251  0.08538040  1
  La3+  La2  1  0.63075206  0.49956004  0.93158356  1
  La3+  La3  1  -0.00963815  0.63265994  0.54597076  1
  La3+  La4  1  0.25567582  0.37164934  0.06596064  1
  La3+  La5  1  0.37463453  0.00570990  0.91548734  1
  La3+  La6  1  0.26162324  0.62061399  0.08776691  1
  La3+  La7  1  0.26711658  0.88565745  0.08919258  1
  La3+  La8  1  0.85388437  0.76289711  0.41164121  1
  La3+  La9  1  0.23475921  0.88647908  0.58382604  1
  La3+  La10  1  0.74095420  0.88581446  0.57643518  1
  La3+  La11  1  -0.01040001  0.87783767  0.55792535  1
  La3+  La12  1  0.12379643  0.50124219  0.94778410  1
  La3+  La13  1  0.13379976  0.75092122  0.95723234  1
  La3+  La14  1  0.62477242  0.74512965  0.91694454  1
  La3+  La15  1  0.35988088  0.74112173  0.90863189  1
  La3+  La16  1  0.87511541  0.24834903  0.90287990  1
  La3+  La17  1  0.12575631  0.76234496  0.41309627  1
  Ce3+  Ce18  1  0.73963902  0.38273223  0.56317521  1
  Ce3+  Ce19  1  0.61202008  0.25515459  0.44568437  1
  Ce3+  Ce20  1  0.73968788  0.13167176  0.55939825  1
  Ce3+  Ce21  1  0.11409641  0.25675720  0.43217118  1
  Ce3+  Ce22  1  0.50156083  0.37322829  0.05271305  1
  Ce3+  Ce23  1  0.49532354  0.87236923  0.03975740  1
  Ce3+  Ce24  1  0.11761030  0.25132794  0.94685134  1
  Ce3+  Ce25  1  0.36526487  0.51235786  0.43696328  1
  Ce3+  Ce26  1  0.88016380  0.74710294  0.93634751  1
  Ce3+  Ce27  1  0.87870598  -0.00824102  0.93115700  1
  Ce3+  Ce28  1  -0.00000443  0.12046087  0.06342094  1
  Ce3+  Ce29  1  0.49627617  0.62819605  0.04892918  1
  Ce3+  Ce30  1  0.36625992  0.25705938  0.43962380  1
  Ce3+  Ce31  1  0.48810609  0.38256577  0.55295726  1
  Ce3+  Ce32  1  0.61537755  0.75866230  0.45560496  1
  Ce3+  Ce33  1  0.37730735  0.25035638  0.93257320  1
  Ce3+  Ce34  1  0.37475861  0.49639065  0.93561104  1
  Ce3+  Ce35  1  0.86293004  0.00275956  0.43634340  1
  Ce3+  Ce36  1  0.25250750  0.12296656  0.05063226  1
  Ce3+  Ce37  1  0.61734516  0.51145784  0.43790089  1
  Pr3+  Pr38  1  0.36371558  0.75847245  0.45215232  1
  Pr3+  Pr39  1  0.12415812  -0.00050893  0.93894321  1
  Pr3+  Pr40  1  0.85970676  0.50741059  0.43006885  1
  Pr3+  Pr41  1  0.75022692  0.37480826  0.06504796  1
  Pr3+  Pr42  1  0.75067374  0.12233120  0.05417618  1
  Pr3+  Pr43  1  0.23928452  0.13294430  0.56080081  1
  Pr3+  Pr44  1  0.62739185  -0.00658536  0.91874882  1
  Pr3+  Pr45  1  -0.00506197  0.38245783  0.56114515  1
  Pr3+  Pr46  1  0.86222164  0.25598808  0.44251323  1
  Pr3+  Pr47  1  0.74658981  0.62915384  0.06683451  1
  Pr3+  Pr48  1  0.63021228  0.24664967  0.93741676  1
  Pr3+  Pr49  1  0.48818453  0.13501315  0.57581842  1
  Nd3+  Nd50  1  0.73972446  0.62482468  0.56706612  1
  Nd3+  Nd51  1  -0.00176695  0.37675024  0.07081172  1
  Nd3+  Nd52  1  0.11485867  0.00702315  0.43738857  1
  Nd3+  Nd53  1  -0.01006874  0.13156524  0.55580662  1
  Nd3+  Nd54  1  0.49857323  0.11811708  0.05490183  1
  Nd3+  Nd55  1  0.36546104  0.00497878  0.44822401  1
  Nd3+  Nd56  1  -0.00109836  0.88120154  0.06846681  1
  Nd3+  Nd57  1  0.48991125  0.88563688  0.58479814  1
  Sm3+  Sm58  1  0.61215743  0.00559074  0.44835168  1
  Sm3+  Sm59  1  0.74639677  0.87513564  0.04885096  1
  Sm3+  Sm60  1  0.87877824  0.50369080  0.94271636  1
  Sm3+  Sm61  1  0.23741668  0.38310359  0.54977710  1
  Sm3+  Sm62  1  0.23465117  0.63182544  0.55798018  1
  Sm3+  Sm63  1  0.10515329  0.49858607  0.41157742  1
  Bi2+  Bi64  1  0.06481545  0.13679679  0.32054623  1
  Bi2+  Bi65  1  0.05255933  0.10890792  0.80209931  1
  Bi2+  Bi66  1  0.00053159  0.35385717  0.28471085  1
  Bi2+  Bi67  1  0.00578325  0.38531137  0.78867413  1
  Bi2+  Bi68  1  -0.00582964  0.60860681  0.28397534  1
  Bi2+  Bi69  1  -0.03763375  0.66498042  0.74558517  1
  Bi2+  Bi70  1  -0.00394001  0.96351832  0.29256795  1
  Bi2+  Bi71  1  -0.01277458  0.85292478  0.77420674  1
  Bi2+  Bi72  1  0.25413001  0.12493716  0.28669544  1
  Bi2+  Bi73  1  0.25763981  0.19161143  0.77521873  1
  Bi2+  Bi74  1  0.27843248  0.32152988  0.28948459  1
  Bi2+  Bi75  1  0.21766734  0.38732229  0.79130117  1
  Bi2+  Bi76  1  0.29609252  0.64095993  0.28723159  1
  Bi2+  Bi77  1  0.20426379  0.60574848  0.79311557  1
  Bi2+  Bi78  1  0.27000904  0.89237118  0.29514258  1
  Bi2+  Bi79  1  0.23315272  0.85846231  0.78421208  1
  Bi2+  Bi80  1  0.53879734  0.15613825  0.29511020  1
  Bi2+  Bi81  1  0.52901222  0.20610862  0.80737096  1
  Bi2+  Bi82  1  0.54750753  0.42648876  0.26603417  1
  Bi2+  Bi83  1  0.44385108  0.37682816  0.82635288  1
  Bi2+  Bi84  1  0.51456933  0.59262978  0.32605210  1
  Bi2+  Bi85  1  0.49390036  0.56412825  0.80629878  1
  Bi2+  Bi86  1  0.50756889  0.89075460  0.29524055  1
  Bi2+  Bi87  1  0.51266150  0.88543066  0.78161040  1
  Bi2+  Bi88  1  0.82532333  0.13756535  0.30081578  1
  Bi2+  Bi89  1  0.80245218  0.15768744  0.76864610  1
  Bi2+  Bi90  1  0.73468449  0.37655302  0.28875032  1
  Bi2+  Bi91  1  0.72636159  0.40404381  0.80108873  1
  Bi2+  Bi92  1  0.70016239  0.63750296  0.29263003  1
  Bi2+  Bi93  1  0.78892724  0.67356393  0.79967688  1
  Bi2+  Bi94  1  0.70828998  0.89995264  0.29691291  1
  Bi2+  Bi95  1  0.78000128  0.89340650  0.77758026  1
  Bi2+  Bi96  1  0.12613876  0.04507484  0.21067488  1
  Bi2+  Bi97  1  0.10143369  0.01534455  0.70495068  1
  Bi2+  Bi98  1  0.18021089  0.24599389  0.19827122  1
  Bi2+  Bi99  1  0.10537545  0.26548529  0.71705537  1
  Bi2+  Bi100  1  0.14883526  0.49088009  0.22120631  1
  Bi2+  Bi101  1  0.12649746  0.50700220  0.68049115  1
  Bi2+  Bi102  1  0.11607872  0.76082850  0.21945843  1
  Bi2+  Bi103  1  0.14642172  0.74497146  0.69921715  1
  Bi2+  Bi104  1  0.40332885  0.00838056  0.19903316  1
  Bi2+  Bi105  1  0.36888561  0.05527578  0.71832736  1
  Bi2+  Bi106  1  0.37634158  0.23169475  0.20283606  1
  Bi2+  Bi107  1  0.38800735  0.23507259  0.68599295  1
  Bi2+  Bi108  1  0.40752471  0.49621708  0.20123458  1
  Bi2+  Bi109  1  0.36861108  0.42894351  0.72116165  1
  Bi2+  Bi110  1  0.46796006  0.72199000  0.24361239  1
  Bi2+  Bi111  1  0.39130320  0.70589435  0.71235262  1
  Bi2+  Bi112  1  0.61537507  -0.08503120  0.19933670  1
  Bi2+  Bi113  1  0.63930632  0.06798584  0.72032479  1
  Bi2+  Bi114  1  0.68347222  0.19537271  0.22426978  1
  Bi2+  Bi115  1  0.58686970  0.24710709  0.69457262  1
  Bi2+  Bi116  1  0.65722364  0.52192800  0.18798035  1
  Bi2+  Bi117  1  0.57597838  0.43917952  0.73137617  1
  Bi2+  Bi118  1  0.63666852  0.71688074  0.18440998  1
  Bi2+  Bi119  1  0.65567975  0.71447252  0.72130402  1
  Bi2+  Bi120  1  0.86421491  0.02267771  0.21156153  1
  Bi2+  Bi121  1  0.90621455  0.03212543  0.70322774  1
  Bi2+  Bi122  1  0.96545407  0.19588201  0.22032134  1
  Bi2+  Bi123  1  0.78518152  0.30615722  0.69415842  1
  Bi2+  Bi124  1  0.84069651  0.45803681  0.20181185  1
  Bi2+  Bi125  1  0.85685690  0.48293673  0.72558147  1
  Bi2+  Bi126  1  0.85132511  0.75623177  0.21035503  1
  Bi2+  Bi127  1  0.87035667  0.82207828  0.68151490  1
  S2-  S128  1  -0.00117650  0.01187818  0.14095218  1
  S2-  S129  1  0.00960286  0.15381628  0.65468663  1
  S2-  S130  1  -0.00300815  0.40206771  0.17144089  1
  S2-  S131  1  -0.01483755  0.43376756  0.65770199  1
  S2-  S132  1  0.05649129  0.60314791  0.18108748  1
  S2-  S133  1  0.03204684  0.64400278  0.64500751  1
  S2-  S134  1  -0.02062886  0.79150842  0.15461715  1
  S2-  S135  1  0.08434038  0.87719746  0.64417058  1
  S2-  S136  1  0.27192173  0.05088891  0.13791046  1
  S2-  S137  1  0.23792579  0.04235904  0.64818986  1
  S2-  S138  1  0.25703158  0.46853163  0.15051020  1
  S2-  S139  1  0.18899998  0.36799680  0.64479285  1
  S2-  S140  1  0.24182215  0.66959643  0.19113928  1
  S2-  S141  1  0.27606147  0.61093597  0.65479313  1
  S2-  S142  1  0.22241593  0.87259647  0.19134228  1
  S2-  S143  1  0.28432099  0.83476269  0.68097350  1
  S2-  S144  1  0.49463898  0.12773711  0.15601596  1
  S2-  S145  1  0.49632051  0.02316364  0.65592057  1
  S2-  S146  1  0.44787890  0.35940446  0.14551935  1
  S2-  S147  1  0.47507896  0.45614561  0.64036723  1
  S2-  S148  1  0.42497261  0.62535852  0.13812014  1
  S2-  S149  1  0.53596674  0.63533620  0.67569806  1
  S2-  S150  1  0.43446096  0.88981831  0.13268511  1
  S2-  S151  1  0.48543445  0.82463226  0.68227597  1
  S2-  S152  1  0.73241175  0.08652821  0.15315238  1
  S2-  S153  1  0.75522710  0.05164714  0.64545672  1
  S2-  S154  1  0.74780904  0.32908803  0.16360324  1
  S2-  S155  1  0.73966650  0.46767535  0.64677312  1
  S2-  S156  1  0.84899764  0.62350079  0.15167390  1
  S2-  S157  1  0.78346711  0.67211979  0.65975838  1
  S2-  S158  1  0.75810042  0.85850599  0.14763166  1
  S2-  S159  1  0.69658732  0.86127330  0.67585842  1
  S2-  S160  1  0.14053218  -0.08004656  0.35244022  1
  S2-  S161  1  0.13569510  -0.02204603  0.83775793  1
  S2-  S162  1  0.12860720  0.35353557  0.35056517  1
  S2-  S163  1  0.04172565  0.25852497  0.85847993  1
  S2-  S164  1  0.15428954  0.56376247  0.32185970  1
  S2-  S165  1  0.09905353  0.50668064  0.84652696  1
  S2-  S166  1  0.04835414  0.74811539  0.31951610  1
  S2-  S167  1  0.19217018  0.73943260  0.85749309  1
  S2-  S168  1  0.37955612  -0.02067211  0.34888108  1
  S2-  S169  1  0.36067852  -0.06197961  0.81919855  1
  S2-  S170  1  0.40424297  0.23698044  0.34429764  1
  S2-  S171  1  0.37646797  0.15295031  0.85108764  1
  S2-  S172  1  0.36480941  0.50249300  0.33873012  1
  S2-  S173  1  0.33549990  0.58350218  0.85310824  1
  S2-  S174  1  0.28634222  0.76207396  0.36040536  1
  S2-  S175  1  0.46131492  0.74761779  0.82160685  1
  S2-  S176  1  0.61103787  0.02632625  0.34887434  1
  S2-  S177  1  0.56788912  0.04386280  0.82449638  1
  S2-  S178  1  0.63055201  0.26658742  0.34836889  1
  S2-  S179  1  0.71686552  0.24987002  0.84837515  1
  S2-  S180  1  0.72683507  0.50140425  0.35969069  1
  S2-  S181  1  0.64277590  0.60654414  0.84988148  1
  S2-  S182  1  0.67954579  0.76898331  0.36367001  1
  S2-  S183  1  0.65428582  0.86472822  0.84150302  1
  S2-  S184  1  0.85888368  -0.08980590  0.35181326  1
  S2-  S185  1  0.89249279  -0.13694312  0.85884625  1
  S2-  S186  1  0.86572000  0.28990335  0.34306059  1
  S2-  S187  1  0.89138708  0.09289959  0.84990307  1
  S2-  S188  1  0.96330009  0.48364880  0.34884822  1
  S2-  S189  1  0.87591835  0.40685482  0.85644907  1
  S2-  S190  1  0.85337561  0.67485761  0.32260979  1
  S2-  S191  1  0.89744484  0.62404140  0.86808435  1
  S2-  S192  1  -0.01276291  0.12977452  0.44902588  1
  S2-  S193  1  -0.00216079  0.12463877  0.95884017  1
  S2-  S194  1  -0.01056428  0.37831352  0.45390871  1
  S2-  S195  1  -0.00418052  0.37576578  0.96378155  1
  S2-  S196  1  -0.00941213  0.63515673  0.43898641  1
  S2-  S197  1  0.00483351  0.62731568  0.97214247  1
  S2-  S198  1  -0.00895151  0.87951477  0.45015803  1
  S2-  S199  1  0.00603426  0.87336558  0.96115115  1
  S2-  S200  1  0.24134341  0.13139111  0.45096946  1
  S2-  S201  1  0.24357733  0.12945204  0.94598484  1
  S2-  S202  1  0.24309658  0.38402512  0.44678804  1
  S2-  S203  1  0.24898908  0.37146610  0.95379179  1
  S2-  S204  1  0.23642282  0.62850288  0.45151984  1
  S2-  S205  1  0.25110752  0.61953447  0.96642224  1
  S2-  S206  1  0.24205193  0.88627697  0.46621345  1
  S2-  S207  1  0.25426438  0.87929320  0.94534972  1
  S2-  S208  1  0.48961614  0.13068768  0.46213179  1
  S2-  S209  1  0.50698774  0.12225286  0.94850654  1
  S2-  S210  1  0.49061022  0.38505048  0.44631672  1
  S2-  S211  1  0.50543793  0.37336121  0.94773530  1
  S2-  S212  1  0.48983948  0.63397808  0.46427892  1
  S2-  S213  1  0.49612297  0.62419198  0.94519533  1
  S2-  S214  1  0.49041006  0.88270577  0.46559324  1
  S2-  S215  1  0.49544776  0.87128783  0.93509635  1
  S2-  S216  1  0.73732463  0.12892170  0.45275419  1
  S2-  S217  1  0.75093282  0.11821878  0.94774250  1
  S2-  S218  1  0.73718144  0.37819957  0.45751662  1
  S2-  S219  1  0.75346482  0.37430953  0.95774219  1
  S2-  S220  1  0.74040179  0.63602124  0.45889950  1
  S2-  S221  1  0.74998937  0.62405794  0.95968143  1
  S2-  S222  1  0.73647480  0.88672918  0.46429458  1
  S2-  S223  1  0.74865628  0.86987224  0.94789815  1
  S2-  S224  1  0.13225112  -0.00365022  0.04515270  1
  S2-  S225  1  0.11296620  0.01058667  0.54300990  1
  S2-  S226  1  0.12380722  0.24900103  0.05463909  1
  S2-  S227  1  0.11561277  0.25522202  0.54021117  1
  S2-  S228  1  0.12368938  0.49924764  0.05673020  1
  S2-  S229  1  0.11728265  0.50552981  0.53630658  1
  S2-  S230  1  0.13652743  0.75752645  0.06451244  1
  S2-  S231  1  0.11944721  0.75554194  0.53880233  1
  S2-  S232  1  0.37560513  0.00180919  0.02821867  1
  S2-  S233  1  0.36740011  0.00682377  0.55348094  1
  S2-  S234  1  0.37779600  0.24524925  0.04009866  1
  S2-  S235  1  0.36247820  0.25914571  0.54707204  1
  S2-  S236  1  0.37870463  0.49516538  0.04038786  1
  S2-  S237  1  0.35680142  0.50582958  0.54303410  1
  S2-  S238  1  0.37035257  0.75223432  0.04007260  1
  S2-  S239  1  0.36416456  0.75657684  0.55883992  1
  S2-  S240  1  0.62301401  -0.00387826  0.03557943  1
  S2-  S241  1  0.61196354  0.00826916  0.55235312  1
  S2-  S242  1  0.62428507  0.24636339  0.04688685  1
  S2-  S243  1  0.61384336  0.25722901  0.55318098  1
  S2-  S244  1  0.62376404  0.50044578  0.04320230  1
  S2-  S245  1  0.61396474  0.50598825  0.54442921  1
  S2-  S246  1  0.62275142  0.75111395  0.03600942  1
  S2-  S247  1  0.61197710  0.75555021  0.56146043  1
  S2-  S248  1  0.87091321  -0.00340383  0.04010118  1
  S2-  S249  1  0.86816163  0.00750637  0.54341281  1
  S2-  S250  1  0.87600194  0.24710911  0.06142664  1
  S2-  S251  1  0.86624134  0.25686119  0.55112274  1
  S2-  S252  1  0.87384631  0.49923782  0.05049373  1
  S2-  S253  1  0.86649158  0.50503442  0.54078054  1
  S2-  S254  1  0.87012866  0.75520901  0.04435284  1
  S2-  S255  1  0.86165561  0.75599103  0.54422608  1
