# generated using pymatgen
data_La9Ce10Pr6Nd4Sm3(BiS2)32
_symmetry_space_group_name_H-M   'P 1'
_cell_length_a   16.11759797
_cell_length_b   16.15447263
_cell_length_c   27.00990649
_cell_angle_alpha   89.74041220
_cell_angle_beta   89.96687490
_cell_angle_gamma   89.91893298
_symmetry_Int_Tables_number   1
_chemical_formula_structural   La9Ce10Pr6Nd4Sm3(BiS2)32
_chemical_formula_sum   'La18 Ce20 Pr12 Nd8 Sm6 Bi64 S128'
_cell_volume   7032.52396976
_cell_formula_units_Z   2
loop_
 _symmetry_equiv_pos_site_id
 _symmetry_equiv_pos_as_xyz
  1  'x, y, z'
loop_
 _atom_type_symbol
 _atom_type_oxidation_number
  La3+  3.0
  Ce3+  3.0
  Pr3+  3.0
  Nd3+  3.0
  Sm3+  3.0
  Bi2+  2.0
  S2-  -2.0
loop_
 _atom_site_type_symbol
 _atom_site_label
 _atom_site_symmetry_multiplicity
 _atom_site_fract_x
 _atom_site_fract_y
 _atom_site_fract_z
 _atom_site_occupancy
  La3+  La0  1  0.35474065  0.52251659  0.42200826  1
  La3+  La1  1  0.24021132  0.39307037  0.58304366  1
  La3+  La2  1  0.72870303  0.39325857  0.56872724  1
  La3+  La3  1  0.73275870  0.88904543  0.56684516  1
  La3+  La4  1  0.76631793  0.10538073  0.06590684  1
  La3+  La5  1  -0.01803514  0.89192690  0.57587910  1
  La3+  La6  1  0.24866049  0.64592676  0.58132091  1
  La3+  La7  1  0.61011206  0.27077012  0.42892552  1
  La3+  La8  1  0.86425396  0.50654988  0.42369423  1
  La3+  La9  1  0.13614685  0.49194885  0.91590387  1
  La3+  La10  1  -0.01577365  0.38973814  0.59065118  1
  La3+  La11  1  0.26791683  0.59807516  0.06693501  1
  La3+  La12  1  0.39740998  0.48647593  0.92132928  1
  La3+  La13  1  0.72552449  0.14147284  0.57103229  1
  La3+  La14  1  0.26090431  0.11176020  0.06852142  1
  La3+  La15  1  0.39194573  0.23288486  0.90639172  1
  La3+  La16  1  0.64447603  0.48329347  0.93787442  1
  La3+  La17  1  0.13811956  0.22730614  0.91836634  1
  Ce3+  Ce18  1  0.23965707  0.88972307  0.56657606  1
  Ce3+  Ce19  1  0.11214102  0.76462757  0.44906304  1
  Ce3+  Ce20  1  0.48102008  0.39307732  0.55871885  1
  Ce3+  Ce21  1  0.89393053  0.48677825  0.94035352  1
  Ce3+  Ce22  1  0.01689341  0.85695588  0.05452220  1
  Ce3+  Ce23  1  0.14407387  0.72953827  0.94999119  1
  Ce3+  Ce24  1  0.76669410  0.35620898  0.05789020  1
  Ce3+  Ce25  1  0.23704957  0.13799082  0.56164251  1
  Ce3+  Ce26  1  0.39017881  0.73096239  0.93679229  1
  Ce3+  Ce27  1  0.11750107  0.51512831  0.44897142  1
  Ce3+  Ce28  1  0.86264138  0.26870725  0.45024900  1
  Ce3+  Ce29  1  0.61828664  0.02200722  0.42221592  1
  Ce3+  Ce30  1  0.36270303  0.76686570  0.43900702  1
  Ce3+  Ce31  1  0.51434098  0.85725554  0.05780098  1
  Ce3+  Ce32  1  0.64689245  0.22977172  0.92830301  1
  Ce3+  Ce33  1  0.11084501  0.26819658  0.44943229  1
  Ce3+  Ce34  1  0.01719953  0.59763260  0.07335360  1
  Ce3+  Ce35  1  0.26754890  0.35382630  0.04874591  1
  Ce3+  Ce36  1  0.48509567  0.13984174  0.55365780  1
  Ce3+  Ce37  1  0.35764893  0.26433112  0.43802749  1
  Pr3+  Pr38  1  0.86100085  0.01742080  0.44000511  1
  Pr3+  Pr39  1  0.73356217  0.63744631  0.55367167  1
  Pr3+  Pr40  1  0.51780250  0.35351140  0.05980188  1
  Pr3+  Pr41  1  0.77467773  0.60911218  0.07834106  1
  Pr3+  Pr42  1  0.14558866  -0.02067999  0.93156225  1
  Pr3+  Pr43  1  -0.01460652  0.63492330  0.56042657  1
  Pr3+  Pr44  1  0.35518804  0.01283425  0.42867837  1
  Pr3+  Pr45  1  0.89113801  0.23075327  0.92859594  1
  Pr3+  Pr46  1  0.89221059  0.72976915  0.94047898  1
  Pr3+  Pr47  1  0.26763890  0.85886644  0.07045392  1
  Pr3+  Pr48  1  0.39094346  -0.01725786  0.93298620  1
  Pr3+  Pr49  1  0.02044722  0.35411089  0.05945951  1
  Nd3+  Nd50  1  0.49230924  0.89225858  0.55862962  1
  Nd3+  Nd51  1  0.10578414  0.01716399  0.43866349  1
  Nd3+  Nd52  1  0.60763900  0.51539444  0.42196274  1
  Nd3+  Nd53  1  0.51396187  0.10842473  0.05344908  1
  Nd3+  Nd54  1  0.62007148  0.76446600  0.42180534  1
  Nd3+  Nd55  1  0.51634494  0.60446122  0.06533491  1
  Nd3+  Nd56  1  0.64422408  0.73340393  0.94912010  1
  Nd3+  Nd57  1  -0.01343154  0.13576341  0.57475768  1
  Sm3+  Sm58  1  0.01547756  0.10235549  0.05326350  1
  Sm3+  Sm59  1  0.64361990  -0.01943708  0.94154188  1
  Sm3+  Sm60  1  0.76874561  0.85848465  0.06607619  1
  Sm3+  Sm61  1  0.88997726  -0.02597174  0.92657520  1
  Sm3+  Sm62  1  0.49482184  0.64036746  0.55652708  1
  Sm3+  Sm63  1  0.86171507  0.76522180  0.43837079  1
  Bi2+  Bi64  1  0.04356141  0.12809756  0.23881460  1
  Bi2+  Bi65  1  -0.01381669  0.12783554  0.78437566  1
  Bi2+  Bi66  1  0.00165977  0.33315475  0.29560546  1
  Bi2+  Bi67  1  -0.08459884  0.38357495  0.79198061  1
  Bi2+  Bi68  1  -0.02935632  0.57028921  0.30077835  1
  Bi2+  Bi69  1  -0.07803432  0.65907880  0.81184558  1
  Bi2+  Bi70  1  0.02440449  0.93035156  0.28369259  1
  Bi2+  Bi71  1  0.04647652  0.88007044  0.77419703  1
  Bi2+  Bi72  1  0.22146377  0.11836472  0.29481504  1
  Bi2+  Bi73  1  0.24693762  0.07733083  0.78433349  1
  Bi2+  Bi74  1  0.18882824  0.38867359  0.28126206  1
  Bi2+  Bi75  1  0.28332733  0.33928261  0.76531436  1
  Bi2+  Bi76  1  0.21904032  0.63767346  0.29339444  1
  Bi2+  Bi77  1  0.24425382  0.67888568  0.78877053  1
  Bi2+  Bi78  1  0.25348176  0.85527146  0.29771102  1
  Bi2+  Bi79  1  0.22472681  0.86683192  0.82099369  1
  Bi2+  Bi80  1  0.52214294  0.06449879  0.28433079  1
  Bi2+  Bi81  1  0.47903402  0.15679863  0.76996470  1
  Bi2+  Bi82  1  0.49787213  0.35075184  0.28790267  1
  Bi2+  Bi83  1  0.52442146  0.40023531  0.77931068  1
  Bi2+  Bi84  1  0.47633398  0.63166378  0.28402574  1
  Bi2+  Bi85  1  0.50600778  0.69269839  0.79551607  1
  Bi2+  Bi86  1  0.48939112  0.88972596  0.33895078  1
  Bi2+  Bi87  1  0.42277046  0.86999663  0.81597483  1
  Bi2+  Bi88  1  0.86086657  0.12486957  0.31174166  1
  Bi2+  Bi89  1  0.66512476  0.11665477  0.73119805  1
  Bi2+  Bi90  1  0.72956225  0.26427846  0.29855099  1
  Bi2+  Bi91  1  0.72146333  0.35815721  0.81075247  1
  Bi2+  Bi92  1  0.73401259  0.66757635  0.27778473  1
  Bi2+  Bi93  1  0.75933668  0.55128379  0.82721250  1
  Bi2+  Bi94  1  0.68743642  0.93123402  0.27134579  1
  Bi2+  Bi95  1  0.73468306  0.87880975  0.81033705  1
  Bi2+  Bi96  1  0.14870883  -0.12744390  0.19868432  1
  Bi2+  Bi97  1  0.17726562  -0.06283663  0.69640946  1
  Bi2+  Bi98  1  0.13088396  0.27979618  0.18337547  1
  Bi2+  Bi99  1  0.09793819  0.25010473  0.72421316  1
  Bi2+  Bi100  1  0.12938630  0.52783994  0.20498822  1
  Bi2+  Bi101  1  0.11140833  0.50688802  0.73158149  1
  Bi2+  Bi102  1  0.04280914  0.70451783  0.21599123  1
  Bi2+  Bi103  1  0.04182733  0.70930567  0.71964001  1
  Bi2+  Bi104  1  0.39181238  0.00709129  0.20592885  1
  Bi2+  Bi105  1  0.37393040  -0.02699864  0.69154230  1
  Bi2+  Bi106  1  0.31547720  0.25751603  0.23781649  1
  Bi2+  Bi107  1  0.37242474  0.17099294  0.67838468  1
  Bi2+  Bi108  1  0.36884064  0.51349912  0.19638064  1
  Bi2+  Bi109  1  0.38841827  0.50942049  0.70200055  1
  Bi2+  Bi110  1  0.35669297  0.79907884  0.20617374  1
  Bi2+  Bi111  1  0.37879797  0.77292893  0.71326888  1
  Bi2+  Bi112  1  0.67764261  0.07416722  0.19140836  1
  Bi2+  Bi113  1  0.55875457  -0.05047106  0.73882663  1
  Bi2+  Bi114  1  0.59107843  0.24153029  0.19582615  1
  Bi2+  Bi115  1  0.63963057  0.30565730  0.69901864  1
  Bi2+  Bi116  1  0.61500088  0.47432725  0.19996080  1
  Bi2+  Bi117  1  0.63198338  0.57401257  0.73050700  1
  Bi2+  Bi118  1  0.55157147  0.80242166  0.24232190  1
  Bi2+  Bi119  1  0.64779777  0.76826070  0.70766881  1
  Bi2+  Bi120  1  0.86173687  -0.06747585  0.21024116  1
  Bi2+  Bi121  1  0.89581878  -0.01434986  0.72080816  1
  Bi2+  Bi122  1  0.87923595  0.24388184  0.21918449  1
  Bi2+  Bi123  1  0.83372343  0.25792447  0.71395229  1
  Bi2+  Bi124  1  0.87981632  0.51198367  0.20675623  1
  Bi2+  Bi125  1  0.82757298  0.53730322  0.71530621  1
  Bi2+  Bi126  1  0.92109692  0.76706080  0.30288036  1
  Bi2+  Bi127  1  0.84402577  0.73590506  0.71220340  1
  S2-  S128  1  0.09960687  0.12830793  0.13822932  1
  S2-  S129  1  -0.02167399  0.23881587  0.65749483  1
  S2-  S130  1  0.00878114  0.45581593  0.14543915  1
  S2-  S131  1  0.11718149  0.38149035  0.66204611  1
  S2-  S132  1  -0.08740512  0.64679302  0.14948785  1
  S2-  S133  1  -0.00159174  0.57307859  0.65613707  1
  S2-  S134  1  0.00058084  0.91287578  0.14619163  1
  S2-  S135  1  0.01331529  1.01213124  0.65086523  1
  S2-  S136  1  0.27919637  0.24768014  0.13389544  1
  S2-  S137  1  0.20615216  0.15775830  0.65983138  1
  S2-  S138  1  0.26027460  0.45841538  0.13370822  1
  S2-  S139  1  0.37711670  0.36384011  0.65044708  1
  S2-  S140  1  0.29411162  0.66476177  0.16351415  1
  S2-  S141  1  0.23867418  0.53626777  0.66371596  1
  S2-  S142  1  0.26637398  0.98556661  0.14435005  1
  S2-  S143  1  0.23211115  0.79053162  0.64985999  1
  S2-  S144  1  0.47904469  0.13535671  0.15142254  1
  S2-  S145  1  0.57869495  0.13966537  0.63710129  1
  S2-  S146  1  0.47802925  0.38862136  0.15883576  1
  S2-  S147  1  0.59170262  0.42097983  0.63480248  1
  S2-  S148  1  0.51182583  0.60342401  0.16713038  1
  S2-  S149  1  0.40806834  0.64343597  0.64540811  1
  S2-  S150  1  0.49710963  0.88928263  0.15417949  1
  S2-  S151  1  0.60244936  0.89542160  0.63847484  1
  S2-  S152  1  0.84040655  0.09771716  0.15854386  1
  S2-  S153  1  0.79624515  0.10030109  0.66463401  1
  S2-  S154  1  0.71176728  0.35399981  0.15163062  1
  S2-  S155  1  0.83932567  0.40373122  0.65319710  1
  S2-  S156  1  0.72452299  0.58908389  0.17834765  1
  S2-  S157  1  0.62345464  0.64929228  0.63345942  1
  S2-  S158  1  0.75336941  0.83898815  0.16442591  1
  S2-  S159  1  0.84826030  0.87284530  0.64785330  1
  S2-  S160  1  0.21251742  -0.01344119  0.35948131  1
  S2-  S161  1  0.11926683  0.07216280  0.84596371  1
  S2-  S162  1  0.11157841  0.22843359  0.35209278  1
  S2-  S163  1  0.00377320  0.26079603  0.84874452  1
  S2-  S164  1  0.20382107  0.50762147  0.36108671  1
  S2-  S165  1  0.18034474  0.44825728  0.81289352  1
  S2-  S166  1  0.13798514  0.75380892  0.35031759  1
  S2-  S167  1  0.13615885  0.65673528  0.86076672  1
  S2-  S168  1  0.37475720  0.09448968  0.33709283  1
  S2-  S169  1  0.38922923  0.07715535  0.84547110  1
  S2-  S170  1  0.36207164  0.29837209  0.34030747  1
  S2-  S171  1  0.24860410  0.22988952  0.83459007  1
  S2-  S172  1  0.43887214  0.49047482  0.32791964  1
  S2-  S173  1  0.38317134  0.37842299  0.83813460  1
  S2-  S174  1  0.35262417  0.67569230  0.35412910  1
  S2-  S175  1  0.37217700  0.62981870  0.85458478  1
  S2-  S176  1  0.75521866  0.00480159  0.35454324  1
  S2-  S177  1  0.63352911  -0.00924918  0.84213795  1
  S2-  S178  1  0.61481337  0.15861927  0.34972791  1
  S2-  S179  1  0.54304952  0.23909691  0.84735752  1
  S2-  S180  1  0.62838295  0.38958336  0.34908641  1
  S2-  S181  1  0.54749213  0.50217845  0.85328117  1
  S2-  S182  1  0.60557983  0.63874031  0.34634862  1
  S2-  S183  1  0.64776570  0.74865026  0.84806923  1
  S2-  S184  1  0.98248432  0.02545491  0.36329011  1
  S2-  S185  1  0.87537130  0.02748448  0.83041082  1
  S2-  S186  1  0.86896702  0.34750110  0.36137585  1
  S2-  S187  1  0.76603136  0.21653745  0.85509082  1
  S2-  S188  1  0.80334847  0.54722432  0.32696211  1
  S2-  S189  1  0.98224946  0.49908476  0.85493544  1
  S2-  S190  1  0.76489915  0.77796395  0.35385215  1
  S2-  S191  1  0.87901455  0.81838999  0.85285364  1
  S2-  S192  1  -0.01369546  0.14591836  0.46621084  1
  S2-  S193  1  0.00854236  0.09881082  0.94940745  1
  S2-  S194  1  -0.00817006  0.39362227  0.46302531  1
  S2-  S195  1  0.01479520  0.36140824  0.95333813  1
  S2-  S196  1  -0.01445730  0.63878878  0.45072600  1
  S2-  S197  1  0.01519650  0.61043400  0.96497969  1
  S2-  S198  1  -0.01532443  0.88546205  0.46113461  1
  S2-  S199  1  0.01908886  0.85658633  0.94712985  1
  S2-  S200  1  0.23391212  0.13998958  0.45514728  1
  S2-  S201  1  0.26645092  0.10521907  0.95196888  1
  S2-  S202  1  0.23703988  0.38816380  0.46339239  1
  S2-  S203  1  0.26090749  0.36275848  0.94266846  1
  S2-  S204  1  0.23632691  0.64478280  0.46583494  1
  S2-  S205  1  0.26715332  0.60685935  0.95885086  1
  S2-  S206  1  0.23538012  0.88637474  0.46175189  1
  S2-  S207  1  0.26846309  0.85444417  0.95917790  1
  S2-  S208  1  0.48136799  0.13830144  0.44880999  1
  S2-  S209  1  0.52210660  0.10251056  0.94826923  1
  S2-  S210  1  0.47718583  0.39346701  0.44955133  1
  S2-  S211  1  0.52252187  0.35594142  0.95169122  1
  S2-  S212  1  0.48671954  0.64445686  0.45069467  1
  S2-  S213  1  0.51988324  0.61399882  0.95877019  1
  S2-  S214  1  0.48926849  0.89312386  0.45093430  1
  S2-  S215  1  0.51862777  0.85724763  0.95101895  1
  S2-  S216  1  0.73892334  0.14678514  0.45828974  1
  S2-  S217  1  0.77007254  0.09710497  0.95581765  1
  S2-  S218  1  0.73659330  0.39387771  0.45859428  1
  S2-  S219  1  0.77157930  0.35925259  0.95254600  1
  S2-  S220  1  0.74237076  0.63674644  0.44830892  1
  S2-  S221  1  0.76758393  0.61005934  0.96336703  1
  S2-  S222  1  0.73841497  0.88814231  0.45768670  1
  S2-  S223  1  0.76631096  0.85934493  0.95928261  1
  S2-  S224  1  0.14007903  -0.01988068  0.03900252  1
  S2-  S225  1  0.11526014  0.01226066  0.54574370  1
  S2-  S226  1  0.13638591  0.22990995  0.02993689  1
  S2-  S227  1  0.11297186  0.26357095  0.55420947  1
  S2-  S228  1  0.13941065  0.47983022  0.03553049  1
  S2-  S229  1  0.11542832  0.51571739  0.55277965  1
  S2-  S230  1  0.14150108  0.73147505  0.05816881  1
  S2-  S231  1  0.10592956  0.76455669  0.55515073  1
  S2-  S232  1  0.39237021  -0.01754459  0.04106921  1
  S2-  S233  1  0.36294976  0.01234629  0.54398585  1
  S2-  S234  1  0.39630087  0.23197910  0.03201514  1
  S2-  S235  1  0.35918530  0.26130977  0.54395007  1
  S2-  S236  1  0.39954689  0.48116984  0.03652848  1
  S2-  S237  1  0.36364941  0.51974854  0.54253049  1
  S2-  S238  1  0.39263147  0.73258028  0.04794969  1
  S2-  S239  1  0.36967965  0.77074369  0.54531729  1
  S2-  S240  1  0.64108539  -0.02071692  0.04902406  1
  S2-  S241  1  0.61046868  0.01719683  0.53226975  1
  S2-  S242  1  0.64339778  0.22957424  0.04138664  1
  S2-  S243  1  0.60342457  0.26812946  0.53803438  1
  S2-  S244  1  0.64416285  0.48519379  0.04912005  1
  S2-  S245  1  0.60809529  0.51792223  0.52847916  1
  S2-  S246  1  0.64467555  0.73267239  0.05731895  1
  S2-  S247  1  0.61121842  0.76661345  0.53066237  1
  S2-  S248  1  0.89054874  -0.02039578  0.03934127  1
  S2-  S249  1  0.85838810  0.01815268  0.54788387  1
  S2-  S250  1  0.89399166  0.23026358  0.04602981  1
  S2-  S251  1  0.85648898  0.26396321  0.55469255  1
  S2-  S252  1  0.88752491  0.48051640  0.04709877  1
  S2-  S253  1  0.86021552  0.51431129  0.54355861  1
  S2-  S254  1  0.88968059  0.73810590  0.04659989  1
  S2-  S255  1  0.86046989  0.75987681  0.54345045  1
