# generated using pymatgen
data_La9Ce10Pr6Nd4Sm3(BiS2)32
_symmetry_space_group_name_H-M   'P 1'
_cell_length_a   16.23556805
_cell_length_b   16.13988595
_cell_length_c   27.14327924
_cell_angle_alpha   90.05126383
_cell_angle_beta   89.83387765
_cell_angle_gamma   90.08344689
_symmetry_Int_Tables_number   1
_chemical_formula_structural   La9Ce10Pr6Nd4Sm3(BiS2)32
_chemical_formula_sum   'La18 Ce20 Pr12 Nd8 Sm6 Bi64 S128'
_cell_volume   7112.59051327
_cell_formula_units_Z   2
loop_
 _symmetry_equiv_pos_site_id
 _symmetry_equiv_pos_as_xyz
  1  'x, y, z'
loop_
 _atom_type_symbol
 _atom_type_oxidation_number
  La3+  3.0
  Ce3+  3.0
  Pr3+  3.0
  Nd3+  3.0
  Sm3+  3.0
  Bi2+  2.0
  S2-  -2.0
loop_
 _atom_site_type_symbol
 _atom_site_label
 _atom_site_symmetry_multiplicity
 _atom_site_fract_x
 _atom_site_fract_y
 _atom_site_fract_z
 _atom_site_occupancy
  La3+  La0  1  0.12123463  0.73292472  0.42952508  1
  La3+  La1  1  0.63918629  0.77641704  0.91468477  1
  La3+  La2  1  0.14056578  0.27431106  0.90575806  1
  La3+  La3  1  0.38611917  0.26421133  0.92441811  1
  La3+  La4  1  0.25367879  0.14566540  0.07389051  1
  La3+  La5  1  0.63291840  0.26833131  0.92158647  1
  La3+  La6  1  0.36192061  0.00016824  0.41902467  1
  La3+  La7  1  0.88892979  0.26890896  0.91740258  1
  La3+  La8  1  0.51429972  0.89877716  0.08628357  1
  La3+  La9  1  0.37170117  0.73007556  0.41462711  1
  La3+  La10  1  0.11205560  -0.00863068  0.42855122  1
  La3+  La11  1  0.49542246  0.09772024  0.57908762  1
  La3+  La12  1  0.23341749  0.10880910  0.58382212  1
  La3+  La13  1  0.26452027  0.64650505  0.07305118  1
  La3+  La14  1  0.01317658  0.39374688  0.06026990  1
  La3+  La15  1  0.38717447  0.52728909  0.92871740  1
  La3+  La16  1  0.00970696  0.89777863  0.06851445  1
  La3+  La17  1  0.62996294  0.73644778  0.40421072  1
  Ce3+  Ce18  1  0.01548366  0.14621631  0.04406697  1
  Ce3+  Ce19  1  0.24293382  0.36636003  0.56893041  1
  Ce3+  Ce20  1  0.74065355  0.86228277  0.55530353  1
  Ce3+  Ce21  1  0.11999933  0.49234930  0.45065803  1
  Ce3+  Ce22  1  0.24417123  0.62358053  0.56795872  1
  Ce3+  Ce23  1  0.75971548  0.64645427  0.05207085  1
  Ce3+  Ce24  1  -0.00643323  0.36475819  0.56972662  1
  Ce3+  Ce25  1  0.61548593  0.23416099  0.44074046  1
  Ce3+  Ce26  1  0.74024680  0.36340403  0.56261029  1
  Ce3+  Ce27  1  -0.00923498  0.10300664  0.57396624  1
  Ce3+  Ce28  1  0.01089891  0.64591667  0.05507491  1
  Ce3+  Ce29  1  0.87027299  0.23995539  0.45478990  1
  Ce3+  Ce30  1  0.86702356  0.48802329  0.45266158  1
  Ce3+  Ce31  1  0.51010103  0.38732833  0.05525300  1
  Ce3+  Ce32  1  0.63545692  0.01732490  0.94112961  1
  Ce3+  Ce33  1  0.24547545  0.86421479  0.55308610  1
  Ce3+  Ce34  1  0.38751524  0.01938926  0.94871048  1
  Ce3+  Ce35  1  0.49292244  0.36038985  0.56712093  1
  Ce3+  Ce36  1  0.13960693  0.76931386  0.94059148  1
  Ce3+  Ce37  1  0.36986148  0.49064270  0.45236416  1
  Pr3+  Pr38  1  0.51745951  0.14937127  0.07143518  1
  Pr3+  Pr39  1  0.14329832  0.00864162  0.93019212  1
  Pr3+  Pr40  1  0.25702765  0.89754085  0.07512343  1
  Pr3+  Pr41  1  0.88859886  0.02005465  0.93070476  1
  Pr3+  Pr42  1  0.88885369  0.51822158  0.92965352  1
  Pr3+  Pr43  1  0.74110282  0.61734293  0.57231259  1
  Pr3+  Pr44  1  0.61647624  0.48978846  0.44403688  1
  Pr3+  Pr45  1  0.49174886  0.61880598  0.56607043  1
  Pr3+  Pr46  1  0.76076646  0.39267154  0.05427469  1
  Pr3+  Pr47  1  0.76108928  0.89315222  0.06335315  1
  Pr3+  Pr48  1  0.26411179  0.38966561  0.05491736  1
  Pr3+  Pr49  1  0.86882983  0.73164300  0.43660269  1
  Nd3+  Nd50  1  0.86949367  -0.01021707  0.43863688  1
  Nd3+  Nd51  1  0.51508280  0.64602719  0.05874400  1
  Nd3+  Nd52  1  0.74334278  0.11160897  0.56386574  1
  Nd3+  Nd53  1  0.63683192  0.51987262  0.93855668  1
  Nd3+  Nd54  1  0.76173558  0.14469377  0.05493589  1
  Nd3+  Nd55  1  0.36561612  0.23514492  0.45623617  1
  Nd3+  Nd56  1  0.88821180  0.77495720  0.93025259  1
  Nd3+  Nd57  1  0.61629229  -0.00645816  0.42967892  1
  Sm3+  Sm58  1  0.38781785  0.76834289  0.94603704  1
  Sm3+  Sm59  1  -0.00571434  0.86080731  0.56168186  1
  Sm3+  Sm60  1  0.49049720  0.86311529  0.54159687  1
  Sm3+  Sm61  1  0.13780537  0.51905208  0.94073959  1
  Sm3+  Sm62  1  -0.00570504  0.61944898  0.56974785  1
  Sm3+  Sm63  1  0.11744932  0.23841141  0.45222972  1
  Bi2+  Bi64  1  -0.00726490  0.13866539  0.29605554  1
  Bi2+  Bi65  1  -0.01187497  0.11301857  0.77875113  1
  Bi2+  Bi66  1  -0.05211777  0.40068026  0.30754029  1
  Bi2+  Bi67  1  0.01027009  0.47320641  0.78380310  1
  Bi2+  Bi68  1  -0.03466418  0.62439005  0.24575292  1
  Bi2+  Bi69  1  0.05240831  0.65115841  0.83799242  1
  Bi2+  Bi70  1  -0.03588023  0.88572490  0.27975307  1
  Bi2+  Bi71  1  0.03531190  0.83624678  0.79108474  1
  Bi2+  Bi72  1  0.24377427  0.13673026  0.29396437  1
  Bi2+  Bi73  1  0.25995641  0.11862310  0.78972161  1
  Bi2+  Bi74  1  0.24670701  0.34656410  0.29762566  1
  Bi2+  Bi75  1  0.26583832  0.41167276  0.78381730  1
  Bi2+  Bi76  1  0.22880473  0.54938194  0.29843126  1
  Bi2+  Bi77  1  0.23972972  0.65510075  0.79557109  1
  Bi2+  Bi78  1  0.20223048  0.86720537  0.28181316  1
  Bi2+  Bi79  1  0.28605214  0.84697932  0.77490282  1
  Bi2+  Bi80  1  0.49401496  0.18710817  0.29352928  1
  Bi2+  Bi81  1  0.51262282  0.11695117  0.79314780  1
  Bi2+  Bi82  1  0.53585006  0.37489356  0.31565867  1
  Bi2+  Bi83  1  0.55167245  0.36839987  0.76769038  1
  Bi2+  Bi84  1  0.50249045  0.57784825  0.29599008  1
  Bi2+  Bi85  1  0.48688815  0.60221666  0.79436764  1
  Bi2+  Bi86  1  0.52548790  0.86627037  0.27701382  1
  Bi2+  Bi87  1  0.54370871  0.92142442  0.77376297  1
  Bi2+  Bi88  1  0.75209521  0.07955806  0.29725484  1
  Bi2+  Bi89  1  0.70478076  0.14525496  0.80450930  1
  Bi2+  Bi90  1  0.77922366  0.30475983  0.28072932  1
  Bi2+  Bi91  1  0.74412563  0.33453759  0.80984697  1
  Bi2+  Bi92  1  0.76609556  0.60648291  0.28741198  1
  Bi2+  Bi93  1  0.86518282  0.61591592  0.80589007  1
  Bi2+  Bi94  1  0.77075496  0.88243703  0.27772113  1
  Bi2+  Bi95  1  0.79121606  0.89183230  0.79472233  1
  Bi2+  Bi96  1  0.06033673  0.00614758  0.20712156  1
  Bi2+  Bi97  1  0.11731883  -0.04156604  0.70912301  1
  Bi2+  Bi98  1  0.11259370  0.25903434  0.20099411  1
  Bi2+  Bi99  1  0.11752314  0.27016070  0.71156561  1
  Bi2+  Bi100  1  0.10045355  0.43975113  0.23762732  1
  Bi2+  Bi101  1  0.11314271  0.56200074  0.69783036  1
  Bi2+  Bi102  1  0.12738542  0.69933795  0.19322286  1
  Bi2+  Bi103  1  0.13706508  0.76182680  0.70077160  1
  Bi2+  Bi104  1  0.37976554  -0.00997099  0.21691311  1
  Bi2+  Bi105  1  0.38407561  -0.02030495  0.70454724  1
  Bi2+  Bi106  1  0.36151066  0.23678414  0.21294230  1
  Bi2+  Bi107  1  0.37747049  0.27488573  0.70451589  1
  Bi2+  Bi108  1  0.39349237  0.42788646  0.23585618  1
  Bi2+  Bi109  1  0.30919409  0.58437684  0.69700346  1
  Bi2+  Bi110  1  0.35768066  0.70224946  0.21651218  1
  Bi2+  Bi111  1  0.41637181  0.77800428  0.69537799  1
  Bi2+  Bi112  1  0.64729942  0.02737672  0.20609869  1
  Bi2+  Bi113  1  0.69893963  -0.00348157  0.71411040  1
  Bi2+  Bi114  1  0.61766263  0.27493653  0.21105493  1
  Bi2+  Bi115  1  0.65870695  0.25231067  0.69993283  1
  Bi2+  Bi116  1  0.58366534  0.47262811  0.20915220  1
  Bi2+  Bi117  1  0.69987059  0.49688915  0.74173083  1
  Bi2+  Bi118  1  0.61505174  0.72847681  0.19326618  1
  Bi2+  Bi119  1  0.66099766  0.75074367  0.72852375  1
  Bi2+  Bi120  1  0.87375725  -0.03336229  0.17099479  1
  Bi2+  Bi121  1  0.86909138  0.08438470  0.68779222  1
  Bi2+  Bi122  1  0.86010655  0.15565296  0.21299217  1
  Bi2+  Bi123  1  0.85345845  0.27239075  0.71649688  1
  Bi2+  Bi124  1  0.83802119  0.46574116  0.21871153  1
  Bi2+  Bi125  1  0.91678273  0.57567442  0.69488255  1
  Bi2+  Bi126  1  0.86627734  0.77120920  0.19439705  1
  Bi2+  Bi127  1  0.86781836  0.76294930  0.71720032  1
  S2-  S128  1  0.08692897  0.13606140  0.13378616  1
  S2-  S129  1  0.07965073  0.14527899  0.65403714  1
  S2-  S130  1  -0.00139837  0.35734971  0.15906649  1
  S2-  S131  1  -0.01410364  0.35299300  0.66838006  1
  S2-  S132  1  0.01237510  0.59592550  0.14853436  1
  S2-  S133  1  -0.01279696  0.74430874  0.63921819  1
  S2-  S134  1  0.09159126  0.86467346  0.15697172  1
  S2-  S135  1  -0.01710257  0.96438071  0.64383690  1
  S2-  S136  1  0.27105361  0.02112868  0.15161273  1
  S2-  S137  1  0.25713411  0.16876092  0.68658385  1
  S2-  S138  1  0.25310520  0.28961141  0.13886278  1
  S2-  S139  1  0.24383287  0.37660570  0.66837100  1
  S2-  S140  1  0.25278217  0.58307000  0.17079159  1
  S2-  S141  1  0.27022376  0.75231716  0.63250719  1
  S2-  S142  1  0.27000703  0.77454337  0.14945497  1
  S2-  S143  1  0.23820485  0.96208607  0.64029035  1
  S2-  S144  1  0.49929329  0.04085099  0.15574616  1
  S2-  S145  1  0.45351263  0.13945426  0.67891366  1
  S2-  S146  1  0.49632733  0.28900826  0.13651796  1
  S2-  S147  1  0.50075615  0.38253119  0.66415132  1
  S2-  S148  1  0.49861870  0.62118640  0.15970795  1
  S2-  S149  1  0.46782978  0.62178285  0.66904943  1
  S2-  S150  1  0.45658293  0.83101652  0.18061762  1
  S2-  S151  1  0.48911112  0.91832193  0.63716535  1
  S2-  S152  1  0.67425867  0.15630268  0.14107531  1
  S2-  S153  1  0.64025538  0.10372522  0.64305194  1
  S2-  S154  1  0.71920562  0.39934243  0.15283726  1
  S2-  S155  1  0.74521046  0.39105209  0.65976924  1
  S2-  S156  1  0.74525621  0.65813376  0.15083460  1
  S2-  S157  1  0.68460322  0.61689706  0.67055518  1
  S2-  S158  1  0.65840481  0.87769641  0.14739328  1
  S2-  S159  1  0.74479684  0.84549754  0.65419635  1
  S2-  S160  1  0.22348826  -0.00490746  0.34940154  1
  S2-  S161  1  0.12928649  0.06423570  0.83287919  1
  S2-  S162  1  0.11954094  0.18823342  0.35696892  1
  S2-  S163  1  0.05403257  0.25174829  0.81093586  1
  S2-  S164  1  0.11848519  0.58506514  0.36686786  1
  S2-  S165  1  0.14589191  0.43836315  0.85196141  1
  S2-  S166  1  0.08374401  0.81146493  0.33944774  1
  S2-  S167  1  0.17080066  0.86294220  0.85947234  1
  S2-  S168  1  0.43169415  -0.02764949  0.32045033  1
  S2-  S169  1  0.38686644  0.05085319  0.84983560  1
  S2-  S170  1  0.36717210  0.16439535  0.36459311  1
  S2-  S171  1  0.27850998  0.26179343  0.84098314  1
  S2-  S172  1  0.36542426  0.55942725  0.36240064  1
  S2-  S173  1  0.39303741  0.46100083  0.83230269  1
  S2-  S174  1  0.29044086  0.75296361  0.31721211  1
  S2-  S175  1  0.37596359  0.67149713  0.86138969  1
  S2-  S176  1  0.63628299  -0.10788623  0.34723562  1
  S2-  S177  1  0.64448214  -0.06841318  0.85456042  1
  S2-  S178  1  0.61736219  0.12849296  0.36082537  1
  S2-  S179  1  0.50930986  0.26371115  0.84609566  1
  S2-  S180  1  0.64351102  0.57586388  0.35653275  1
  S2-  S181  1  0.61992479  0.52238463  0.83836186  1
  S2-  S182  1  0.49564364  0.73084790  0.33813312  1
  S2-  S183  1  0.56827931  0.73113514  0.81905623  1
  S2-  S184  1  0.97583714  0.00508264  0.35881989  1
  S2-  S185  1  0.92197102  -0.09651873  0.85634137  1
  S2-  S186  1  0.89300183  0.24900997  0.35746161  1
  S2-  S187  1  0.87024593  0.13305856  0.84940788  1
  S2-  S188  1  0.87758128  0.53709570  0.35951353  1
  S2-  S189  1  0.89262973  0.40626529  0.84950742  1
  S2-  S190  1  0.78613944  0.74038532  0.34723505  1
  S2-  S191  1  0.77797370  0.74831422  0.85100974  1
  S2-  S192  1  -0.00813924  0.11791207  0.46591333  1
  S2-  S193  1  0.01843792  0.14611934  0.94068243  1
  S2-  S194  1  -0.00409480  0.36605249  0.46171444  1
  S2-  S195  1  0.01415909  0.39511145  0.95114017  1
  S2-  S196  1  -0.00916817  0.61153860  0.46558713  1
  S2-  S197  1  0.01076301  0.64347417  0.95153089  1
  S2-  S198  1  -0.01149499  0.85928603  0.45558238  1
  S2-  S199  1  0.01466389  0.89102479  0.96004201  1
  S2-  S200  1  0.23714672  0.11774586  0.46721083  1
  S2-  S201  1  0.25911838  0.14044874  0.95208908  1
  S2-  S202  1  0.24268457  0.36326051  0.45962685  1
  S2-  S203  1  0.26508573  0.39865280  0.94979165  1
  S2-  S204  1  0.24686200  0.61214266  0.46371727  1
  S2-  S205  1  0.25852177  0.64458834  0.96132671  1
  S2-  S206  1  0.24578534  0.85986710  0.44611757  1
  S2-  S207  1  0.26945051  0.89024152  0.96486411  1
  S2-  S208  1  0.49284782  0.11457256  0.46507054  1
  S2-  S209  1  0.51457439  0.14069570  0.95514015  1
  S2-  S210  1  0.49113335  0.36146050  0.45887324  1
  S2-  S211  1  0.51147965  0.39769548  0.94853456  1
  S2-  S212  1  0.49794055  0.61564570  0.45813162  1
  S2-  S213  1  0.51802090  0.64838427  0.95284261  1
  S2-  S214  1  0.49001322  0.86853151  0.44018108  1
  S2-  S215  1  0.50800649  0.89069900  0.95043768  1
  S2-  S216  1  0.74771037  0.11496277  0.45780286  1
  S2-  S217  1  0.75766512  0.14626846  0.94991399  1
  S2-  S218  1  0.74091042  0.36272873  0.45424355  1
  S2-  S219  1  0.75990212  0.39378610  0.94786323  1
  S2-  S220  1  0.74244721  0.61375445  0.46432645  1
  S2-  S221  1  0.76248591  0.64183142  0.94858952  1
  S2-  S222  1  0.74707151  0.86404569  0.45036016  1
  S2-  S223  1  0.76528491  0.89601209  0.95643913  1
  S2-  S224  1  0.13607747  0.01625213  0.03877511  1
  S2-  S225  1  0.11370663  -0.01581776  0.53966695  1
  S2-  S226  1  0.13521851  0.27192096  0.03270960  1
  S2-  S227  1  0.11876229  0.24481052  0.55456027  1
  S2-  S228  1  0.13900011  0.51779083  0.04669705  1
  S2-  S229  1  0.11734087  0.49334054  0.55783173  1
  S2-  S230  1  0.13471077  0.76765461  0.04581822  1
  S2-  S231  1  0.11677308  0.73758110  0.54017589  1
  S2-  S232  1  0.38947578  0.02014999  0.05102886  1
  S2-  S233  1  0.36716886  -0.01116362  0.53896825  1
  S2-  S234  1  0.38567425  0.26442218  0.03462083  1
  S2-  S235  1  0.36620629  0.23592316  0.56189140  1
  S2-  S236  1  0.38934523  0.51830030  0.04639466  1
  S2-  S237  1  0.36810487  0.49036125  0.55785995  1
  S2-  S238  1  0.39438817  0.77120352  0.04916870  1
  S2-  S239  1  0.37430803  0.73922063  0.53246606  1
  S2-  S240  1  0.63784737  0.01777825  0.04483081  1
  S2-  S241  1  0.62030730  -0.01545062  0.53695424  1
  S2-  S242  1  0.63790442  0.27062244  0.03308850  1
  S2-  S243  1  0.61762309  0.23969884  0.54784100  1
  S2-  S244  1  0.63503598  0.51734943  0.04562028  1
  S2-  S245  1  0.61596936  0.48992190  0.55285968  1
  S2-  S246  1  0.63591381  0.76968468  0.03974934  1
  S2-  S247  1  0.61405021  0.74194867  0.55484261  1
  S2-  S248  1  0.88649728  0.02345377  0.03924779  1
  S2-  S249  1  0.86335089  -0.01441651  0.54389259  1
  S2-  S250  1  0.88569656  0.26839531  0.03945180  1
  S2-  S251  1  0.86731860  0.23834342  0.56074404  1
  S2-  S252  1  0.88432932  0.51884436  0.04210922  1
  S2-  S253  1  0.86852176  0.49185098  0.55872550  1
  S2-  S254  1  0.88672798  0.76947495  0.04328878  1
  S2-  S255  1  0.86465570  0.73725848  0.54439969  1
