# generated using pymatgen
data_La9Ce10Pr6Nd4Sm3(BiS2)32
_symmetry_space_group_name_H-M   'P 1'
_cell_length_a   16.24111699
_cell_length_b   16.24399054
_cell_length_c   27.13415858
_cell_angle_alpha   89.98064657
_cell_angle_beta   89.98609808
_cell_angle_gamma   90.06550413
_symmetry_Int_Tables_number   1
_chemical_formula_structural   La9Ce10Pr6Nd4Sm3(BiS2)32
_chemical_formula_sum   'La18 Ce20 Pr12 Nd8 Sm6 Bi64 S128'
_cell_volume   7158.54336247
_cell_formula_units_Z   2
loop_
 _symmetry_equiv_pos_site_id
 _symmetry_equiv_pos_as_xyz
  1  'x, y, z'
loop_
 _atom_type_symbol
 _atom_type_oxidation_number
  La3+  3.0
  Ce3+  3.0
  Pr3+  3.0
  Nd3+  3.0
  Sm3+  3.0
  Bi2+  2.0
  S2-  -2.0
loop_
 _atom_site_type_symbol
 _atom_site_label
 _atom_site_symmetry_multiplicity
 _atom_site_fract_x
 _atom_site_fract_y
 _atom_site_fract_z
 _atom_site_occupancy
  La3+  La0  1  -0.00703216  0.62795818  0.06950829  1
  La3+  La1  1  0.25597301  0.86209080  0.56231150  1
  La3+  La2  1  0.86286478  0.74482307  0.93738043  1
  La3+  La3  1  0.75699898  0.36640028  0.56610194  1
  La3+  La4  1  0.11873232  0.74670423  0.93679681  1
  La3+  La5  1  0.73948326  0.61635958  0.05851890  1
  La3+  La6  1  0.51277682  0.86431380  0.55563675  1
  La3+  La7  1  0.75565119  0.11323055  0.56748766  1
  La3+  La8  1  0.01423889  0.35888000  0.59602705  1
  La3+  La9  1  0.38515914  0.74159638  0.43378230  1
  La3+  La10  1  0.37040660  0.49427320  0.93273259  1
  La3+  La11  1  0.88029248  -0.00413197  0.43337798  1
  La3+  La12  1  0.12582726  0.25138402  0.92349286  1
  La3+  La13  1  0.61637191  0.48983760  0.91001733  1
  La3+  La14  1  0.14012170  0.24006235  0.41884397  1
  La3+  La15  1  0.75063518  0.61007097  0.57619493  1
  La3+  La16  1  0.64361329  0.73642237  0.41133034  1
  La3+  La17  1  0.73922161  0.87037475  0.09890929  1
  Ce3+  Ce18  1  0.62120126  0.24694992  0.93914373  1
  Ce3+  Ce19  1  0.00674155  0.86442426  0.54682373  1
  Ce3+  Ce20  1  0.50074138  0.86710251  0.06167092  1
  Ce3+  Ce21  1  0.63147542  0.24195431  0.44208707  1
  Ce3+  Ce22  1  0.24727085  0.86882675  0.05795904  1
  Ce3+  Ce23  1  0.87673360  0.24746560  0.92716520  1
  Ce3+  Ce24  1  0.25599497  0.61558972  0.55416075  1
  Ce3+  Ce25  1  -0.00799745  0.86958448  0.05900739  1
  Ce3+  Ce26  1  0.63555154  0.48970147  0.43511548  1
  Ce3+  Ce27  1  -0.00773198  0.12260294  0.05646215  1
  Ce3+  Ce28  1  0.38253399  0.48945796  0.44276155  1
  Ce3+  Ce29  1  0.88685814  0.49251527  0.45345227  1
  Ce3+  Ce30  1  0.50619903  0.11856178  0.56346035  1
  Ce3+  Ce31  1  0.38277333  -0.00756408  0.44557291  1
  Ce3+  Ce32  1  0.13519784  -0.00714026  0.43853200  1
  Ce3+  Ce33  1  0.24527439  0.36135735  0.06805984  1
  Ce3+  Ce34  1  0.11965057  -0.00283211  0.94832362  1
  Ce3+  Ce35  1  0.88480550  0.73476326  0.43401152  1
  Ce3+  Ce36  1  0.11599321  0.49514685  0.94260856  1
  Ce3+  Ce37  1  0.01110267  0.11837513  0.56063397  1
  Pr3+  Pr38  1  0.24651004  0.61809204  0.05822305  1
  Pr3+  Pr39  1  0.24209206  0.12023396  0.06666407  1
  Pr3+  Pr40  1  0.01807897  0.62925366  0.57584467  1
  Pr3+  Pr41  1  0.12994788  0.73689813  0.42335076  1
  Pr3+  Pr42  1  0.61358818  0.75929902  0.91129414  1
  Pr3+  Pr43  1  0.37275211  0.74753769  0.93574282  1
  Pr3+  Pr44  1  0.62998737  0.00127445  0.43094979  1
  Pr3+  Pr45  1  0.75925697  0.86046688  0.55804281  1
  Pr3+  Pr46  1  0.25725223  0.36635365  0.56961177  1
  Pr3+  Pr47  1  -0.00514416  0.37015402  0.06043881  1
  Pr3+  Pr48  1  0.49666519  0.37109437  0.05491063  1
  Pr3+  Pr49  1  0.86825726  0.49175633  0.92862616  1
  Nd3+  Nd50  1  0.36946954  -0.00311829  0.94761850  1
  Nd3+  Nd51  1  0.88650174  0.24507338  0.44504070  1
  Nd3+  Nd52  1  0.36735270  0.24320618  0.93494660  1
  Nd3+  Nd53  1  0.49839930  0.12019900  0.05788728  1
  Nd3+  Nd54  1  0.62227063  -0.00151674  0.93883293  1
  Nd3+  Nd55  1  0.25660600  0.11706547  0.56115869  1
  Nd3+  Nd56  1  0.74754278  0.12002631  0.05638569  1
  Nd3+  Nd57  1  0.13113042  0.48892485  0.44624614  1
  Sm3+  Sm58  1  0.38055576  0.24276296  0.44705611  1
  Sm3+  Sm59  1  0.51058032  0.61523916  0.55385367  1
  Sm3+  Sm60  1  0.49974138  0.62059174  0.05185578  1
  Sm3+  Sm61  1  0.86758298  -0.00524074  0.94326451  1
  Sm3+  Sm62  1  0.50645755  0.36671748  0.55755487  1
  Sm3+  Sm63  1  0.74645284  0.37388174  0.05682606  1
  Bi2+  Bi64  1  -0.00133328  0.10786756  0.28826499  1
  Bi2+  Bi65  1  -0.04940314  0.10407638  0.78584436  1
  Bi2+  Bi66  1  -0.05762407  0.32975842  0.29392945  1
  Bi2+  Bi67  1  -0.00334474  0.38332901  0.80131056  1
  Bi2+  Bi68  1  0.00264435  0.59017626  0.29322325  1
  Bi2+  Bi69  1  0.05812107  0.61316912  0.77200613  1
  Bi2+  Bi70  1  0.02286057  0.85379944  0.28225782  1
  Bi2+  Bi71  1  0.01726855  0.86319360  0.78631387  1
  Bi2+  Bi72  1  0.25076532  0.07919833  0.28296700  1
  Bi2+  Bi73  1  0.25300388  0.10108834  0.79512727  1
  Bi2+  Bi74  1  0.25940020  0.35758659  0.29496184  1
  Bi2+  Bi75  1  0.28797398  0.39743810  0.80082869  1
  Bi2+  Bi76  1  0.20650700  0.66740883  0.29809887  1
  Bi2+  Bi77  1  0.26693970  0.68043259  0.79668152  1
  Bi2+  Bi78  1  0.20470575  0.88592746  0.31145966  1
  Bi2+  Bi79  1  0.23623440  0.90676921  0.79658637  1
  Bi2+  Bi80  1  0.49265788  0.21886271  0.30443675  1
  Bi2+  Bi81  1  0.51060979  0.16350265  0.80870904  1
  Bi2+  Bi82  1  0.55676590  0.39784199  0.31640573  1
  Bi2+  Bi83  1  0.47500250  0.35518336  0.79165409  1
  Bi2+  Bi84  1  0.49391771  0.63806552  0.29127792  1
  Bi2+  Bi85  1  0.45174286  0.62706615  0.77416248  1
  Bi2+  Bi86  1  0.49943060  0.94202924  0.29153630  1
  Bi2+  Bi87  1  0.42719279  0.86928862  0.77854957  1
  Bi2+  Bi88  1  0.72267444  0.14623613  0.27590815  1
  Bi2+  Bi89  1  0.69765723  0.14326623  0.76977620  1
  Bi2+  Bi90  1  0.74755562  0.36842088  0.29459816  1
  Bi2+  Bi91  1  0.73818599  0.32955879  0.77735632  1
  Bi2+  Bi92  1  0.76628253  0.58689109  0.29138261  1
  Bi2+  Bi93  1  0.80158922  0.63473695  0.80578569  1
  Bi2+  Bi94  1  0.79223043  0.87494121  0.29057998  1
  Bi2+  Bi95  1  0.76260006  0.88398205  0.80051417  1
  Bi2+  Bi96  1  0.11108133  -0.00599356  0.22072459  1
  Bi2+  Bi97  1  0.07801487  0.00706655  0.71990363  1
  Bi2+  Bi98  1  0.12203135  0.28199662  0.19823008  1
  Bi2+  Bi99  1  0.14115596  0.23781116  0.71456801  1
  Bi2+  Bi100  1  0.15074222  0.53135082  0.21821545  1
  Bi2+  Bi101  1  0.21161471  0.53075155  0.72421654  1
  Bi2+  Bi102  1  0.13850518  0.74226071  0.20108738  1
  Bi2+  Bi103  1  0.17406458  0.78785204  0.69753414  1
  Bi2+  Bi104  1  0.38663973  0.03616609  0.20640510  1
  Bi2+  Bi105  1  0.40037425  0.10165881  0.71156063  1
  Bi2+  Bi106  1  0.38022926  0.27042265  0.21643341  1
  Bi2+  Bi107  1  0.33240852  0.29479919  0.70008093  1
  Bi2+  Bi108  1  0.40899098  0.47792975  0.24972904  1
  Bi2+  Bi109  1  0.39568373  0.48509721  0.69834922  1
  Bi2+  Bi110  1  0.35552444  0.85260358  0.23395359  1
  Bi2+  Bi111  1  0.37162049  0.74718295  0.69334304  1
  Bi2+  Bi112  1  0.61770234  0.01735950  0.21426979  1
  Bi2+  Bi113  1  0.57689670  -0.00809933  0.75902614  1
  Bi2+  Bi114  1  0.61549886  0.28364574  0.21567618  1
  Bi2+  Bi115  1  0.54606509  0.23441004  0.69270815  1
  Bi2+  Bi116  1  0.58943298  0.49986200  0.19701996  1
  Bi2+  Bi117  1  0.62060544  0.51593876  0.71343059  1
  Bi2+  Bi118  1  0.61100959  0.74365831  0.21315843  1
  Bi2+  Bi119  1  0.64229548  0.77155340  0.69751116  1
  Bi2+  Bi120  1  0.89829568  0.07585373  0.19371792  1
  Bi2+  Bi121  1  0.88741736  -0.03647031  0.70860956  1
  Bi2+  Bi122  1  0.81264497  0.25407796  0.19303511  1
  Bi2+  Bi123  1  0.87534904  0.23949094  0.71470116  1
  Bi2+  Bi124  1  0.85564440  0.45441294  0.20055401  1
  Bi2+  Bi125  1  0.85508669  0.51739451  0.71867812  1
  Bi2+  Bi126  1  0.87428191  0.71751195  0.20359669  1
  Bi2+  Bi127  1  0.91000994  0.76296427  0.70512103  1
  S2-  S128  1  0.03607480  0.15325442  0.14976396  1
  S2-  S129  1  0.01442174  0.19864619  0.64819574  1
  S2-  S130  1  0.00193183  0.36678616  0.16247932  1
  S2-  S131  1  -0.04444218  0.39684148  0.69410621  1
  S2-  S132  1  -0.04776139  0.57245688  0.16319800  1
  S2-  S133  1  -0.02507973  0.60354588  0.67549854  1
  S2-  S134  1  0.00099124  0.77251154  0.13947195  1
  S2-  S135  1  0.02982121  0.79914843  0.63468459  1
  S2-  S136  1  0.25835731  0.22601293  0.14508244  1
  S2-  S137  1  0.24633849  0.13176072  0.66047192  1
  S2-  S138  1  0.21629990  0.41780064  0.16177883  1
  S2-  S139  1  0.16055375  0.36757760  0.65471651  1
  S2-  S140  1  0.24917712  0.63230935  0.15935659  1
  S2-  S141  1  0.17987173  0.63534615  0.63978397  1
  S2-  S142  1  0.24869621  0.86097916  0.15542259  1
  S2-  S143  1  0.28596658  0.89221624  0.66073834  1
  S2-  S144  1  0.51348225  0.11991770  0.15679543  1
  S2-  S145  1  0.54874255  0.07122762  0.65360532  1
  S2-  S146  1  0.47760736  0.37636567  0.15503195  1
  S2-  S147  1  0.53858383  0.39710799  0.65287540  1
  S2-  S148  1  0.51657561  0.63240031  0.15229477  1
  S2-  S149  1  0.59168268  0.62379498  0.64232263  1
  S2-  S150  1  0.58339865  0.86651671  0.14998990  1
  S2-  S151  1  0.51328004  0.83513972  0.65541078  1
  S2-  S152  1  0.74091421  0.04238204  0.14600044  1
  S2-  S153  1  0.75751131  0.16500860  0.66382685  1
  S2-  S154  1  0.72636008  0.48464071  0.13318506  1
  S2-  S155  1  0.74047502  0.46318925  0.64948824  1
  S2-  S156  1  0.73517315  0.70764603  0.14773662  1
  S2-  S157  1  0.78293552  0.68170780  0.66891961  1
  S2-  S158  1  0.83625700  0.87143621  0.18834605  1
  S2-  S159  1  0.73087673  0.89201250  0.65732382  1
  S2-  S160  1  0.12699511  0.09319672  0.35791085  1
  S2-  S161  1  0.12939962  0.01389328  0.85196360  1
  S2-  S162  1  0.09289192  0.31210326  0.32498170  1
  S2-  S163  1  0.00578675  0.23714238  0.85030143  1
  S2-  S164  1  0.12413825  0.53413591  0.34824606  1
  S2-  S165  1  0.13550595  0.41818365  0.85518477  1
  S2-  S166  1  -0.00119715  0.72766166  0.35518275  1
  S2-  S167  1  0.09847735  0.72674680  0.83751571  1
  S2-  S168  1  0.38161450  0.01594629  0.34865647  1
  S2-  S169  1  0.36952427  -0.00736671  0.84801750  1
  S2-  S170  1  0.29710790  0.24655767  0.36134807  1
  S2-  S171  1  0.26195265  0.23407515  0.85491687  1
  S2-  S172  1  0.35305866  0.47822467  0.34690676  1
  S2-  S173  1  0.47010496  0.50505000  0.84892704  1
  S2-  S174  1  0.36233314  0.71669283  0.33466368  1
  S2-  S175  1  0.46739098  0.75412428  0.85106361  1
  S2-  S176  1  0.68238685  -0.05096151  0.33914162  1
  S2-  S177  1  0.61614235  -0.08008558  0.85055494  1
  S2-  S178  1  0.62486878  0.14600857  0.36028095  1
  S2-  S179  1  0.62372879  0.33276876  0.85352149  1
  S2-  S180  1  0.63535324  0.58144388  0.35086143  1
  S2-  S181  1  0.68977941  0.52130185  0.81313117  1
  S2-  S182  1  0.56990927  0.77495510  0.31733439  1
  S2-  S183  1  0.67469980  0.73531944  0.81278588  1
  S2-  S184  1  0.91527382  -0.03123396  0.33518724  1
  S2-  S185  1  0.84296321  0.01447899  0.84588889  1
  S2-  S186  1  0.88581824  0.19410935  0.34915127  1
  S2-  S187  1  0.84994120  0.36343029  0.85265906  1
  S2-  S188  1  0.88489424  0.50765247  0.35434094  1
  S2-  S189  1  0.95171715  0.54277512  0.84092546  1
  S2-  S190  1  0.78685136  0.73241397  0.34982915  1
  S2-  S191  1  0.88500700  0.78355289  0.83875763  1
  S2-  S192  1  0.00720372  0.11798813  0.45642581  1
  S2-  S193  1  -0.00676337  0.11651212  0.95196516  1
  S2-  S194  1  0.01072176  0.36471587  0.45115089  1
  S2-  S195  1  -0.00481425  0.37168406  0.95422612  1
  S2-  S196  1  0.01119572  0.61443073  0.46238293  1
  S2-  S197  1  -0.00578175  0.62347356  0.95743339  1
  S2-  S198  1  0.01036332  0.87079549  0.44471347  1
  S2-  S199  1  -0.00735608  0.87304572  0.95120790  1
  S2-  S200  1  0.26058749  0.11495152  0.45732931  1
  S2-  S201  1  0.24498541  0.11834145  0.96004454  1
  S2-  S202  1  0.25805323  0.36801710  0.46150621  1
  S2-  S203  1  0.24939023  0.37191215  0.95981444  1
  S2-  S204  1  0.25754669  0.61540442  0.44933022  1
  S2-  S205  1  0.24644878  0.62030631  0.94864242  1
  S2-  S206  1  0.25833043  0.86591406  0.45165603  1
  S2-  S207  1  0.24706101  0.87109210  0.95057336  1
  S2-  S208  1  0.50163640  0.12017646  0.45821300  1
  S2-  S209  1  0.49457029  0.12081693  0.95114388  1
  S2-  S210  1  0.50495153  0.36378855  0.45244510  1
  S2-  S211  1  0.49029930  0.36455860  0.94925086  1
  S2-  S212  1  0.50766620  0.61498730  0.44939647  1
  S2-  S213  1  0.49773467  0.62309011  0.94841086  1
  S2-  S214  1  0.51150264  0.86679785  0.44538642  1
  S2-  S215  1  0.49431765  0.87576005  0.95589426  1
  S2-  S216  1  0.75966461  0.12055442  0.45840240  1
  S2-  S217  1  0.74716914  0.12316042  0.94880550  1
  S2-  S218  1  0.75864491  0.36509028  0.45543279  1
  S2-  S219  1  0.74358118  0.36936311  0.95496173  1
  S2-  S220  1  0.75915780  0.61021303  0.46057591  1
  S2-  S221  1  0.73962689  0.61814203  0.94237054  1
  S2-  S222  1  0.75971537  0.86729464  0.45069426  1
  S2-  S223  1  0.74395295  0.87365544  0.94689781  1
  S2-  S224  1  0.11919104  -0.00638634  0.05533195  1
  S2-  S225  1  0.13297703  -0.00880487  0.54902546  1
  S2-  S226  1  0.11779959  0.24407384  0.03911775  1
  S2-  S227  1  0.13562839  0.24115866  0.54472810  1
  S2-  S228  1  0.11839887  0.49704596  0.04962199  1
  S2-  S229  1  0.12938657  0.48967089  0.55175557  1
  S2-  S230  1  0.12498930  0.74635390  0.04348252  1
  S2-  S231  1  0.13609153  0.74281582  0.53128589  1
  S2-  S232  1  0.37265925  -0.00403137  0.05455756  1
  S2-  S233  1  0.38303347  -0.00883400  0.55256546  1
  S2-  S234  1  0.37443480  0.24164600  0.04221336  1
  S2-  S235  1  0.38282347  0.24304430  0.55302950  1
  S2-  S236  1  0.37313862  0.49704956  0.04485660  1
  S2-  S237  1  0.38500623  0.49216073  0.55041004  1
  S2-  S238  1  0.37337899  0.74297475  0.04500865  1
  S2-  S239  1  0.38475035  0.73744524  0.54359432  1
  S2-  S240  1  0.62150565  -0.00468175  0.04411194  1
  S2-  S241  1  0.63464092  -0.00893433  0.54066811  1
  S2-  S242  1  0.62428187  0.24605466  0.04898201  1
  S2-  S243  1  0.63044438  0.24336661  0.55008912  1
  S2-  S244  1  0.61480751  0.49365566  0.03087764  1
  S2-  S245  1  0.62757712  0.48768259  0.54015959  1
  S2-  S246  1  0.61825209  0.74562795  0.03891798  1
  S2-  S247  1  0.63341645  0.73846628  0.53825286  1
  S2-  S248  1  0.86928177  -0.00772405  0.04836673  1
  S2-  S249  1  0.88322555  -0.00873108  0.54698212  1
  S2-  S250  1  0.86735659  0.24760968  0.04305687  1
  S2-  S251  1  0.88324901  0.24388972  0.55198918  1
  S2-  S252  1  0.87145183  0.49455798  0.03922276  1
  S2-  S253  1  0.89158142  0.48790069  0.55933156  1
  S2-  S254  1  0.86223324  0.75065817  0.04503216  1
  S2-  S255  1  0.88282180  0.73786574  0.54331639  1
