# generated using pymatgen
data_La9Ce10Pr6Nd4Sm3(BiS2)32
_symmetry_space_group_name_H-M   'P 1'
_cell_length_a   16.22363348
_cell_length_b   16.20280075
_cell_length_c   27.09510700
_cell_angle_alpha   90.12992849
_cell_angle_beta   90.13190207
_cell_angle_gamma   90.05700990
_symmetry_Int_Tables_number   1
_chemical_formula_structural   La9Ce10Pr6Nd4Sm3(BiS2)32
_chemical_formula_sum   'La18 Ce20 Pr12 Nd8 Sm6 Bi64 S128'
_cell_volume   7122.40398494
_cell_formula_units_Z   2
loop_
 _symmetry_equiv_pos_site_id
 _symmetry_equiv_pos_as_xyz
  1  'x, y, z'
loop_
 _atom_type_symbol
 _atom_type_oxidation_number
  La3+  3.0
  Ce3+  3.0
  Pr3+  3.0
  Nd3+  3.0
  Sm3+  3.0
  Bi2+  2.0
  S2-  -2.0
loop_
 _atom_site_type_symbol
 _atom_site_label
 _atom_site_symmetry_multiplicity
 _atom_site_fract_x
 _atom_site_fract_y
 _atom_site_fract_z
 _atom_site_occupancy
  La3+  La0  1  0.36169700  0.51057999  0.93920093  1
  La3+  La1  1  0.86729770  0.01129526  0.93920288  1
  La3+  La2  1  0.49175064  0.63793347  0.09513472  1
  La3+  La3  1  0.87160392  0.27266846  0.41635583  1
  La3+  La4  1  0.00161133  0.63888681  0.57036867  1
  La3+  La5  1  0.36754250  0.52098666  0.41634629  1
  La3+  La6  1  0.86423063  0.26444589  0.93453920  1
  La3+  La7  1  0.37359260  -0.00060765  0.90854803  1
  La3+  La8  1  -0.00820319  0.64155502  0.05333728  1
  La3+  La9  1  0.00131607  0.90121513  0.58135913  1
  La3+  La10  1  0.11925236  0.76551083  0.91835650  1
  La3+  La11  1  0.73830638  0.64272277  0.58986833  1
  La3+  La12  1  0.13092488  0.25581260  0.41457266  1
  La3+  La13  1  0.25577987  0.89615077  0.58556906  1
  La3+  La14  1  0.61009624  0.75930129  0.93448239  1
  La3+  La15  1  0.74750534  0.38481739  0.57148957  1
  La3+  La16  1  0.25613102  0.38639867  0.56587204  1
  La3+  La17  1  0.11346754  0.25576144  0.92824195  1
  Ce3+  Ce18  1  -0.00771618  0.38398500  0.06067865  1
  Ce3+  Ce19  1  0.00246500  0.38050755  0.55011904  1
  Ce3+  Ce20  1  0.74060761  0.88173189  0.05383240  1
  Ce3+  Ce21  1  0.37517753  0.77253564  0.43273760  1
  Ce3+  Ce22  1  0.00073826  0.14544027  0.55464331  1
  Ce3+  Ce23  1  0.12311663  0.76905525  0.45369721  1
  Ce3+  Ce24  1  0.36625412  0.25800256  0.94588501  1
  Ce3+  Ce25  1  0.12800716  0.51413983  0.44299371  1
  Ce3+  Ce26  1  0.37480472  0.00961528  0.43479559  1
  Ce3+  Ce27  1  0.25404008  0.63912570  0.55846692  1
  Ce3+  Ce28  1  0.36497400  0.76201423  0.94948975  1
  Ce3+  Ce29  1  0.49064518  0.38526807  0.05960996  1
  Ce3+  Ce30  1  0.62700588  0.51798791  0.43974707  1
  Ce3+  Ce31  1  0.62843575  0.01340937  0.44185257  1
  Ce3+  Ce32  1  0.37447657  0.26477222  0.43241583  1
  Ce3+  Ce33  1  0.75322678  0.14154073  0.55639164  1
  Ce3+  Ce34  1  0.61192959  0.00970852  0.94465204  1
  Ce3+  Ce35  1  0.87228216  0.51547438  0.45168593  1
  Ce3+  Ce36  1  0.74123122  0.13704188  0.05652210  1
  Ce3+  Ce37  1  0.24058602  0.38307707  0.06073083  1
  Pr3+  Pr38  1  0.49957046  0.14000504  0.55431092  1
  Pr3+  Pr39  1  0.24218228  0.63979360  0.07017296  1
  Pr3+  Pr40  1  0.75116936  0.89161582  0.56956361  1
  Pr3+  Pr41  1  0.23978685  0.88531256  0.06678011  1
  Pr3+  Pr42  1  0.11941128  0.01059692  0.93660666  1
  Pr3+  Pr43  1  0.74061586  0.38796534  0.06908665  1
  Pr3+  Pr44  1  0.62332189  0.26770421  0.43172207  1
  Pr3+  Pr45  1  0.87104887  0.01787728  0.42394752  1
  Pr3+  Pr46  1  0.49645447  0.64153917  0.55562657  1
  Pr3+  Pr47  1  0.61790132  0.26345499  0.93166338  1
  Pr3+  Pr48  1  0.87775169  0.76617708  0.44993096  1
  Pr3+  Pr49  1  0.86239803  0.75867224  0.92355461  1
  Nd3+  Nd50  1  0.61525578  0.51313778  0.95086486  1
  Nd3+  Nd51  1  0.25002823  0.14073705  0.55768270  1
  Nd3+  Nd52  1  0.49201798  0.13490452  0.05720563  1
  Nd3+  Nd53  1  -0.00670727  0.13812415  0.06993200  1
  Nd3+  Nd54  1  0.49948609  0.89018289  0.56381457  1
  Nd3+  Nd55  1  0.74332395  0.64515800  0.06792469  1
  Nd3+  Nd56  1  0.63393060  0.76377938  0.43521069  1
  Nd3+  Nd57  1  0.11601677  0.51121726  0.94626121  1
  Sm3+  Sm58  1  0.50321210  0.39329104  0.55607008  1
  Sm3+  Sm59  1  0.49077142  0.88514154  0.06980591  1
  Sm3+  Sm60  1  0.11681550  0.00970826  0.43586823  1
  Sm3+  Sm61  1  0.24211371  0.13221189  0.05779663  1
  Sm3+  Sm62  1  0.86327523  0.51205735  0.94561180  1
  Sm3+  Sm63  1  -0.00801495  0.88564061  0.05028062  1
  Bi2+  Bi64  1  0.01229805  0.11333166  0.29351250  1
  Bi2+  Bi65  1  -0.00537228  0.14196279  0.79254998  1
  Bi2+  Bi66  1  0.04753233  0.42994386  0.27547239  1
  Bi2+  Bi67  1  0.10850587  0.36170544  0.80732783  1
  Bi2+  Bi68  1  0.04035568  0.62489254  0.30637449  1
  Bi2+  Bi69  1  0.02772415  0.51275522  0.74812886  1
  Bi2+  Bi70  1  -0.04153303  0.82419896  0.31046535  1
  Bi2+  Bi71  1  -0.02010727  0.88970201  0.78203058  1
  Bi2+  Bi72  1  0.26676147  0.12940564  0.28139339  1
  Bi2+  Bi73  1  0.24021135  0.15413019  0.78052656  1
  Bi2+  Bi74  1  0.27735369  0.40252168  0.28760609  1
  Bi2+  Bi75  1  0.31332584  0.37600259  0.78357119  1
  Bi2+  Bi76  1  0.24535185  0.65783167  0.28369471  1
  Bi2+  Bi77  1  0.27492430  0.59346902  0.79255150  1
  Bi2+  Bi78  1  0.25278544  0.89226412  0.28318033  1
  Bi2+  Bi79  1  0.23949392  0.86544666  0.79025571  1
  Bi2+  Bi80  1  0.45282464  0.09858988  0.31710317  1
  Bi2+  Bi81  1  0.54158852  0.11740519  0.77687637  1
  Bi2+  Bi82  1  0.54029068  0.27241575  0.30529216  1
  Bi2+  Bi83  1  0.52481275  0.30603313  0.80133434  1
  Bi2+  Bi84  1  0.50669842  0.61324702  0.29643011  1
  Bi2+  Bi85  1  0.53531286  0.60628539  0.80879053  1
  Bi2+  Bi86  1  0.47794344  0.92568917  0.26842928  1
  Bi2+  Bi87  1  0.52041562  0.84985906  0.80534203  1
  Bi2+  Bi88  1  0.74952505  0.09519175  0.28150722  1
  Bi2+  Bi89  1  0.73018746  0.13547962  0.79147088  1
  Bi2+  Bi90  1  0.78213861  0.37820821  0.27682641  1
  Bi2+  Bi91  1  0.79329209  0.38764325  0.78755203  1
  Bi2+  Bi92  1  0.78759581  0.59235898  0.30307786  1
  Bi2+  Bi93  1  0.75904978  0.57214116  0.78204632  1
  Bi2+  Bi94  1  0.70083948  0.84111560  0.29541530  1
  Bi2+  Bi95  1  0.75992464  0.94542079  0.77944352  1
  Bi2+  Bi96  1  0.16052872  -0.00014942  0.20379597  1
  Bi2+  Bi97  1  0.11845093  0.02967739  0.70961558  1
  Bi2+  Bi98  1  0.14152894  0.27094118  0.20987181  1
  Bi2+  Bi99  1  0.12331199  0.26458860  0.70625988  1
  Bi2+  Bi100  1  0.13333045  0.56881983  0.20944360  1
  Bi2+  Bi101  1  0.19430587  0.45834465  0.70183215  1
  Bi2+  Bi102  1  0.10944905  0.81036108  0.21519058  1
  Bi2+  Bi103  1  0.12408074  0.72360857  0.71601241  1
  Bi2+  Bi104  1  0.34726373  -0.05128265  0.18078996  1
  Bi2+  Bi105  1  0.38710318  0.00831338  0.70501754  1
  Bi2+  Bi106  1  0.40500486  0.22335873  0.22389229  1
  Bi2+  Bi107  1  0.39137541  0.26602353  0.69953091  1
  Bi2+  Bi108  1  0.37596535  0.47206305  0.20362802  1
  Bi2+  Bi109  1  0.38679240  0.55704613  0.67899421  1
  Bi2+  Bi110  1  0.37411678  0.76442261  0.21425313  1
  Bi2+  Bi111  1  0.41452655  0.71512259  0.74232339  1
  Bi2+  Bi112  1  0.64614603  -0.03230913  0.21070995  1
  Bi2+  Bi113  1  0.59077969  -0.06075167  0.70383404  1
  Bi2+  Bi114  1  0.61341500  0.17129464  0.21073744  1
  Bi2+  Bi115  1  0.63575998  0.27384252  0.70731175  1
  Bi2+  Bi116  1  0.61302290  0.41634777  0.22520845  1
  Bi2+  Bi117  1  0.54806462  0.46172241  0.72949061  1
  Bi2+  Bi118  1  0.65578790  0.69839121  0.20250648  1
  Bi2+  Bi119  1  0.62098379  0.74377828  0.71477303  1
  Bi2+  Bi120  1  0.84353532  -0.05915061  0.23468952  1
  Bi2+  Bi121  1  0.75686981  0.02700379  0.67567267  1
  Bi2+  Bi122  1  0.88371226  0.24197040  0.19349023  1
  Bi2+  Bi123  1  0.87060354  0.17669744  0.71103649  1
  Bi2+  Bi124  1  0.90100676  0.53152058  0.21978360  1
  Bi2+  Bi125  1  0.91964418  0.37215383  0.70471132  1
  Bi2+  Bi126  1  0.89024225  0.75748089  0.20034475  1
  Bi2+  Bi127  1  0.87008109  0.72436125  0.71830344  1
  S2-  S128  1  -0.02079544  0.12038066  0.17172029  1
  S2-  S129  1  0.01050424  0.05018837  0.64066346  1
  S2-  S130  1  0.01034433  0.33887817  0.15389794  1
  S2-  S131  1  0.00254875  0.27892749  0.62869220  1
  S2-  S132  1  -0.00579517  0.63139633  0.15409764  1
  S2-  S133  1  -0.00778979  0.62978162  0.67161443  1
  S2-  S134  1  -0.01759695  0.86780188  0.14799136  1
  S2-  S135  1  -0.04357580  0.84491274  0.68086596  1
  S2-  S136  1  0.20212958  0.15272407  0.15395219  1
  S2-  S137  1  0.25853551  0.04565142  0.64698405  1
  S2-  S138  1  0.24582064  0.37697524  0.15967206  1
  S2-  S139  1  0.24808174  0.25521344  0.63734255  1
  S2-  S140  1  0.34837060  0.60629576  0.15276127  1
  S2-  S141  1  0.23746627  0.65591669  0.65670509  1
  S2-  S142  1  0.20813326  0.76757269  0.14070746  1
  S2-  S143  1  0.17232035  0.86481396  0.68006185  1
  S2-  S144  1  0.47533959  0.11815579  0.15605123  1
  S2-  S145  1  0.47486580  0.14166596  0.65501325  1
  S2-  S146  1  0.49486855  0.36502231  0.15735157  1
  S2-  S147  1  0.39502025  0.40267440  0.63442773  1
  S2-  S148  1  0.54958222  0.56940012  0.19063288  1
  S2-  S149  1  0.57948309  0.64029855  0.64543221  1
  S2-  S150  1  0.51244930  0.78476976  0.15234965  1
  S2-  S151  1  0.40180898  0.87927331  0.64791720  1
  S2-  S152  1  0.76149320  0.14706896  0.15285379  1
  S2-  S153  1  0.75986697  0.24498157  0.63648102  1
  S2-  S154  1  0.75447245  0.36215033  0.16885397  1
  S2-  S155  1  0.61164265  0.40288278  0.64133229  1
  S2-  S156  1  0.75751304  0.58425660  0.16350962  1
  S2-  S157  1  0.78374049  0.57554781  0.68682997  1
  S2-  S158  1  0.75203350  0.78681563  0.13510088  1
  S2-  S159  1  0.75196340  0.78450660  0.65272135  1
  S2-  S160  1  0.14776069  0.10349331  0.35231354  1
  S2-  S161  1  0.11743577  -0.09320445  0.85038801  1
  S2-  S162  1  0.03597323  0.28202575  0.32446684  1
  S2-  S163  1  0.12512287  0.12537913  0.85748185  1
  S2-  S164  1  0.21397505  0.50738912  0.35723911  1
  S2-  S165  1  0.14612413  0.51542829  0.84851469  1
  S2-  S166  1  0.10890870  0.76829614  0.35525380  1
  S2-  S167  1  0.16791879  0.71983838  0.82123497  1
  S2-  S168  1  0.37235861  -0.10540176  0.35883552  1
  S2-  S169  1  0.31981098  0.02005680  0.81001338  1
  S2-  S170  1  0.27640499  0.27432784  0.35034191  1
  S2-  S171  1  0.33397745  0.24273884  0.85045463  1
  S2-  S172  1  0.43424221  0.47518112  0.32036590  1
  S2-  S173  1  0.39764694  0.50345527  0.84042634  1
  S2-  S174  1  0.37051419  0.66782867  0.35212624  1
  S2-  S175  1  0.36647651  0.83184461  0.85958846  1
  S2-  S176  1  0.72159400  -0.00957509  0.35975226  1
  S2-  S177  1  0.53424196  0.00247349  0.85639585  1
  S2-  S178  1  0.72692254  0.28494031  0.35076051  1
  S2-  S179  1  0.74323746  0.27199124  0.85863590  1
  S2-  S180  1  0.64099004  0.54036843  0.34108013  1
  S2-  S181  1  0.64146739  0.49894341  0.85254482  1
  S2-  S182  1  0.57580584  0.76420782  0.33915460  1
  S2-  S183  1  0.65181419  0.74563691  0.83607823  1
  S2-  S184  1  0.99902944  -0.02865054  0.35577456  1
  S2-  S185  1  0.89432547  0.01008177  0.83882090  1
  S2-  S186  1  0.88143120  0.14161503  0.34647645  1
  S2-  S187  1  0.97602730  0.26998727  0.85592542  1
  S2-  S188  1  0.86302215  0.46564646  0.35773845  1
  S2-  S189  1  0.87995915  0.50091870  0.84743136  1
  S2-  S190  1  0.80834803  0.74490889  0.35713447  1
  S2-  S191  1  0.91583434  0.75962471  0.82592598  1
  S2-  S192  1  -0.00038814  0.14078803  0.44938677  1
  S2-  S193  1  -0.01047728  0.13302045  0.96095793  1
  S2-  S194  1  0.00338552  0.39161784  0.44593902  1
  S2-  S195  1  -0.00970243  0.39183087  0.95609857  1
  S2-  S196  1  0.00030793  0.63821905  0.46060071  1
  S2-  S197  1  -0.00987614  0.63526649  0.94430569  1
  S2-  S198  1  -0.00162857  0.89032167  0.46852754  1
  S2-  S199  1  -0.01266670  0.88285492  0.94644033  1
  S2-  S200  1  0.25778112  0.13329676  0.45188931  1
  S2-  S201  1  0.25307800  0.12528392  0.95489327  1
  S2-  S202  1  0.25170220  0.38826699  0.45572837  1
  S2-  S203  1  0.23798459  0.38186035  0.95257450  1
  S2-  S204  1  0.24602819  0.64621411  0.45487593  1
  S2-  S205  1  0.23922711  0.63778342  0.95649906  1
  S2-  S206  1  0.24431725  0.89311091  0.45737458  1
  S2-  S207  1  0.24500457  0.88910515  0.95842540  1
  S2-  S208  1  0.50163745  0.13734415  0.44725460  1
  S2-  S209  1  0.49249648  0.13765706  0.95035284  1
  S2-  S210  1  0.49913353  0.39356977  0.44738130  1
  S2-  S211  1  0.49236367  0.38467813  0.95196937  1
  S2-  S212  1  0.50401313  0.64502959  0.44999906  1
  S2-  S213  1  0.48778459  0.63444899  0.95161609  1
  S2-  S214  1  0.50845704  0.88960766  0.45627483  1
  S2-  S215  1  0.48899278  0.88629408  0.96385783  1
  S2-  S216  1  0.74554818  0.14250166  0.45218357  1
  S2-  S217  1  0.73768144  0.13261774  0.95141116  1
  S2-  S218  1  0.74657122  0.39438369  0.46024138  1
  S2-  S219  1  0.73998179  0.39092133  0.96143503  1
  S2-  S220  1  0.75155261  0.63936264  0.46520259  1
  S2-  S221  1  0.74196588  0.63605840  0.95504763  1
  S2-  S222  1  0.75353268  0.88886872  0.46245461  1
  S2-  S223  1  0.73902293  0.88541270  0.94496570  1
  S2-  S224  1  0.11422146  0.01103422  0.04824588  1
  S2-  S225  1  0.12926802  0.01582475  0.54153469  1
  S2-  S226  1  0.11839495  0.25594972  0.04225462  1
  S2-  S227  1  0.12821909  0.26334100  0.52896840  1
  S2-  S228  1  0.11802729  0.51177452  0.05343290  1
  S2-  S229  1  0.12592246  0.51055217  0.55169898  1
  S2-  S230  1  0.11342576  0.76475552  0.03328078  1
  S2-  S231  1  0.12557142  0.76880677  0.55936260  1
  S2-  S232  1  0.36849468  0.00947819  0.05163674  1
  S2-  S233  1  0.37788021  0.01362280  0.54097334  1
  S2-  S234  1  0.36521474  0.25680631  0.05304808  1
  S2-  S235  1  0.38102171  0.26390703  0.53662226  1
  S2-  S236  1  0.36700018  0.50804034  0.04703750  1
  S2-  S237  1  0.37488945  0.51826870  0.53259864  1
  S2-  S238  1  0.37060905  0.76130713  0.05308178  1
  S2-  S239  1  0.37329017  0.76645383  0.54272003  1
  S2-  S240  1  0.61557001  0.00792569  0.05238995  1
  S2-  S241  1  0.62459515  0.01469349  0.54916196  1
  S2-  S242  1  0.61672504  0.26115552  0.04550297  1
  S2-  S243  1  0.62030662  0.26435165  0.53892594  1
  S2-  S244  1  0.61496450  0.51532012  0.05769422  1
  S2-  S245  1  0.62544150  0.51862119  0.54374871  1
  S2-  S246  1  0.61205560  0.75914922  0.04271074  1
  S2-  S247  1  0.62396452  0.76991548  0.54487941  1
  S2-  S248  1  0.86743951  0.00910518  0.04892329  1
  S2-  S249  1  0.87260307  0.01810730  0.54326071  1
  S2-  S250  1  0.86665935  0.26105837  0.04632859  1
  S2-  S251  1  0.87328695  0.26606182  0.52968065  1
  S2-  S252  1  0.86642695  0.51175554  0.05172708  1
  S2-  S253  1  0.87598820  0.51009750  0.55975153  1
  S2-  S254  1  0.86828310  0.76434006  0.03284333  1
  S2-  S255  1  0.87770967  0.76398984  0.55682309  1
