# generated using pymatgen
data_La9Ce10Pr6Nd4Sm3(BiS2)32
_symmetry_space_group_name_H-M   'P 1'
_cell_length_a   16.21743504
_cell_length_b   16.22996816
_cell_length_c   27.15676131
_cell_angle_alpha   90.25200035
_cell_angle_beta   90.01925545
_cell_angle_gamma   90.01937419
_symmetry_Int_Tables_number   1
_chemical_formula_structural   La9Ce10Pr6Nd4Sm3(BiS2)32
_chemical_formula_sum   'La18 Ce20 Pr12 Nd8 Sm6 Bi64 S128'
_cell_volume   7147.81922230
_cell_formula_units_Z   2
loop_
 _symmetry_equiv_pos_site_id
 _symmetry_equiv_pos_as_xyz
  1  'x, y, z'
loop_
 _atom_type_symbol
 _atom_type_oxidation_number
  La3+  3.0
  Ce3+  3.0
  Pr3+  3.0
  Nd3+  3.0
  Sm3+  3.0
  Bi2+  2.0
  S2-  -2.0
loop_
 _atom_site_type_symbol
 _atom_site_label
 _atom_site_symmetry_multiplicity
 _atom_site_fract_x
 _atom_site_fract_y
 _atom_site_fract_z
 _atom_site_occupancy
  La3+  La0  1  0.12910474  0.74238521  0.42859363  1
  La3+  La1  1  0.36917649  0.00352805  0.91973925  1
  La3+  La2  1  0.00331385  0.36323327  0.09358867  1
  La3+  La3  1  0.50668878  0.87942838  0.56303610  1
  La3+  La4  1  0.62375192  -0.00749431  0.93286453  1
  La3+  La5  1  0.50510025  0.37138172  0.56898383  1
  La3+  La6  1  0.88066653  0.73803471  0.91598945  1
  La3+  La7  1  0.61071404  0.48438515  0.90194757  1
  La3+  La8  1  0.74160462  0.12633987  0.08254693  1
  La3+  La9  1  0.00486160  0.62348693  0.56856592  1
  La3+  La10  1  0.75725453  0.63744462  0.58418925  1
  La3+  La11  1  0.13430493  0.25435171  0.42026499  1
  La3+  La12  1  -0.00092370  0.12552876  0.55882596  1
  La3+  La13  1  0.74840794  0.61768602  0.05602676  1
  La3+  La14  1  0.50659069  0.86485219  0.07572226  1
  La3+  La15  1  0.00239822  0.37130962  0.55742937  1
  La3+  La16  1  0.49667176  0.63348514  0.58979131  1
  La3+  La17  1  0.88125761  0.73996362  0.42851663  1
  Ce3+  Ce18  1  0.12148366  0.49360915  0.94799902  1
  Ce3+  Ce19  1  0.38163449  0.74507242  0.44729449  1
  Ce3+  Ce20  1  0.62205111  0.74161273  0.93591643  1
  Ce3+  Ce21  1  0.25184915  0.12371935  0.54843799  1
  Ce3+  Ce22  1  0.24887472  0.87474524  0.55388279  1
  Ce3+  Ce23  1  -0.00372372  0.12108814  0.06352584  1
  Ce3+  Ce24  1  0.87164069  0.49589768  0.94267108  1
  Ce3+  Ce25  1  0.12592538  -0.00282509  0.43442661  1
  Ce3+  Ce26  1  -0.00548702  0.62001102  0.06242866  1
  Ce3+  Ce27  1  0.62650051  0.50762651  0.45034810  1
  Ce3+  Ce28  1  0.38124042  0.24816867  0.43378834  1
  Ce3+  Ce29  1  0.24779671  0.36979154  0.06832526  1
  Ce3+  Ce30  1  0.50309829  0.11675477  0.55015804  1
  Ce3+  Ce31  1  0.75368480  0.87328299  0.55036497  1
  Ce3+  Ce32  1  0.62597400  0.24666147  0.44136262  1
  Ce3+  Ce33  1  0.37684954  0.74613476  0.94577192  1
  Ce3+  Ce34  1  0.74912459  0.37374277  0.55795197  1
  Ce3+  Ce35  1  0.25273883  0.62197349  0.56406692  1
  Ce3+  Ce36  1  0.37426668  0.24562223  0.95279907  1
  Ce3+  Ce37  1  0.25478663  0.36783735  0.55996325  1
  Pr3+  Pr38  1  0.12198662  0.24582429  0.94331178  1
  Pr3+  Pr39  1  0.37760607  -0.00646003  0.43206837  1
  Pr3+  Pr40  1  0.24732567  0.62079261  0.06152382  1
  Pr3+  Pr41  1  0.88663703  -0.00191145  0.43067149  1
  Pr3+  Pr42  1  0.38260216  0.49912272  0.44570513  1
  Pr3+  Pr43  1  0.86880616  0.24671335  0.94359192  1
  Pr3+  Pr44  1  0.00351986  0.87150273  0.55871110  1
  Pr3+  Pr45  1  0.87455758  0.25084117  0.42887676  1
  Pr3+  Pr46  1  0.24780640  0.87127020  0.05692356  1
  Pr3+  Pr47  1  -0.00526893  0.86902265  0.06583768  1
  Pr3+  Pr48  1  0.63711239  -0.01272084  0.40812441  1
  Pr3+  Pr49  1  0.11701519  -0.00494240  0.93592653  1
  Nd3+  Nd50  1  0.62124192  0.24234792  0.94113192  1
  Nd3+  Nd51  1  0.75363953  0.86909025  0.05952346  1
  Nd3+  Nd52  1  0.37261344  0.49523372  0.93898375  1
  Nd3+  Nd53  1  0.75098303  0.12024234  0.55135397  1
  Nd3+  Nd54  1  0.24823682  0.11563731  0.06742428  1
  Nd3+  Nd55  1  0.74460826  0.36810491  0.06182444  1
  Nd3+  Nd56  1  0.86998692  -0.00240261  0.93492425  1
  Nd3+  Nd57  1  0.49627071  0.37104052  0.06413566  1
  Sm3+  Sm58  1  0.12894848  0.49599258  0.44452374  1
  Sm3+  Sm59  1  0.49754544  0.10881071  0.06496042  1
  Sm3+  Sm60  1  0.12195670  0.74532707  0.94262838  1
  Sm3+  Sm61  1  0.87604230  0.49810252  0.44898424  1
  Sm3+  Sm62  1  0.62906593  0.74301436  0.43528681  1
  Sm3+  Sm63  1  0.49923626  0.61720843  0.05749760  1
  Bi2+  Bi64  1  0.01018016  0.11116093  0.27838010  1
  Bi2+  Bi65  1  0.02044819  0.12685731  0.79499868  1
  Bi2+  Bi66  1  -0.01958479  0.39678539  0.30968954  1
  Bi2+  Bi67  1  0.03827591  0.38154656  0.79428647  1
  Bi2+  Bi68  1  0.01191494  0.62585303  0.26599263  1
  Bi2+  Bi69  1  0.01392015  0.61935507  0.79262347  1
  Bi2+  Bi70  1  0.02755042  0.85628856  0.28606126  1
  Bi2+  Bi71  1  0.07981786  0.87872564  0.78814939  1
  Bi2+  Bi72  1  0.28780884  0.12392536  0.29901207  1
  Bi2+  Bi73  1  0.30453188  0.17304053  0.76877749  1
  Bi2+  Bi74  1  0.27751533  0.39047604  0.27457054  1
  Bi2+  Bi75  1  0.22786840  0.35395905  0.76760611  1
  Bi2+  Bi76  1  0.21032078  0.74574700  0.30094287  1
  Bi2+  Bi77  1  0.21131302  0.63647470  0.78616991  1
  Bi2+  Bi78  1  0.22538936  0.94302301  0.31590398  1
  Bi2+  Bi79  1  0.28000486  0.89292471  0.80261777  1
  Bi2+  Bi80  1  0.48544197  0.22694733  0.30334860  1
  Bi2+  Bi81  1  0.55598431  0.10509112  0.78724142  1
  Bi2+  Bi82  1  0.48376297  0.41879205  0.31439162  1
  Bi2+  Bi83  1  0.47340488  0.30778179  0.80177350  1
  Bi2+  Bi84  1  0.45395102  0.61626088  0.29598525  1
  Bi2+  Bi85  1  0.49320661  0.62526852  0.79796952  1
  Bi2+  Bi86  1  0.48423682  0.80601276  0.26997522  1
  Bi2+  Bi87  1  0.46714960  0.86688269  0.77555704  1
  Bi2+  Bi88  1  0.75188462  0.12359344  0.29880586  1
  Bi2+  Bi89  1  0.72938101  0.18601145  0.80891394  1
  Bi2+  Bi90  1  0.67001474  0.42839482  0.27024040  1
  Bi2+  Bi91  1  0.85287089  0.35700114  0.77240406  1
  Bi2+  Bi92  1  0.74156178  0.60322662  0.30463701  1
  Bi2+  Bi93  1  0.76105741  0.63665698  0.78843627  1
  Bi2+  Bi94  1  0.72606133  0.86562521  0.28476475  1
  Bi2+  Bi95  1  0.74144674  0.91788241  0.77583643  1
  Bi2+  Bi96  1  0.11021270  -0.00493084  0.20596623  1
  Bi2+  Bi97  1  0.20834475  0.02122261  0.71803114  1
  Bi2+  Bi98  1  0.11964706  0.25926829  0.21586389  1
  Bi2+  Bi99  1  0.12061317  0.24974769  0.68466294  1
  Bi2+  Bi100  1  0.19143163  0.56464498  0.25184348  1
  Bi2+  Bi101  1  0.12355166  0.58529519  0.68192470  1
  Bi2+  Bi102  1  0.12258000  0.80586819  0.18609242  1
  Bi2+  Bi103  1  0.12456891  0.77768450  0.69271161  1
  Bi2+  Bi104  1  0.36359081  -0.03077762  0.23078495  1
  Bi2+  Bi105  1  0.40967484  0.02392074  0.71651098  1
  Bi2+  Bi106  1  0.36658312  0.23116986  0.21091494  1
  Bi2+  Bi107  1  0.45039170  0.23738764  0.69236315  1
  Bi2+  Bi108  1  0.39806932  0.42229846  0.18762337  1
  Bi2+  Bi109  1  0.30299561  0.50837332  0.72012153  1
  Bi2+  Bi110  1  0.33082098  0.72276821  0.21162053  1
  Bi2+  Bi111  1  0.32625647  0.75957345  0.71969214  1
  Bi2+  Bi112  1  0.61300920  -0.00010581  0.20225631  1
  Bi2+  Bi113  1  0.66065068  0.02237738  0.69477989  1
  Bi2+  Bi114  1  0.62519079  0.25303919  0.21922085  1
  Bi2+  Bi115  1  0.64603049  0.21957518  0.70398919  1
  Bi2+  Bi116  1  0.55010877  0.54788353  0.20233995  1
  Bi2+  Bi117  1  0.62216812  0.46494242  0.71132128  1
  Bi2+  Bi118  1  0.64061878  0.73546458  0.20975422  1
  Bi2+  Bi119  1  0.63142503  0.73361810  0.70406808  1
  Bi2+  Bi120  1  0.91334255  -0.01306892  0.20975953  1
  Bi2+  Bi121  1  0.92376511  -0.02291487  0.75012590  1
  Bi2+  Bi122  1  0.87089217  0.26392011  0.21761910  1
  Bi2+  Bi123  1  0.88128868  0.21351087  0.69884466  1
  Bi2+  Bi124  1  0.81769451  0.51188147  0.21504057  1
  Bi2+  Bi125  1  0.94783778  0.49647301  0.70870642  1
  Bi2+  Bi126  1  0.89740843  0.74073018  0.20774497  1
  Bi2+  Bi127  1  0.88349796  0.78280070  0.70900436  1
  S2-  S128  1  -0.00832749  0.20775068  0.15081748  1
  S2-  S129  1  0.01647383  0.12908663  0.65979000  1
  S2-  S130  1  -0.05971205  0.41283381  0.18671453  1
  S2-  S131  1  -0.01774443  0.34762920  0.65594051  1
  S2-  S132  1  0.02193080  0.64451512  0.15852309  1
  S2-  S133  1  -0.09287327  0.65110279  0.64998595  1
  S2-  S134  1  -0.12692685  0.85765886  0.13840699  1
  S2-  S135  1  -0.03203294  0.89761974  0.65717431  1
  S2-  S136  1  0.23095868  0.15619450  0.16545700  1
  S2-  S137  1  0.23955895  0.14266897  0.64579937  1
  S2-  S138  1  0.15396201  0.37332739  0.15125308  1
  S2-  S139  1  0.23391046  0.37870060  0.65732024  1
  S2-  S140  1  0.26786944  0.59091630  0.16084194  1
  S2-  S141  1  0.34122029  0.62956338  0.64811290  1
  S2-  S142  1  0.25244849  0.91201873  0.15505966  1
  S2-  S143  1  0.24821872  0.88413173  0.65231205  1
  S2-  S144  1  0.59204172  0.13611245  0.14628324  1
  S2-  S145  1  0.51715111  0.01918559  0.63176128  1
  S2-  S146  1  0.55619915  0.36140894  0.15776670  1
  S2-  S147  1  0.47617800  0.39917848  0.66753673  1
  S2-  S148  1  0.50609135  0.69183798  0.14606902  1
  S2-  S149  1  0.52829988  0.59744658  0.69411458  1
  S2-  S150  1  0.46714809  0.98302991  0.14956019  1
  S2-  S151  1  0.51366652  0.78559356  0.64806668  1
  S2-  S152  1  0.77719930  0.05885046  0.17931687  1
  S2-  S153  1  0.80037451  0.09574029  0.64641259  1
  S2-  S154  1  0.76029196  0.27555007  0.14723086  1
  S2-  S155  1  0.71720304  0.35456556  0.65363329  1
  S2-  S156  1  0.77197745  0.64896352  0.15509815  1
  S2-  S157  1  0.72227392  0.58630758  0.68173857  1
  S2-  S158  1  0.64904775  0.86597885  0.14213412  1
  S2-  S159  1  0.75207085  0.80496227  0.64133159  1
  S2-  S160  1  0.01692076  -0.00023352  0.35749589  1
  S2-  S161  1  0.22829738  0.02045719  0.85824181  1
  S2-  S162  1  0.07384310  0.25078166  0.32346194  1
  S2-  S163  1  0.11221223  0.23486418  0.84190382  1
  S2-  S164  1  0.10768051  0.46682904  0.34815268  1
  S2-  S165  1  0.11859034  0.50755001  0.84992950  1
  S2-  S166  1  0.01112709  0.72244053  0.35394923  1
  S2-  S167  1  0.03723395  0.75326735  0.85706139  1
  S2-  S168  1  0.40208158  -0.00262906  0.33226795  1
  S2-  S169  1  0.50419358  -0.02466735  0.85402650  1
  S2-  S170  1  0.27955586  0.26866668  0.35442747  1
  S2-  S171  1  0.38314613  0.18983535  0.86066633  1
  S2-  S172  1  0.34138431  0.50827781  0.34712166  1
  S2-  S173  1  0.45000831  0.48242758  0.84922918  1
  S2-  S174  1  0.38243222  0.75317536  0.34981848  1
  S2-  S175  1  0.40107726  0.72429810  0.84943148  1
  S2-  S176  1  0.61575662  0.03912693  0.30659928  1
  S2-  S177  1  0.74785183  0.01265798  0.85968057  1
  S2-  S178  1  0.64672172  0.24312151  0.34472608  1
  S2-  S179  1  0.61392228  0.31998860  0.85066541  1
  S2-  S180  1  0.61212918  0.60905193  0.37070767  1
  S2-  S181  1  0.67579069  0.50693188  0.80821608  1
  S2-  S182  1  0.60318216  0.83946714  0.35129706  1
  S2-  S183  1  0.62521144  0.71092232  0.83750078  1
  S2-  S184  1  0.79485248  -0.01326052  0.34524618  1
  S2-  S185  1  0.99208153  -0.00843799  0.86058807  1
  S2-  S186  1  0.86105401  0.26284200  0.32668893  1
  S2-  S187  1  0.88430459  0.19778579  0.84604979  1
  S2-  S188  1  0.87574109  0.50843501  0.35061454  1
  S2-  S189  1  0.87869238  0.58332220  0.85711835  1
  S2-  S190  1  0.79805564  0.75045664  0.33808890  1
  S2-  S191  1  0.83162182  0.79511211  0.81986542  1
  S2-  S192  1  0.00423490  0.13349650  0.44977490  1
  S2-  S193  1  -0.00379450  0.12381595  0.95846680  1
  S2-  S194  1  0.00124856  0.37397215  0.45026733  1
  S2-  S195  1  -0.00403078  0.37106883  0.94979999  1
  S2-  S196  1  0.00513371  0.61370198  0.45939341  1
  S2-  S197  1  0.00163435  0.61845293  0.95801272  1
  S2-  S198  1  0.00646890  0.86837956  0.45243851  1
  S2-  S199  1  -0.00302454  0.86712382  0.95976306  1
  S2-  S200  1  0.25226745  0.12028803  0.44389467  1
  S2-  S201  1  0.24613394  0.12359253  0.96144835  1
  S2-  S202  1  0.25523761  0.37705639  0.45508096  1
  S2-  S203  1  0.24914847  0.37049500  0.95669310  1
  S2-  S204  1  0.25191143  0.61995905  0.45461982  1
  S2-  S205  1  0.24764428  0.62165190  0.95264827  1
  S2-  S206  1  0.25134723  0.87008190  0.44825584  1
  S2-  S207  1  0.24621416  0.86688994  0.95018148  1
  S2-  S208  1  0.50465159  0.11838359  0.44314434  1
  S2-  S209  1  0.49873458  0.12035524  0.95934671  1
  S2-  S210  1  0.50564202  0.37346899  0.45762414  1
  S2-  S211  1  0.49697281  0.37194370  0.95815075  1
  S2-  S212  1  0.49961681  0.62488648  0.47122057  1
  S2-  S213  1  0.49989164  0.61445308  0.95358506  1
  S2-  S214  1  0.50218313  0.87191610  0.45373153  1
  S2-  S215  1  0.49879672  0.86541328  0.95905947  1
  S2-  S216  1  0.75395196  0.12297072  0.44438580  1
  S2-  S217  1  0.74610973  0.12475395  0.96315317  1
  S2-  S218  1  0.74996533  0.37654391  0.45019910  1
  S2-  S219  1  0.74292537  0.37396209  0.95335583  1
  S2-  S220  1  0.75711858  0.62154351  0.46357910  1
  S2-  S221  1  0.73750831  0.60899030  0.94831438  1
  S2-  S222  1  0.75562038  0.86751468  0.44742904  1
  S2-  S223  1  0.75137448  0.86147780  0.95077502  1
  S2-  S224  1  0.12066422  -0.00488345  0.04840408  1
  S2-  S225  1  0.12482687  0.00031329  0.54376774  1
  S2-  S226  1  0.12568875  0.24315255  0.04923305  1
  S2-  S227  1  0.12820024  0.24848389  0.53712222  1
  S2-  S228  1  0.12075642  0.49592241  0.05315751  1
  S2-  S229  1  0.12997861  0.49446885  0.54966754  1
  S2-  S230  1  0.12195865  0.74491019  0.04723881  1
  S2-  S231  1  0.12841395  0.74685044  0.54264817  1
  S2-  S232  1  0.37091621  -0.00500462  0.04016858  1
  S2-  S233  1  0.37240475  -0.00146916  0.53973951  1
  S2-  S234  1  0.37457717  0.24100235  0.05915297  1
  S2-  S235  1  0.38026198  0.24495143  0.54264794  1
  S2-  S236  1  0.37235037  0.49672821  0.04694894  1
  S2-  S237  1  0.37727268  0.49472964  0.55288524  1
  S2-  S238  1  0.37294087  0.74447441  0.05139046  1
  S2-  S239  1  0.37283353  0.75397670  0.55021538  1
  S2-  S240  1  0.62612908  -0.00416619  0.04303543  1
  S2-  S241  1  0.63365987  -0.00209535  0.52905779  1
  S2-  S242  1  0.61729052  0.24785098  0.04514783  1
  S2-  S243  1  0.62640765  0.24259854  0.54807417  1
  S2-  S244  1  0.62063079  0.49451686  0.05630159  1
  S2-  S245  1  0.62675017  0.50406282  0.55782823  1
  S2-  S246  1  0.62451682  0.73924480  0.04132382  1
  S2-  S247  1  0.62938234  0.74866391  0.54192062  1
  S2-  S248  1  0.87179331  0.00085027  0.04472019  1
  S2-  S249  1  0.87968141  -0.00265463  0.53868932  1
  S2-  S250  1  0.87562067  0.24897183  0.04829637  1
  S2-  S251  1  0.87221848  0.24900253  0.53939710  1
  S2-  S252  1  0.87544420  0.48790545  0.05238860  1
  S2-  S253  1  0.87441368  0.49712576  0.55441800  1
  S2-  S254  1  0.87434187  0.73943253  0.03609424  1
  S2-  S255  1  0.88164199  0.75030724  0.53879561  1
