# generated using pymatgen
data_La9Ce10Pr6Nd4Sm3(BiS2)32
_symmetry_space_group_name_H-M   'P 1'
_cell_length_a   16.22464448
_cell_length_b   16.20997725
_cell_length_c   27.11137567
_cell_angle_alpha   90.20522838
_cell_angle_beta   89.99073721
_cell_angle_gamma   90.01389963
_symmetry_Int_Tables_number   1
_chemical_formula_structural   La9Ce10Pr6Nd4Sm3(BiS2)32
_chemical_formula_sum   'La18 Ce20 Pr12 Nd8 Sm6 Bi64 S128'
_cell_volume   7130.27606520
_cell_formula_units_Z   2
loop_
 _symmetry_equiv_pos_site_id
 _symmetry_equiv_pos_as_xyz
  1  'x, y, z'
loop_
 _atom_type_symbol
 _atom_type_oxidation_number
  La3+  3.0
  Ce3+  3.0
  Pr3+  3.0
  Nd3+  3.0
  Sm3+  3.0
  Bi2+  2.0
  S2-  -2.0
loop_
 _atom_site_type_symbol
 _atom_site_label
 _atom_site_symmetry_multiplicity
 _atom_site_fract_x
 _atom_site_fract_y
 _atom_site_fract_z
 _atom_site_occupancy
  La3+  La0  1  0.14290627  0.74832113  0.89707738  1
  La3+  La1  1  0.36941693  -0.00384431  0.42690677  1
  La3+  La2  1  0.49467521  0.12300529  0.57614220  1
  La3+  La3  1  0.11645430  -0.01310443  0.42771860  1
  La3+  La4  1  0.63709278  0.74851203  0.93350451  1
  La3+  La5  1  0.61033824  0.48586287  0.40589537  1
  La3+  La6  1  0.39138986  0.01319607  0.92291306  1
  La3+  La7  1  0.51637515  0.37487672  0.07551886  1
  La3+  La8  1  0.38884585  0.74970137  0.92567431  1
  La3+  La9  1  0.63587158  0.25645288  0.92239252  1
  La3+  La10  1  0.39304407  0.49445022  0.93634002  1
  La3+  La11  1  0.87052715  0.75037113  0.39556040  1
  La3+  La12  1  0.25361326  0.38300245  0.09543517  1
  La3+  La13  1  0.88814306  0.74354108  0.92330593  1
  La3+  La14  1  0.25195388  0.11111171  0.09323757  1
  La3+  La15  1  0.50876040  0.87832281  0.05972117  1
  La3+  La16  1  0.76802781  0.63293705  0.08413360  1
  La3+  La17  1  0.13304675  0.00864155  0.91468946  1
  Ce3+  Ce18  1  0.24524330  0.11562688  0.55576163  1
  Ce3+  Ce19  1  0.86949777  0.49845413  0.43471668  1
  Ce3+  Ce20  1  0.74501206  0.36956989  0.55515917  1
  Ce3+  Ce21  1  0.87227832  0.24378432  0.44197026  1
  Ce3+  Ce22  1  0.62603728  0.74487808  0.43714220  1
  Ce3+  Ce23  1  0.01648219  0.87356046  0.04546774  1
  Ce3+  Ce24  1  0.63512838  0.00144301  0.94292137  1
  Ce3+  Ce25  1  0.01561200  0.37338855  0.05091648  1
  Ce3+  Ce26  1  0.76396570  0.12568737  0.05066798  1
  Ce3+  Ce27  1  -0.00383373  0.36921583  0.55332586  1
  Ce3+  Ce28  1  0.88451949  0.50443629  0.94723966  1
  Ce3+  Ce29  1  0.62316773  -0.00916779  0.45462169  1
  Ce3+  Ce30  1  0.24516097  0.36665842  0.56196518  1
  Ce3+  Ce31  1  0.24531439  0.62105189  0.56507366  1
  Ce3+  Ce32  1  0.49711554  0.36652531  0.56182080  1
  Ce3+  Ce33  1  0.12313310  0.74543093  0.43659812  1
  Ce3+  Ce34  1  0.13761441  0.50182262  0.93403270  1
  Ce3+  Ce35  1  0.76152447  0.37125653  0.06616423  1
  Ce3+  Ce36  1  0.14057388  0.24693080  0.94083900  1
  Ce3+  Ce37  1  0.50895548  0.62605270  0.06256765  1
  Pr3+  Pr38  1  0.74896207  0.86203679  0.57004724  1
  Pr3+  Pr39  1  0.01473760  0.62438556  0.06199806  1
  Pr3+  Pr40  1  0.49591859  0.61804839  0.55618896  1
  Pr3+  Pr41  1  0.51115565  0.12842646  0.06353654  1
  Pr3+  Pr42  1  0.62098267  0.23827830  0.43621856  1
  Pr3+  Pr43  1  0.26005023  0.87650859  0.04483667  1
  Pr3+  Pr44  1  0.76856023  0.87733633  0.06702187  1
  Pr3+  Pr45  1  0.37385775  0.24116522  0.43388186  1
  Pr3+  Pr46  1  0.74678508  0.11909106  0.56550514  1
  Pr3+  Pr47  1  0.12428241  0.24679724  0.43360001  1
  Pr3+  Pr48  1  -0.00891099  0.86242453  0.56670174  1
  Pr3+  Pr49  1  0.37037104  0.74719975  0.43729730  1
  Nd3+  Nd50  1  0.74339600  0.61541751  0.55075093  1
  Nd3+  Nd51  1  0.86945478  -0.00659474  0.44327003  1
  Nd3+  Nd52  1  0.88444167  -0.00625336  0.93035317  1
  Nd3+  Nd53  1  0.88465832  0.25152427  0.93260456  1
  Nd3+  Nd54  1  0.01336343  0.12487798  0.05858015  1
  Nd3+  Nd55  1  -0.00160808  0.11840765  0.55790484  1
  Nd3+  Nd56  1  0.36994579  0.49211440  0.44141990  1
  Nd3+  Nd57  1  0.23810418  0.87171647  0.56899670  1
  Sm3+  Sm58  1  0.63768342  0.50113985  0.95236909  1
  Sm3+  Sm59  1  0.12039016  0.49876890  0.44488530  1
  Sm3+  Sm60  1  0.49109731  0.86755152  0.56260905  1
  Sm3+  Sm61  1  0.26271405  0.62331135  0.05556114  1
  Sm3+  Sm62  1  -0.00560975  0.61947282  0.55238431  1
  Sm3+  Sm63  1  0.38200956  0.25155822  0.95849106  1
  Bi2+  Bi64  1  -0.02556991  0.13271164  0.28391457  1
  Bi2+  Bi65  1  -0.02020492  0.18462184  0.80233889  1
  Bi2+  Bi66  1  -0.02884582  0.36283806  0.28972785  1
  Bi2+  Bi67  1  0.01233428  0.38087015  0.80496521  1
  Bi2+  Bi68  1  0.01742878  0.60909554  0.29888069  1
  Bi2+  Bi69  1  -0.00997726  0.59832214  0.79037749  1
  Bi2+  Bi70  1  -0.00055812  0.94165342  0.29168622  1
  Bi2+  Bi71  1  -0.01841792  0.89384127  0.79144507  1
  Bi2+  Bi72  1  0.26352678  0.16318209  0.29979153  1
  Bi2+  Bi73  1  0.21712014  0.16344182  0.76309438  1
  Bi2+  Bi74  1  0.21030477  0.42901572  0.26189166  1
  Bi2+  Bi75  1  0.20153003  0.36208932  0.76697208  1
  Bi2+  Bi76  1  0.21268669  0.65717912  0.31983689  1
  Bi2+  Bi77  1  0.25214033  0.60830154  0.77384763  1
  Bi2+  Bi78  1  0.23779023  0.88802591  0.29046830  1
  Bi2+  Bi79  1  0.26839441  0.86035445  0.77109707  1
  Bi2+  Bi80  1  0.55434686  0.18117857  0.30907058  1
  Bi2+  Bi81  1  0.47035463  0.12141267  0.79683694  1
  Bi2+  Bi82  1  0.45316102  0.34593897  0.30069282  1
  Bi2+  Bi83  1  0.45499263  0.35794312  0.81503166  1
  Bi2+  Bi84  1  0.41057100  0.67067858  0.31578806  1
  Bi2+  Bi85  1  0.49807230  0.59828820  0.80008314  1
  Bi2+  Bi86  1  0.50161745  0.91278992  0.29309698  1
  Bi2+  Bi87  1  0.53839124  0.84728650  0.76900106  1
  Bi2+  Bi88  1  0.74562069  0.10167446  0.28805606  1
  Bi2+  Bi89  1  0.79420636  0.12123685  0.79340757  1
  Bi2+  Bi90  1  0.78515509  0.37362522  0.26513680  1
  Bi2+  Bi91  1  0.81525739  0.39611596  0.78772772  1
  Bi2+  Bi92  1  0.75624900  0.63565507  0.27266914  1
  Bi2+  Bi93  1  0.73238204  0.66749607  0.80609752  1
  Bi2+  Bi94  1  0.72839776  0.89196594  0.28926179  1
  Bi2+  Bi95  1  0.69936984  0.94030831  0.81738934  1
  Bi2+  Bi96  1  0.11178771  -0.02772556  0.20144975  1
  Bi2+  Bi97  1  0.11971239  0.02055533  0.70514767  1
  Bi2+  Bi98  1  0.09213658  0.26437135  0.21220587  1
  Bi2+  Bi99  1  0.07299300  0.21277726  0.68670192  1
  Bi2+  Bi100  1  0.10448913  0.54765044  0.18984803  1
  Bi2+  Bi101  1  0.07815887  0.48183662  0.71171901  1
  Bi2+  Bi102  1  0.13553015  0.73682224  0.22102538  1
  Bi2+  Bi103  1  0.12020484  0.73044059  0.69871344  1
  Bi2+  Bi104  1  0.38767484  -0.02314281  0.19993958  1
  Bi2+  Bi105  1  0.36796328  -0.01049164  0.71435665  1
  Bi2+  Bi106  1  0.42117220  0.24415319  0.20129859  1
  Bi2+  Bi107  1  0.36067186  0.28827280  0.71106974  1
  Bi2+  Bi108  1  0.34737675  0.55066890  0.23415803  1
  Bi2+  Bi109  1  0.45682374  0.46417325  0.71454496  1
  Bi2+  Bi110  1  0.32579651  0.74612423  0.21477420  1
  Bi2+  Bi111  1  0.41359427  0.72232873  0.69875078  1
  Bi2+  Bi112  1  0.61725562  -0.01780524  0.20794047  1
  Bi2+  Bi113  1  0.64758722  0.02083268  0.71796062  1
  Bi2+  Bi114  1  0.66170508  0.24112268  0.21875169  1
  Bi2+  Bi115  1  0.63358654  0.27687060  0.70892996  1
  Bi2+  Bi116  1  0.59364817  0.48733099  0.21145943  1
  Bi2+  Bi117  1  0.64340795  0.49213173  0.75933304  1
  Bi2+  Bi118  1  0.53118002  0.74237861  0.23494745  1
  Bi2+  Bi119  1  0.66738809  0.75457875  0.70636555  1
  Bi2+  Bi120  1  0.80837991  -0.00513891  0.19483901  1
  Bi2+  Bi121  1  0.83859761  -0.02345242  0.72090888  1
  Bi2+  Bi122  1  0.89538260  0.25608452  0.19795376  1
  Bi2+  Bi123  1  0.89111027  0.27300265  0.71107366  1
  Bi2+  Bi124  1  0.91261081  0.49930085  0.21234817  1
  Bi2+  Bi125  1  0.83704306  0.55207127  0.71640969  1
  Bi2+  Bi126  1  0.88222022  0.78878464  0.19717992  1
  Bi2+  Bi127  1  0.85696242  0.75189833  0.72902584  1
  S2-  S128  1  0.09843374  0.11814033  0.14696730  1
  S2-  S129  1  -0.01793484  0.07582418  0.65525739  1
  S2-  S130  1  0.08355123  0.38843544  0.13986562  1
  S2-  S131  1  -0.02235433  0.39101104  0.65079341  1
  S2-  S132  1  -0.08033210  0.64261226  0.14770569  1
  S2-  S133  1  0.01103398  0.65119350  0.64994415  1
  S2-  S134  1  -0.00357106  0.89028611  0.14369581  1
  S2-  S135  1  0.10463296  0.87398699  0.64452912  1
  S2-  S136  1  0.30172854  0.11183991  0.19912872  1
  S2-  S137  1  0.26056965  0.08377011  0.65181587  1
  S2-  S138  1  0.25957047  0.30688330  0.18853946  1
  S2-  S139  1  0.24480534  0.38012260  0.65992837  1
  S2-  S140  1  0.26485231  0.54084580  0.14373899  1
  S2-  S141  1  0.25259673  0.62634296  0.66530722  1
  S2-  S142  1  0.25186936  0.94427540  0.13869346  1
  S2-  S143  1  0.31122777  0.84973513  0.66087611  1
  S2-  S144  1  0.50891852  0.09538994  0.16321554  1
  S2-  S145  1  0.49642188  0.05930798  0.67215251  1
  S2-  S146  1  0.44646108  0.39284125  0.16904734  1
  S2-  S147  1  0.50003193  0.26695923  0.64325980  1
  S2-  S148  1  0.51698567  0.61355116  0.16124692  1
  S2-  S149  1  0.49861478  0.60312491  0.65766919  1
  S2-  S150  1  0.49594477  0.84830717  0.15879923  1
  S2-  S151  1  0.52546364  0.83282996  0.65816533  1
  S2-  S152  1  0.76680764  0.15511630  0.14738808  1
  S2-  S153  1  0.71457983  0.15637505  0.66333291  1
  S2-  S154  1  0.65406251  0.36210781  0.14438266  1
  S2-  S155  1  0.71625853  0.37388523  0.65245230  1
  S2-  S156  1  0.72741338  0.55994381  0.18041873  1
  S2-  S157  1  0.72954410  0.62195850  0.65062495  1
  S2-  S158  1  0.74523908  0.77525399  0.14825252  1
  S2-  S159  1  0.86850507  0.85819608  0.64553201  1
  S2-  S160  1  0.22103760  0.02625791  0.34599010  1
  S2-  S161  1  0.14358074  -0.10274616  0.83216144  1
  S2-  S162  1  0.10980241  0.21235961  0.33432099  1
  S2-  S163  1  0.15143552  0.16053828  0.85475735  1
  S2-  S164  1  0.14180148  0.49550713  0.34658865  1
  S2-  S165  1  0.14157368  0.58509530  0.84614821  1
  S2-  S166  1  0.10825098  0.85177517  0.35807282  1
  S2-  S167  1  0.00236748  0.74347046  0.83829474  1
  S2-  S168  1  0.40308270  0.12202448  0.35627536  1
  S2-  S169  1  0.34395364  -0.00429578  0.82288820  1
  S2-  S170  1  0.30687305  0.31289413  0.34662722  1
  S2-  S171  1  0.38073092  0.22852085  0.85923657  1
  S2-  S172  1  0.45086952  0.48886235  0.35316526  1
  S2-  S173  1  0.35589828  0.51368699  0.83667260  1
  S2-  S174  1  0.37181919  0.86512965  0.35839523  1
  S2-  S175  1  0.29206898  0.73774656  0.83787056  1
  S2-  S176  1  0.62192864  -0.01596558  0.35683744  1
  S2-  S177  1  0.54574375  0.01986756  0.85900172  1
  S2-  S178  1  0.61484395  0.33277649  0.35066617  1
  S2-  S179  1  0.57718676  0.23878139  0.82047085  1
  S2-  S180  1  0.64370164  0.54427399  0.30778420  1
  S2-  S181  1  0.57843705  0.46844230  0.86101474  1
  S2-  S182  1  0.71087249  0.75065656  0.34936272  1
  S2-  S183  1  0.52003057  0.74720257  0.85240948  1
  S2-  S184  1  0.86586911  -0.08025583  0.35313918  1
  S2-  S185  1  0.98534296  0.02863585  0.84906753  1
  S2-  S186  1  0.85034062  0.18223979  0.35144853  1
  S2-  S187  1  0.77359424  0.26591849  0.85498075  1
  S2-  S188  1  0.86374673  0.58192156  0.34845424  1
  S2-  S189  1  0.86002062  0.58936012  0.86210943  1
  S2-  S190  1  0.93988889  0.75085212  0.29553747  1
  S2-  S191  1  0.84515894  0.87312004  0.85627364  1
  S2-  S192  1  -0.00287834  0.11850694  0.45009910  1
  S2-  S193  1  0.00685509  0.13134412  0.95376982  1
  S2-  S194  1  -0.00204387  0.37295257  0.44548660  1
  S2-  S195  1  0.01061267  0.37547126  0.94572643  1
  S2-  S196  1  -0.00341292  0.62245034  0.44670471  1
  S2-  S197  1  0.01538078  0.62377866  0.95481173  1
  S2-  S198  1  -0.01365358  0.86221802  0.45720352  1
  S2-  S199  1  0.01806111  0.87046375  0.94319776  1
  S2-  S200  1  0.24280939  0.12077907  0.45250588  1
  S2-  S201  1  0.26576405  0.12624033  0.95635255  1
  S2-  S202  1  0.24193251  0.37489012  0.45632934  1
  S2-  S203  1  0.26104922  0.37420191  0.94376439  1
  S2-  S204  1  0.24789803  0.61739809  0.45653239  1
  S2-  S205  1  0.26439163  0.62487262  0.95168199  1
  S2-  S206  1  0.24479912  0.86857305  0.46002193  1
  S2-  S207  1  0.26590105  0.87941460  0.94020094  1
  S2-  S208  1  0.50100164  0.11568830  0.46513590  1
  S2-  S209  1  0.51381282  0.13565164  0.95780806  1
  S2-  S210  1  0.49481311  0.36575679  0.45660551  1
  S2-  S211  1  0.51315574  0.37064067  0.96538230  1
  S2-  S212  1  0.49833408  0.61981169  0.44988774  1
  S2-  S213  1  0.51284923  0.62280805  0.95651044  1
  S2-  S214  1  0.50057778  0.86693315  0.45794974  1
  S2-  S215  1  0.50962712  0.87769155  0.95257760  1
  S2-  S216  1  0.74691737  0.11737405  0.45780002  1
  S2-  S217  1  0.76191280  0.12241542  0.94584058  1
  S2-  S218  1  0.74835952  0.36971546  0.44698217  1
  S2-  S219  1  0.76117407  0.37991888  0.95867284  1
  S2-  S220  1  0.73565371  0.60961413  0.44634723  1
  S2-  S221  1  0.75667426  0.62472725  0.96564745  1
  S2-  S222  1  0.74866331  0.86641552  0.46132803  1
  S2-  S223  1  0.75433623  0.87519073  0.96088717  1
  S2-  S224  1  0.13449122  0.00278803  0.03345058  1
  S2-  S225  1  0.11815207  -0.00521913  0.53958877  1
  S2-  S226  1  0.14220362  0.24976260  0.04733874  1
  S2-  S227  1  0.12021955  0.24397300  0.54294831  1
  S2-  S228  1  0.14016604  0.50004356  0.03888156  1
  S2-  S229  1  0.11995570  0.49588848  0.55011295  1
  S2-  S230  1  0.14141260  0.74673790  0.05532507  1
  S2-  S231  1  0.12118109  0.74016958  0.54286721  1
  S2-  S232  1  0.38609353  0.00605880  0.04289741  1
  S2-  S233  1  0.37186362  -0.00971922  0.54635852  1
  S2-  S234  1  0.37782109  0.24954559  0.06382262  1
  S2-  S235  1  0.36627678  0.24341134  0.54410247  1
  S2-  S236  1  0.38574882  0.49717816  0.04653185  1
  S2-  S237  1  0.36961686  0.49245799  0.54932458  1
  S2-  S238  1  0.38342004  0.74841160  0.04379706  1
  S2-  S239  1  0.37099395  0.74407590  0.54560641  1
  S2-  S240  1  0.63790592  0.00193071  0.05120669  1
  S2-  S241  1  0.62218495  -0.01148071  0.56103243  1
  S2-  S242  1  0.64006553  0.24726299  0.04036705  1
  S2-  S243  1  0.62481216  0.24334085  0.54317233  1
  S2-  S244  1  0.63974518  0.50576258  0.05475364  1
  S2-  S245  1  0.61805802  0.49067901  0.54601953  1
  S2-  S246  1  0.63164957  0.75112570  0.04485093  1
  S2-  S247  1  0.62009402  0.74392302  0.54569953  1
  S2-  S248  1  0.88988340  0.00181127  0.03923134  1
  S2-  S249  1  0.87014782  -0.00450368  0.54897162  1
  S2-  S250  1  0.88919075  0.25071968  0.04138415  1
  S2-  S251  1  0.87189756  0.24286896  0.54956091  1
  S2-  S252  1  0.88781156  0.49562244  0.05259453  1
  S2-  S253  1  0.87184242  0.49517576  0.54270533  1
  S2-  S254  1  0.88992223  0.75277457  0.03822905  1
  S2-  S255  1  0.86830031  0.73378613  0.54579838  1
