# generated using pymatgen
data_La9Ce10Pr6Nd4Sm3(BiS2)32
_symmetry_space_group_name_H-M   'P 1'
_cell_length_a   16.08314321
_cell_length_b   16.08846193
_cell_length_c   27.22524401
_cell_angle_alpha   89.46777780
_cell_angle_beta   90.04426862
_cell_angle_gamma   89.86931307
_symmetry_Int_Tables_number   1
_chemical_formula_structural   La9Ce10Pr6Nd4Sm3(BiS2)32
_chemical_formula_sum   'La18 Ce20 Pr12 Nd8 Sm6 Bi64 S128'
_cell_volume   7044.29010769
_cell_formula_units_Z   2
loop_
 _symmetry_equiv_pos_site_id
 _symmetry_equiv_pos_as_xyz
  1  'x, y, z'
loop_
 _atom_type_symbol
 _atom_type_oxidation_number
  La3+  3.0
  Ce3+  3.0
  Pr3+  3.0
  Nd3+  3.0
  Sm3+  3.0
  Bi2+  2.0
  S2-  -2.0
loop_
 _atom_site_type_symbol
 _atom_site_label
 _atom_site_symmetry_multiplicity
 _atom_site_fract_x
 _atom_site_fract_y
 _atom_site_fract_z
 _atom_site_occupancy
  La3+  La0  1  0.62059765  0.76637225  0.42826477  1
  La3+  La1  1  0.00817363  0.61061678  0.07839135  1
  La3+  La2  1  0.73816367  0.86621715  0.08103034  1
  La3+  La3  1  0.75571743  0.13328808  0.58508699  1
  La3+  La4  1  0.50000862  0.87297276  0.57501259  1
  La3+  La5  1  0.49110289  0.36782368  0.08209508  1
  La3+  La6  1  0.37837707  0.00154870  0.42899684  1
  La3+  La7  1  0.62732944  0.25386237  0.43189287  1
  La3+  La8  1  0.24520953  0.63058719  0.59411869  1
  La3+  La9  1  0.00552466  0.88047927  0.56394086  1
  La3+  La10  1  0.74977531  0.87859204  0.56929316  1
  La3+  La11  1  0.11272899  0.49720182  0.91846398  1
  La3+  La12  1  0.49109188  0.61975383  0.06066661  1
  La3+  La13  1  0.37271241  0.50237301  0.43111229  1
  La3+  La14  1  0.12345531  0.51309848  0.42812328  1
  La3+  La15  1  0.88124885  0.01106408  0.42347135  1
  La3+  La16  1  0.11529611  0.24745371  0.92897810  1
  La3+  La17  1  0.36569079  0.76263730  0.91073112  1
  Ce3+  Ce18  1  0.24955683  0.13014499  0.56848514  1
  Ce3+  Ce19  1  0.86798198  0.49946403  0.94618638  1
  Ce3+  Ce20  1  0.87115927  0.74484504  0.94760352  1
  Ce3+  Ce21  1  0.61753752  0.75237959  0.94033677  1
  Ce3+  Ce22  1  0.50188070  0.62023678  0.56540448  1
  Ce3+  Ce23  1  0.63049063  0.01165294  0.44336236  1
  Ce3+  Ce24  1  0.61937149  0.50423996  0.42303448  1
  Ce3+  Ce25  1  0.87343702  0.75994061  0.43012707  1
  Ce3+  Ce26  1  0.50179921  0.38286016  0.56160515  1
  Ce3+  Ce27  1  -0.00820258  0.12230013  0.06494622  1
  Ce3+  Ce28  1  0.37323764  0.25941745  0.45310802  1
  Ce3+  Ce29  1  0.24504290  0.37028408  0.05875493  1
  Ce3+  Ce30  1  0.73715597  0.37289174  0.06942567  1
  Ce3+  Ce31  1  0.24012478  0.62221763  0.04340093  1
  Ce3+  Ce32  1  0.50397642  0.12990918  0.56399471  1
  Ce3+  Ce33  1  0.12739959  0.75411563  0.44412122  1
  Ce3+  Ce34  1  0.87899081  0.25461356  0.43809330  1
  Ce3+  Ce35  1  0.49612946  0.11732999  0.05343083  1
  Ce3+  Ce36  1  0.37035257  0.49731807  0.93622917  1
  Ce3+  Ce37  1  0.75091669  0.37967933  0.55108982  1
  Pr3+  Pr38  1  0.24526206  0.86750122  0.06431963  1
  Pr3+  Pr39  1  0.62296643  0.24630303  0.92193492  1
  Pr3+  Pr40  1  0.00182698  0.38512351  0.55836794  1
  Pr3+  Pr41  1  0.13057684  0.00806493  0.43096052  1
  Pr3+  Pr42  1  0.87825548  0.51412731  0.41899020  1
  Pr3+  Pr43  1  0.62556164  -0.00868265  0.92645625  1
  Pr3+  Pr44  1  0.86650932  0.24667535  0.93945314  1
  Pr3+  Pr45  1  0.11079824  0.74707498  0.92405589  1
  Pr3+  Pr46  1  0.00320199  0.12937482  0.56318329  1
  Pr3+  Pr47  1  0.24583652  0.38881500  0.57657778  1
  Pr3+  Pr48  1  0.75018799  0.62547027  0.54987560  1
  Pr3+  Pr49  1  -0.00805567  0.63374190  0.56804441  1
  Nd3+  Nd50  1  0.37258003  0.24792732  0.93520446  1
  Nd3+  Nd51  1  0.73642360  0.12331760  0.05991603  1
  Nd3+  Nd52  1  0.37630148  0.75321877  0.44861545  1
  Nd3+  Nd53  1  0.36984290  0.00573109  0.93225879  1
  Nd3+  Nd54  1  0.74411575  0.61768075  0.06839103  1
  Nd3+  Nd55  1  -0.00953059  0.86772842  0.07218341  1
  Nd3+  Nd56  1  0.61779451  0.49395944  0.93616615  1
  Nd3+  Nd57  1  0.25606900  0.88246064  0.56894603  1
  Sm3+  Sm58  1  0.86634154  -0.00561734  0.94849176  1
  Sm3+  Sm59  1  0.48897369  0.86450645  0.07117716  1
  Sm3+  Sm60  1  0.13059834  0.25756298  0.44449432  1
  Sm3+  Sm61  1  -0.00502232  0.36871914  0.05820102  1
  Sm3+  Sm62  1  0.11780098  -0.00641563  0.95160429  1
  Sm3+  Sm63  1  0.24474403  0.12035949  0.05564124  1
  Bi2+  Bi64  1  0.05979518  0.13276450  0.28843284  1
  Bi2+  Bi65  1  0.01579350  0.10738926  0.79740852  1
  Bi2+  Bi66  1  -0.00283047  0.34213218  0.22219787  1
  Bi2+  Bi67  1  0.01185760  0.36522023  0.79122213  1
  Bi2+  Bi68  1  0.00848930  0.61672835  0.29414221  1
  Bi2+  Bi69  1  -0.03141397  0.61934817  0.79478026  1
  Bi2+  Bi70  1  0.01550406  0.84231016  0.27162389  1
  Bi2+  Bi71  1  -0.02968563  0.86327838  0.77842390  1
  Bi2+  Bi72  1  0.30374172  0.14943137  0.29034594  1
  Bi2+  Bi73  1  0.23976792  0.15376866  0.78628352  1
  Bi2+  Bi74  1  0.24119470  0.36109932  0.29674796  1
  Bi2+  Bi75  1  0.28813506  0.36924350  0.78517172  1
  Bi2+  Bi76  1  0.25968925  0.62726246  0.28339509  1
  Bi2+  Bi77  1  0.27606789  0.64668286  0.78960417  1
  Bi2+  Bi78  1  0.20496721  0.88870606  0.29033260  1
  Bi2+  Bi79  1  0.23320882  0.91836405  0.78909610  1
  Bi2+  Bi80  1  0.50255679  0.13820817  0.29689569  1
  Bi2+  Bi81  1  0.47910478  0.18919381  0.70553586  1
  Bi2+  Bi82  1  0.48292452  0.40165208  0.29038000  1
  Bi2+  Bi83  1  0.46736871  0.29098112  0.80687806  1
  Bi2+  Bi84  1  0.48019130  0.68876292  0.30072656  1
  Bi2+  Bi85  1  0.61515729  0.55489183  0.79524412  1
  Bi2+  Bi86  1  0.47504705  0.93851632  0.29395768  1
  Bi2+  Bi87  1  0.51774743  0.97270008  0.79593002  1
  Bi2+  Bi88  1  0.76383923  0.06641472  0.29439234  1
  Bi2+  Bi89  1  0.72947720  0.12625805  0.78845265  1
  Bi2+  Bi90  1  0.85792263  0.32061029  0.30727877  1
  Bi2+  Bi91  1  0.74467107  0.39154347  0.78938899  1
  Bi2+  Bi92  1  0.74181426  0.48236579  0.30652876  1
  Bi2+  Bi93  1  0.77506724  0.66124019  0.81426625  1
  Bi2+  Bi94  1  0.71852175  0.85547569  0.29316777  1
  Bi2+  Bi95  1  0.75079035  0.87168120  0.80137771  1
  Bi2+  Bi96  1  0.12166305  0.00010565  0.20829627  1
  Bi2+  Bi97  1  0.10514217  0.00161505  0.71365207  1
  Bi2+  Bi98  1  0.17293162  0.24188558  0.21347760  1
  Bi2+  Bi99  1  0.09192843  0.24689077  0.71182716  1
  Bi2+  Bi100  1  0.15706151  0.51820632  0.20840411  1
  Bi2+  Bi101  1  0.15219839  0.48738416  0.71457948  1
  Bi2+  Bi102  1  0.12169146  0.81036801  0.17691925  1
  Bi2+  Bi103  1  0.09174726  0.75589679  0.70397890  1
  Bi2+  Bi104  1  0.36673582  0.02290258  0.20750992  1
  Bi2+  Bi105  1  0.33041688  0.05542669  0.69857054  1
  Bi2+  Bi106  1  0.43498975  0.26362803  0.21401902  1
  Bi2+  Bi107  1  0.29434412  0.25444029  0.68705017  1
  Bi2+  Bi108  1  0.35336955  0.50098515  0.20974298  1
  Bi2+  Bi109  1  0.45580630  0.46326555  0.74674097  1
  Bi2+  Bi110  1  0.30486191  0.77814557  0.21597449  1
  Bi2+  Bi111  1  0.40959502  0.78894644  0.72075176  1
  Bi2+  Bi112  1  0.61233799  0.03873003  0.21327461  1
  Bi2+  Bi113  1  0.63404624  -0.02019991  0.71025124  1
  Bi2+  Bi114  1  0.69827957  0.30614471  0.23459418  1
  Bi2+  Bi115  1  0.61162599  0.34670003  0.70274198  1
  Bi2+  Bi116  1  0.61778450  0.49839075  0.21765101  1
  Bi2+  Bi117  1  0.70475988  0.52880441  0.67546245  1
  Bi2+  Bi118  1  0.58441793  0.76798165  0.20918378  1
  Bi2+  Bi119  1  0.63348370  0.70191117  0.70921018  1
  Bi2+  Bi120  1  0.89722034  -0.01851912  0.22770482  1
  Bi2+  Bi121  1  0.89506332  0.02015717  0.72027819  1
  Bi2+  Bi122  1  0.85686654  0.20639036  0.20078163  1
  Bi2+  Bi123  1  0.86523649  0.27506943  0.71424746  1
  Bi2+  Bi124  1  0.86597406  0.49209724  0.21786240  1
  Bi2+  Bi125  1  0.88168569  0.47195313  0.71514364  1
  Bi2+  Bi126  1  0.84299101  0.74677895  0.21961260  1
  Bi2+  Bi127  1  0.82486512  0.76545159  0.71637242  1
  S2-  S128  1  -0.01590603  0.09913370  0.16213017  1
  S2-  S129  1  -0.09518013  0.15210338  0.64892149  1
  S2-  S130  1  0.03975251  0.44918911  0.14036367  1
  S2-  S131  1  0.09941736  0.38042417  0.64497673  1
  S2-  S132  1  -0.06605175  0.63654517  0.17320232  1
  S2-  S133  1  0.09116180  0.61378601  0.65437643  1
  S2-  S134  1  -0.12482300  0.87721468  0.15022865  1
  S2-  S135  1  -0.04587173  0.78460251  0.64727537  1
  S2-  S136  1  0.23807095  0.11496970  0.15442934  1
  S2-  S137  1  0.12631868  0.12350918  0.63970069  1
  S2-  S138  1  0.34015846  0.36023823  0.14420212  1
  S2-  S139  1  0.28268939  0.49573110  0.65843154  1
  S2-  S140  1  0.16933231  0.62994520  0.13304180  1
  S2-  S141  1  0.26899351  0.72409279  0.68741682  1
  S2-  S142  1  0.35868374  0.89544155  0.14283894  1
  S2-  S143  1  0.13379843  0.88905409  0.64145163  1
  S2-  S144  1  0.48053528  0.12989065  0.15239121  1
  S2-  S145  1  0.60443142  0.12122988  0.64618193  1
  S2-  S146  1  0.62993812  0.31767384  0.14413918  1
  S2-  S147  1  0.51322700  0.46831187  0.64653532  1
  S2-  S148  1  0.49815685  0.51151701  0.14806231  1
  S2-  S149  1  0.48300220  0.68861189  0.65709919  1
  S2-  S150  1  0.48321980  0.72773929  0.14205758  1
  S2-  S151  1  0.37643803  0.90451136  0.64821380  1
  S2-  S152  1  0.73960628  0.09170379  0.15928762  1
  S2-  S153  1  0.77981747  -0.01309502  0.65046102  1
  S2-  S154  1  0.74727110  0.49533610  0.14454573  1
  S2-  S155  1  0.74450339  0.30086440  0.64055993  1
  S2-  S156  1  0.72160041  0.71996246  0.15086174  1
  S2-  S157  1  0.85387537  0.58610034  0.63282274  1
  S2-  S158  1  0.60298236  0.90561739  0.14816997  1
  S2-  S159  1  0.62501881  0.85070516  0.64832470  1
  S2-  S160  1  0.02120607  0.01407861  0.35022979  1
  S2-  S161  1  0.11166031  -0.01210721  0.85327870  1
  S2-  S162  1  0.11655257  0.26346752  0.34523938  1
  S2-  S163  1  0.14839455  0.36513265  0.85124397  1
  S2-  S164  1  0.24898562  0.49408673  0.35464411  1
  S2-  S165  1  0.11819689  0.60646776  0.83582935  1
  S2-  S166  1  0.13157955  0.68551014  0.35324517  1
  S2-  S167  1  0.21891572  0.78091343  0.84420453  1
  S2-  S168  1  0.25575835  0.01906887  0.35359738  1
  S2-  S169  1  0.37952265  -0.07947965  0.84533279  1
  S2-  S170  1  0.37582796  0.31683532  0.36073880  1
  S2-  S171  1  0.36968923  0.15028201  0.85124360  1
  S2-  S172  1  0.48631206  0.53842142  0.35259800  1
  S2-  S173  1  0.35040128  0.50895427  0.83739856  1
  S2-  S174  1  0.39918009  0.81821723  0.35407427  1
  S2-  S175  1  0.41738845  0.70525744  0.81677625  1
  S2-  S176  1  0.60171856  -0.08683828  0.36210614  1
  S2-  S177  1  0.59966529  0.10797634  0.84626172  1
  S2-  S178  1  0.64218505  0.12662368  0.35981735  1
  S2-  S179  1  0.76474673  0.24612975  0.85264214  1
  S2-  S180  1  0.61971446  0.37103839  0.35316531  1
  S2-  S181  1  0.60335302  0.38736121  0.85518082  1
  S2-  S182  1  0.63450616  0.70392048  0.33002185  1
  S2-  S183  1  0.60412453  0.85361632  0.85799785  1
  S2-  S184  1  0.84156672  -0.12209657  0.35505696  1
  S2-  S185  1  0.79522293  0.00357614  0.85733047  1
  S2-  S186  1  0.86545603  0.15849323  0.35577157  1
  S2-  S187  1  0.98067142  0.23292322  0.85913982  1
  S2-  S188  1  1.00893868  0.48619918  0.34826900  1
  S2-  S189  1  0.94264643  0.48539197  0.85782280  1
  S2-  S190  1  0.88082937  0.65557372  0.34935641  1
  S2-  S191  1  0.96491930  0.76500465  0.86208695  1
  S2-  S192  1  0.00774164  0.13540872  0.45656284  1
  S2-  S193  1  -0.00824617  0.11586387  0.95981611  1
  S2-  S194  1  0.00415184  0.37759197  0.45283638  1
  S2-  S195  1  -0.00744741  0.37102628  0.95711092  1
  S2-  S196  1  -0.00185242  0.63553838  0.45792604  1
  S2-  S197  1  -0.00596288  0.62021320  0.96134292  1
  S2-  S198  1  0.00464637  0.87903915  0.45330962  1
  S2-  S199  1  -0.00859735  0.87622007  0.96521983  1
  S2-  S200  1  0.25350067  0.13374028  0.45850398  1
  S2-  S201  1  0.23809729  0.12248059  0.95148075  1
  S2-  S202  1  0.24678815  0.38105721  0.46529490  1
  S2-  S203  1  0.24843812  0.36982807  0.95341093  1
  S2-  S204  1  0.25325223  0.63224259  0.45557184  1
  S2-  S205  1  0.24627997  0.62540332  0.94087140  1
  S2-  S206  1  0.25283104  0.87917690  0.45831254  1
  S2-  S207  1  0.24295201  0.87737024  0.95641591  1
  S2-  S208  1  0.49482899  0.13197819  0.45594047  1
  S2-  S209  1  0.49813282  0.12177545  0.95057804  1
  S2-  S210  1  0.50030209  0.38067488  0.45820539  1
  S2-  S211  1  0.49020993  0.37227339  0.95629589  1
  S2-  S212  1  0.50180762  0.63256676  0.45803389  1
  S2-  S213  1  0.49496576  0.62330168  0.94614630  1
  S2-  S214  1  0.49655627  0.88317940  0.46631881  1
  S2-  S215  1  0.48964413  0.87355244  0.95827298  1
  S2-  S216  1  0.75640310  0.13261859  0.46467538  1
  S2-  S217  1  0.74421328  0.11976998  0.95631761  1
  S2-  S218  1  0.75693871  0.38251929  0.44652560  1
  S2-  S219  1  0.74546087  0.37486675  0.95883943  1
  S2-  S220  1  0.74361598  0.63090506  0.44479640  1
  S2-  S221  1  0.74063182  0.62134495  0.95703769  1
  S2-  S222  1  0.74877269  0.88478159  0.46060380  1
  S2-  S223  1  0.74813822  0.86780474  0.96341293  1
  S2-  S224  1  0.11798393  -0.00424752  0.05647573  1
  S2-  S225  1  0.13106291  0.00635044  0.53824588  1
  S2-  S226  1  0.11908138  0.24489373  0.04604899  1
  S2-  S227  1  0.12885805  0.25900301  0.54667691  1
  S2-  S228  1  0.12347655  0.49015507  0.03119705  1
  S2-  S229  1  0.12414888  0.51199236  0.54329388  1
  S2-  S230  1  0.11579234  0.75039656  0.03679604  1
  S2-  S231  1  0.13026659  0.75109270  0.54826565  1
  S2-  S232  1  0.36667277  -0.00032282  0.03972599  1
  S2-  S233  1  0.37514311  0.01075588  0.54298624  1
  S2-  S234  1  0.36794272  0.24137580  0.04143255  1
  S2-  S235  1  0.37576900  0.25727985  0.55872717  1
  S2-  S236  1  0.36459793  0.49621994  0.04178205  1
  S2-  S237  1  0.37420560  0.50580358  0.54424359  1
  S2-  S238  1  0.36393089  0.74498539  0.03777409  1
  S2-  S239  1  0.37070206  0.74692402  0.55290211  1
  S2-  S240  1  0.61924340  -0.00497137  0.04000381  1
  S2-  S241  1  0.62368609  0.00526643  0.54742153  1
  S2-  S242  1  0.61495697  0.24514398  0.03556211  1
  S2-  S243  1  0.62198837  0.25778814  0.54162006  1
  S2-  S244  1  0.61611374  0.49423639  0.04139191  1
  S2-  S245  1  0.62681986  0.50074738  0.53546674  1
  S2-  S246  1  0.61764075  0.74511970  0.04294735  1
  S2-  S247  1  0.62388085  0.74867996  0.54119652  1
  S2-  S248  1  0.86582568  -0.00080043  0.05131622  1
  S2-  S249  1  0.88155201  0.00355522  0.54261472  1
  S2-  S250  1  0.86703063  0.24820814  0.05176148  1
  S2-  S251  1  0.87896194  0.25922724  0.54197811  1
  S2-  S252  1  0.87366488  0.49382405  0.04954875  1
  S2-  S253  1  0.87583407  0.49996884  0.52907232  1
  S2-  S254  1  0.87417108  0.73811315  0.05215912  1
  S2-  S255  1  0.86968578  0.75578845  0.53757595  1
