# generated using pymatgen
data_La9Ce10Pr6Nd4Sm3(BiS2)32
_symmetry_space_group_name_H-M   'P 1'
_cell_length_a   16.19685817
_cell_length_b   16.13163654
_cell_length_c   26.98342422
_cell_angle_alpha   90.38243485
_cell_angle_beta   89.97942091
_cell_angle_gamma   89.96989271
_symmetry_Int_Tables_number   1
_chemical_formula_structural   La9Ce10Pr6Nd4Sm3(BiS2)32
_chemical_formula_sum   'La18 Ce20 Pr12 Nd8 Sm6 Bi64 S128'
_cell_volume   7050.11994501
_cell_formula_units_Z   2
loop_
 _symmetry_equiv_pos_site_id
 _symmetry_equiv_pos_as_xyz
  1  'x, y, z'
loop_
 _atom_type_symbol
 _atom_type_oxidation_number
  La3+  3.0
  Ce3+  3.0
  Pr3+  3.0
  Nd3+  3.0
  Sm3+  3.0
  Bi2+  2.0
  S2-  -2.0
loop_
 _atom_site_type_symbol
 _atom_site_label
 _atom_site_symmetry_multiplicity
 _atom_site_fract_x
 _atom_site_fract_y
 _atom_site_fract_z
 _atom_site_occupancy
  La3+  La0  1  0.36699100  0.25065969  0.92898597  1
  La3+  La1  1  0.73870674  0.88151666  0.05818218  1
  La3+  La2  1  0.49308400  0.37175122  0.56210057  1
  La3+  La3  1  0.62090017  0.23819866  0.43973578  1
  La3+  La4  1  0.49172736  0.38458827  0.09795098  1
  La3+  La5  1  -0.01162589  0.38051241  0.08566073  1
  La3+  La6  1  0.87147781  0.49012085  0.42734220  1
  La3+  La7  1  -0.00489553  0.37215229  0.57631683  1
  La3+  La8  1  -0.00792410  0.11284954  0.59135341  1
  La3+  La9  1  0.48667714  0.62629153  0.59602024  1
  La3+  La10  1  -0.00658286  0.61930434  0.56975099  1
  La3+  La11  1  0.61532560  0.48602493  0.41398494  1
  La3+  La12  1  0.86669644  0.00467711  0.92314463  1
  La3+  La13  1  0.87051953  0.50443759  0.92083025  1
  La3+  La14  1  0.36950308  0.23525027  0.42577085  1
  La3+  La15  1  0.24304834  0.63615439  0.06564685  1
  La3+  La16  1  0.61085953  0.75843435  0.91672217  1
  La3+  La17  1  0.10912507  0.24028238  0.43174909  1
  Ce3+  Ce18  1  0.73754146  0.62812334  0.04638329  1
  Ce3+  Ce19  1  0.86867035  0.25862741  0.94246507  1
  Ce3+  Ce20  1  0.10993086  -0.00100201  0.43607781  1
  Ce3+  Ce21  1  0.49019481  0.13508683  0.06639298  1
  Ce3+  Ce22  1  0.49025417  0.87987805  0.06442786  1
  Ce3+  Ce23  1  0.24545075  0.37056740  0.55139584  1
  Ce3+  Ce24  1  0.36541095  0.50464386  0.94475843  1
  Ce3+  Ce25  1  0.24307912  0.88294651  0.06466499  1
  Ce3+  Ce26  1  0.86725812  0.74447711  0.44297761  1
  Ce3+  Ce27  1  0.11641493  0.48579119  0.42941827  1
  Ce3+  Ce28  1  0.11507794  0.75675106  0.94327064  1
  Ce3+  Ce29  1  0.74614442  0.12211173  0.57434777  1
  Ce3+  Ce30  1  0.24212664  0.38293936  0.06863270  1
  Ce3+  Ce31  1  -0.00999615  0.88671523  0.06294075  1
  Ce3+  Ce32  1  0.74074318  0.13193601  0.05262459  1
  Ce3+  Ce33  1  0.62000358  -0.00313395  0.44613976  1
  Ce3+  Ce34  1  0.74228911  0.38369127  0.56531182  1
  Ce3+  Ce35  1  0.11408635  0.49891216  0.93541906  1
  Ce3+  Ce36  1  0.36598252  0.00581342  0.93897064  1
  Ce3+  Ce37  1  0.87215538  0.24218776  0.45488990  1
  Pr3+  Pr38  1  0.11613730  0.74174761  0.43831304  1
  Pr3+  Pr39  1  0.73753393  0.38823571  0.07120017  1
  Pr3+  Pr40  1  0.48710443  0.12580865  0.57680476  1
  Pr3+  Pr41  1  0.61075320  0.50501217  0.92988625  1
  Pr3+  Pr42  1  0.36258159  0.75775665  0.93301784  1
  Pr3+  Pr43  1  0.11396840  0.25502362  0.93864083  1
  Pr3+  Pr44  1  -0.01002674  0.12791134  0.06464460  1
  Pr3+  Pr45  1  0.36898429  0.49868935  0.42533666  1
  Pr3+  Pr46  1  -0.01212210  0.63002550  0.06160779  1
  Pr3+  Pr47  1  0.11605763  0.00865354  0.92573388  1
  Pr3+  Pr48  1  0.24418055  0.86629495  0.55990681  1
  Pr3+  Pr49  1  0.73903730  0.86710204  0.57009034  1
  Nd3+  Nd50  1  0.37140771  0.74497235  0.43010176  1
  Nd3+  Nd51  1  0.49221193  0.86962318  0.56153514  1
  Nd3+  Nd52  1  0.24210607  0.13348990  0.06125916  1
  Nd3+  Nd53  1  0.49612301  0.63533343  0.06522167  1
  Nd3+  Nd54  1  0.36632404  -0.00704764  0.44454637  1
  Nd3+  Nd55  1  0.61557567  0.25831301  0.94413435  1
  Nd3+  Nd56  1  0.62032438  0.74234255  0.44067441  1
  Nd3+  Nd57  1  0.61369020  0.00516811  0.93577522  1
  Sm3+  Sm58  1  0.87019930  -0.00700518  0.44542249  1
  Sm3+  Sm59  1  0.24703536  0.61673816  0.55160890  1
  Sm3+  Sm60  1  0.23913253  0.12320533  0.56565295  1
  Sm3+  Sm61  1  0.73881166  0.61919043  0.55571707  1
  Sm3+  Sm62  1  -0.00596705  0.86944659  0.56368124  1
  Sm3+  Sm63  1  0.86673174  0.75504537  0.94187681  1
  Bi2+  Bi64  1  0.01377977  0.11774716  0.29493483  1
  Bi2+  Bi65  1  0.00894284  0.12024649  0.78811884  1
  Bi2+  Bi66  1  -0.02509023  0.37289898  0.30554788  1
  Bi2+  Bi67  1  -0.01826483  0.38622111  0.80181668  1
  Bi2+  Bi68  1  0.00099759  0.64835562  0.28376987  1
  Bi2+  Bi69  1  -0.00575011  0.63946831  0.77268119  1
  Bi2+  Bi70  1  -0.01679372  0.89942299  0.27802790  1
  Bi2+  Bi71  1  0.09625472  0.84395888  0.77763700  1
  Bi2+  Bi72  1  0.25483056  0.03721911  0.28733095  1
  Bi2+  Bi73  1  0.25992874  0.07480259  0.79248490  1
  Bi2+  Bi74  1  0.22728763  0.47289927  0.30192195  1
  Bi2+  Bi75  1  0.22897619  0.43019758  0.78880151  1
  Bi2+  Bi76  1  0.21368138  0.67918637  0.29601011  1
  Bi2+  Bi77  1  0.24107547  0.63421892  0.78006662  1
  Bi2+  Bi78  1  0.32673363  0.86240686  0.31652991  1
  Bi2+  Bi79  1  0.26989421  0.89552290  0.83467158  1
  Bi2+  Bi80  1  0.49148421  0.11001482  0.29121969  1
  Bi2+  Bi81  1  0.54112737  0.12030309  0.79568648  1
  Bi2+  Bi82  1  0.50710997  0.35937636  0.27791453  1
  Bi2+  Bi83  1  0.47879076  0.37858494  0.80947475  1
  Bi2+  Bi84  1  0.51699029  0.63165741  0.30400208  1
  Bi2+  Bi85  1  0.51542952  0.62254561  0.79202259  1
  Bi2+  Bi86  1  0.51137447  0.91225304  0.28341462  1
  Bi2+  Bi87  1  0.46600677  0.90583572  0.80948792  1
  Bi2+  Bi88  1  0.76168030  0.06434678  0.31166665  1
  Bi2+  Bi89  1  0.73026668  0.03333901  0.81086506  1
  Bi2+  Bi90  1  0.74874855  0.28068908  0.28926774  1
  Bi2+  Bi91  1  0.68391316  0.29540578  0.74785483  1
  Bi2+  Bi92  1  0.81038986  0.68951320  0.26435602  1
  Bi2+  Bi93  1  0.80666987  0.62804490  0.78163080  1
  Bi2+  Bi94  1  0.71033224  0.88045063  0.29901661  1
  Bi2+  Bi95  1  0.86581684  0.89858643  0.79332696  1
  Bi2+  Bi96  1  0.12381715  -0.02353844  0.20656200  1
  Bi2+  Bi97  1  0.13334227  -0.00086932  0.71441413  1
  Bi2+  Bi98  1  0.11828533  0.25475411  0.21613356  1
  Bi2+  Bi99  1  0.13697826  0.27223122  0.70983111  1
  Bi2+  Bi100  1  0.10564961  0.51137357  0.21769683  1
  Bi2+  Bi101  1  0.12607341  0.52798009  0.70837869  1
  Bi2+  Bi102  1  0.12169889  0.77720967  0.20687501  1
  Bi2+  Bi103  1  0.18541196  0.71796966  0.67689341  1
  Bi2+  Bi104  1  0.32193947  -0.03209622  0.18257283  1
  Bi2+  Bi105  1  0.42334624  0.02060884  0.71709958  1
  Bi2+  Bi106  1  0.36070555  0.24764517  0.21762610  1
  Bi2+  Bi107  1  0.37357458  0.24815360  0.71014098  1
  Bi2+  Bi108  1  0.35737715  0.51413692  0.21822081  1
  Bi2+  Bi109  1  0.35553786  0.49438128  0.70731065  1
  Bi2+  Bi110  1  0.38921717  0.78536291  0.21504256  1
  Bi2+  Bi111  1  0.36068330  0.81027121  0.72678382  1
  Bi2+  Bi112  1  0.50927029  0.00986369  0.17952347  1
  Bi2+  Bi113  1  0.59545536  -0.05105112  0.67172329  1
  Bi2+  Bi114  1  0.64847694  0.13581007  0.22388317  1
  Bi2+  Bi115  1  0.61737895  0.14384807  0.68796546  1
  Bi2+  Bi116  1  0.62578738  0.51187977  0.21549855  1
  Bi2+  Bi117  1  0.62781250  0.49185688  0.71286390  1
  Bi2+  Bi118  1  0.65434381  0.74616077  0.19957956  1
  Bi2+  Bi119  1  0.65064316  0.78888115  0.72817410  1
  Bi2+  Bi120  1  0.84798804  -0.04246965  0.20024599  1
  Bi2+  Bi121  1  0.79040002  -0.05581355  0.69429057  1
  Bi2+  Bi122  1  0.87638508  0.18487763  0.22603627  1
  Bi2+  Bi123  1  0.83559285  0.17002450  0.75375665  1
  Bi2+  Bi124  1  0.84840882  0.50927287  0.20675528  1
  Bi2+  Bi125  1  0.85505590  0.44914697  0.70830391  1
  Bi2+  Bi126  1  0.93009672  0.77852494  0.18254056  1
  Bi2+  Bi127  1  0.99891839  0.77038253  0.68353665  1
  S2-  S128  1  -0.00047215  0.22515728  0.15302540  1
  S2-  S129  1  0.13623390  0.13424870  0.64920801  1
  S2-  S130  1  0.13127007  0.37897336  0.14977865  1
  S2-  S131  1  -0.00246479  0.28657150  0.66932104  1
  S2-  S132  1  -0.02080089  0.53864301  0.14819983  1
  S2-  S133  1  -0.01818424  0.50863834  0.64874984  1
  S2-  S134  1  -0.01326453  0.99997480  0.13909519  1
  S2-  S135  1  0.00343207  0.95036401  0.65142166  1
  S2-  S136  1  0.23532334  0.16940374  0.16197974  1
  S2-  S137  1  0.34834673  0.12198832  0.64657742  1
  S2-  S138  1  0.34283579  0.37937203  0.15323316  1
  S2-  S139  1  0.26825586  0.35261446  0.65167070  1
  S2-  S140  1  0.23800373  0.56599189  0.16009218  1
  S2-  S141  1  0.32587738  0.60954804  0.64160025  1
  S2-  S142  1  0.25935874  0.77303747  0.14228740  1
  S2-  S143  1  0.24569899  0.88785396  0.66181591  1
  S2-  S144  1  0.48019298  0.22540153  0.15231223  1
  S2-  S145  1  0.49698735  0.26147460  0.64896359  1
  S2-  S146  1  0.63572904  0.38187327  0.16019468  1
  S2-  S147  1  0.49650419  0.47180521  0.64893958  1
  S2-  S148  1  0.49201496  0.54229728  0.15449085  1
  S2-  S149  1  0.57628090  0.64250604  0.69057158  1
  S2-  S150  1  0.50644289  0.76396518  0.13936698  1
  S2-  S151  1  0.45489566  0.78834421  0.64727001  1
  S2-  S152  1  0.76916927  0.11848267  0.14934933  1
  S2-  S153  1  0.84627759  0.10209200  0.65587811  1
  S2-  S154  1  0.84957472  0.38113257  0.15071079  1
  S2-  S155  1  0.76325968  0.32816447  0.66050513  1
  S2-  S156  1  0.73066580  0.60796466  0.14564199  1
  S2-  S157  1  0.75028328  0.52986963  0.64143780  1
  S2-  S158  1  0.70344042  0.88427064  0.15866303  1
  S2-  S159  1  0.75754102  0.77036744  0.65692068  1
  S2-  S160  1  0.14665231  0.11512998  0.35818181  1
  S2-  S161  1  0.13258097  0.14461800  0.85421186  1
  S2-  S162  1  0.13047152  0.35916482  0.35213466  1
  S2-  S163  1  0.12112893  0.36722250  0.85924832  1
  S2-  S164  1  0.00166500  0.52382887  0.35556971  1
  S2-  S165  1  0.00927100  0.52870285  0.85438717  1
  S2-  S166  1  0.08298674  0.77372124  0.34022186  1
  S2-  S167  1  0.12743181  0.72003478  0.84570306  1
  S2-  S168  1  0.37327244  0.08889624  0.36078001  1
  S2-  S169  1  0.39095219  0.10760614  0.85894623  1
  S2-  S170  1  0.38015134  0.28905195  0.32290741  1
  S2-  S171  1  0.34027879  0.30626694  0.82899673  1
  S2-  S172  1  0.47626660  0.47669919  0.34340758  1
  S2-  S173  1  0.41070199  0.51949151  0.84840582  1
  S2-  S174  1  0.35766966  0.64272624  0.34821455  1
  S2-  S175  1  0.46629083  0.74116524  0.85125457  1
  S2-  S176  1  0.61425518  0.10305562  0.36758656  1
  S2-  S177  1  0.62069197  -0.09464504  0.85185125  1
  S2-  S178  1  0.62849029  0.33073545  0.35124990  1
  S2-  S179  1  0.60254335  0.26125131  0.84321741  1
  S2-  S180  1  0.65726627  0.56503887  0.32088483  1
  S2-  S181  1  0.61434834  0.49291538  0.82582516  1
  S2-  S182  1  0.58197709  0.77631613  0.34395658  1
  S2-  S183  1  0.67220968  0.69808308  0.82052654  1
  S2-  S184  1  0.97691578  -0.00813251  0.36479762  1
  S2-  S185  1  0.99102073  -0.01481029  0.85007188  1
  S2-  S186  1  0.95120757  0.23498998  0.36676530  1
  S2-  S187  1  0.90862022  0.24195811  0.84550278  1
  S2-  S188  1  0.82708317  0.42267679  0.33054115  1
  S2-  S189  1  0.82824557  0.45686264  0.81815277  1
  S2-  S190  1  0.82970440  0.78875300  0.34984700  1
  S2-  S191  1  0.88710983  0.74464684  0.84310325  1
  S2-  S192  1  -0.01060019  0.11447854  0.47257448  1
  S2-  S193  1  -0.01166383  0.12891548  0.95564376  1
  S2-  S194  1  -0.00690836  0.37092585  0.46405429  1
  S2-  S195  1  -0.01192114  0.38099735  0.95976909  1
  S2-  S196  1  -0.00829451  0.62266662  0.45960544  1
  S2-  S197  1  -0.00988259  0.63466421  0.95559181  1
  S2-  S198  1  -0.00874875  0.86536482  0.45927423  1
  S2-  S199  1  -0.01034156  0.87770152  0.95486269  1
  S2-  S200  1  0.24196732  0.11587555  0.46220073  1
  S2-  S201  1  0.24195550  0.12736762  0.95579214  1
  S2-  S202  1  0.24992777  0.36654671  0.44703304  1
  S2-  S203  1  0.24517343  0.38002716  0.95855998  1
  S2-  S204  1  0.23772788  0.61647298  0.44776400  1
  S2-  S205  1  0.24025408  0.63111249  0.95243116  1
  S2-  S206  1  0.24031390  0.86897742  0.45037649  1
  S2-  S207  1  0.23772735  0.88210649  0.95724408  1
  S2-  S208  1  0.49146106  0.11555977  0.46778733  1
  S2-  S209  1  0.49684483  0.13067834  0.95946280  1
  S2-  S210  1  0.49065562  0.36400231  0.45219219  1
  S2-  S211  1  0.48997388  0.37860807  0.94668838  1
  S2-  S212  1  0.49732281  0.62234261  0.44340929  1
  S2-  S213  1  0.49016639  0.63009986  0.95582618  1
  S2-  S214  1  0.49433733  0.87059195  0.45337428  1
  S2-  S215  1  0.48745852  0.88380627  0.95595757  1
  S2-  S216  1  0.75076621  0.11566736  0.46540523  1
  S2-  S217  1  0.73981632  0.13121434  0.94511431  1
  S2-  S218  1  0.74660072  0.36791212  0.45679287  1
  S2-  S219  1  0.74030508  0.38229379  0.94715784  1
  S2-  S220  1  0.74378485  0.61745410  0.44782485  1
  S2-  S221  1  0.74209617  0.63038787  0.93986896  1
  S2-  S222  1  0.74252595  0.87142204  0.46004915  1
  S2-  S223  1  0.74491645  0.87876492  0.94860119  1
  S2-  S224  1  0.12076982  0.00608374  0.04163635  1
  S2-  S225  1  0.11942925  -0.01029480  0.54607491  1
  S2-  S226  1  0.11738240  0.25320565  0.04561064  1
  S2-  S227  1  0.11932351  0.24904762  0.54561439  1
  S2-  S228  1  0.11722090  0.51014416  0.04430829  1
  S2-  S229  1  0.12254949  0.49687622  0.54470231  1
  S2-  S230  1  0.11066311  0.75936019  0.04980258  1
  S2-  S231  1  0.11923177  0.74209804  0.54682453  1
  S2-  S232  1  0.36704272  0.00762915  0.04694980  1
  S2-  S233  1  0.36782125  -0.00874757  0.55053529  1
  S2-  S234  1  0.36746944  0.25460981  0.04265570  1
  S2-  S235  1  0.36406557  0.24482007  0.53946257  1
  S2-  S236  1  0.36968540  0.50909416  0.04889650  1
  S2-  S237  1  0.36891344  0.49736273  0.53559803  1
  S2-  S238  1  0.36852486  0.75927911  0.03946324  1
  S2-  S239  1  0.36762768  0.74127316  0.53604561  1
  S2-  S240  1  0.61487671  0.00785138  0.04390351  1
  S2-  S241  1  0.61743922  -0.00272268  0.55146248  1
  S2-  S242  1  0.61662981  0.25761631  0.04979427  1
  S2-  S243  1  0.62593080  0.24636658  0.54931335  1
  S2-  S244  1  0.61216298  0.50523473  0.03965621  1
  S2-  S245  1  0.61538134  0.50200937  0.53958802  1
  S2-  S246  1  0.61866120  0.75699156  0.03314672  1
  S2-  S247  1  0.61418298  0.74015282  0.54909490  1
  S2-  S248  1  0.86194304  0.00562634  0.03567772  1
  S2-  S249  1  0.86644521  -0.01368986  0.54947902  1
  S2-  S250  1  0.86265822  0.25590297  0.04703887  1
  S2-  S251  1  0.86966682  0.24629762  0.55831048  1
  S2-  S252  1  0.86086822  0.50764204  0.03654679  1
  S2-  S253  1  0.86791866  0.49885650  0.53945279  1
  S2-  S254  1  0.86381564  0.75607209  0.04729911  1
  S2-  S255  1  0.86721353  0.74269331  0.54907363  1
