# generated using pymatgen
data_La9Ce10Pr6Nd4Sm3(BiS2)32
_symmetry_space_group_name_H-M   'P 1'
_cell_length_a   16.21120309
_cell_length_b   16.23754494
_cell_length_c   27.27374190
_cell_angle_alpha   89.84873054
_cell_angle_beta   89.98369661
_cell_angle_gamma   90.00705873
_symmetry_Int_Tables_number   1
_chemical_formula_structural   La9Ce10Pr6Nd4Sm3(BiS2)32
_chemical_formula_sum   'La18 Ce20 Pr12 Nd8 Sm6 Bi64 S128'
_cell_volume   7179.24549951
_cell_formula_units_Z   2
loop_
 _symmetry_equiv_pos_site_id
 _symmetry_equiv_pos_as_xyz
  1  'x, y, z'
loop_
 _atom_type_symbol
 _atom_type_oxidation_number
  La3+  3.0
  Ce3+  3.0
  Pr3+  3.0
  Nd3+  3.0
  Sm3+  3.0
  Bi2+  2.0
  S2-  -2.0
loop_
 _atom_site_type_symbol
 _atom_site_label
 _atom_site_symmetry_multiplicity
 _atom_site_fract_x
 _atom_site_fract_y
 _atom_site_fract_z
 _atom_site_occupancy
  La3+  La0  1  0.61323185  0.50074584  0.90208965  1
  La3+  La1  1  0.48436308  0.36339212  0.59367604  1
  La3+  La2  1  -0.01635056  0.63199838  0.08174664  1
  La3+  La3  1  0.23591589  0.12017019  0.56829584  1
  La3+  La4  1  0.73659895  0.37643167  0.07054224  1
  La3+  La5  1  0.24594015  0.36899964  0.06886981  1
  La3+  La6  1  0.11509057  0.24407011  0.43454366  1
  La3+  La7  1  0.36370392  -0.00096004  0.44135852  1
  La3+  La8  1  0.60733420  0.00551117  0.42455784  1
  La3+  La9  1  0.73240131  0.61356450  0.57344385  1
  La3+  La10  1  0.00182382  0.88346710  0.61527025  1
  La3+  La11  1  0.10749909  0.74235174  0.92293387  1
  La3+  La12  1  0.72855708  0.63090523  0.08271339  1
  La3+  La13  1  0.86338018  -0.00700584  0.43542353  1
  La3+  La14  1  0.47646116  0.62160845  0.07399257  1
  La3+  La15  1  0.11224596  0.74406423  0.43994821  1
  La3+  La16  1  0.85375842  0.50063799  0.42047682  1
  La3+  La17  1  0.48533950  0.12524509  0.05733976  1
  Ce3+  Ce18  1  0.49130566  0.11887764  0.56602924  1
  Ce3+  Ce19  1  0.23900627  0.86730554  0.56125857  1
  Ce3+  Ce20  1  0.36487089  0.49724640  0.93091910  1
  Ce3+  Ce21  1  0.86014332  0.50367757  0.95439240  1
  Ce3+  Ce22  1  0.85809912  0.25611207  0.94949615  1
  Ce3+  Ce23  1  0.61317667  0.24576624  0.44080454  1
  Ce3+  Ce24  1  0.48474570  0.87755551  0.05333283  1
  Ce3+  Ce25  1  0.24297746  0.62045835  0.55861760  1
  Ce3+  Ce26  1  -0.01167736  0.87626892  0.05539247  1
  Ce3+  Ce27  1  0.24041752  0.37240209  0.56003755  1
  Ce3+  Ce28  1  -0.01131027  0.11848682  0.55976386  1
  Ce3+  Ce29  1  0.86571208  0.24709723  0.44067893  1
  Ce3+  Ce30  1  0.61267230  0.74292770  0.94719758  1
  Ce3+  Ce31  1  0.61667682  -0.00282040  0.93313679  1
  Ce3+  Ce32  1  0.22924295  0.12020817  0.05309103  1
  Ce3+  Ce33  1  0.36566916  0.25003968  0.44795786  1
  Ce3+  Ce34  1  0.36168359  -0.00041917  0.93277264  1
  Ce3+  Ce35  1  0.11347624  0.49810490  0.43870402  1
  Ce3+  Ce36  1  0.23087588  0.87682528  0.04179080  1
  Ce3+  Ce37  1  0.36871542  0.74781791  0.44763535  1
  Pr3+  Pr38  1  0.73303495  0.87922116  0.06735671  1
  Pr3+  Pr39  1  0.61816503  0.75522774  0.42822077  1
  Pr3+  Pr40  1  0.11057508  0.25564283  0.93657058  1
  Pr3+  Pr41  1  0.23329775  0.62610906  0.05810795  1
  Pr3+  Pr42  1  0.61478270  0.25065300  0.93747761  1
  Pr3+  Pr43  1  0.74004250  0.37043154  0.55828545  1
  Pr3+  Pr44  1  0.74042352  0.12019196  0.55716049  1
  Pr3+  Pr45  1  0.11273854  -0.00618340  0.44224996  1
  Pr3+  Pr46  1  0.36423724  0.74599949  0.94071099  1
  Pr3+  Pr47  1  0.36619950  0.49740657  0.43773420  1
  Pr3+  Pr48  1  -0.01131156  0.62013147  0.56641990  1
  Pr3+  Pr49  1  0.10526894  0.01318517  0.91379883  1
  Nd3+  Nd50  1  0.85818858  -0.00034982  0.93379126  1
  Nd3+  Nd51  1  0.85840017  0.74498363  0.94492586  1
  Nd3+  Nd52  1  0.86187338  0.74436144  0.44917746  1
  Nd3+  Nd53  1  0.10954010  0.49796415  0.94300685  1
  Nd3+  Nd54  1  -0.01180943  0.37805574  0.55631792  1
  Nd3+  Nd55  1  0.74226304  0.86925549  0.56698848  1
  Nd3+  Nd56  1  0.73658530  0.12086555  0.06632760  1
  Nd3+  Nd57  1  0.36240142  0.24199376  0.92840231  1
  Sm3+  Sm58  1  0.61302483  0.49831363  0.44312891  1
  Sm3+  Sm59  1  0.48507286  0.37590923  0.05385212  1
  Sm3+  Sm60  1  0.49917887  0.87027049  0.56216208  1
  Sm3+  Sm61  1  0.49250778  0.62016819  0.55374346  1
  Sm3+  Sm62  1  -0.01422040  0.12436480  0.05350849  1
  Sm3+  Sm63  1  -0.00110818  0.37637494  0.07258375  1
  Bi2+  Bi64  1  0.02531195  0.14551227  0.30774116  1
  Bi2+  Bi65  1  0.03684444  0.23541292  0.75659649  1
  Bi2+  Bi66  1  0.00703685  0.31869327  0.26158395  1
  Bi2+  Bi67  1  0.06375933  0.38243933  0.82984510  1
  Bi2+  Bi68  1  0.01743398  0.64111547  0.30485752  1
  Bi2+  Bi69  1  -0.01044965  0.54384074  0.78019314  1
  Bi2+  Bi70  1  -0.00100129  0.89592097  0.26594876  1
  Bi2+  Bi71  1  0.00758560  0.86764888  0.81895695  1
  Bi2+  Bi72  1  0.29938615  0.07845807  0.30651536  1
  Bi2+  Bi73  1  0.24698150  0.19320003  0.79255574  1
  Bi2+  Bi74  1  0.31972399  0.40859468  0.28008540  1
  Bi2+  Bi75  1  0.24406388  0.42264038  0.79986893  1
  Bi2+  Bi76  1  0.27485030  0.59400728  0.29954350  1
  Bi2+  Bi77  1  0.23613223  0.61919387  0.81274833  1
  Bi2+  Bi78  1  0.26414162  0.81728150  0.28590999  1
  Bi2+  Bi79  1  0.32528118  0.93959791  0.79354608  1
  Bi2+  Bi80  1  0.48252159  0.14815746  0.29304643  1
  Bi2+  Bi81  1  0.50689227  0.10607700  0.78501810  1
  Bi2+  Bi82  1  0.53496188  0.33364368  0.25217241  1
  Bi2+  Bi83  1  0.49617187  0.37913578  0.78220448  1
  Bi2+  Bi84  1  0.46472822  0.65058372  0.29026557  1
  Bi2+  Bi85  1  0.45697528  0.63474247  0.77312028  1
  Bi2+  Bi86  1  0.52459358  0.90662620  0.28256284  1
  Bi2+  Bi87  1  0.52038647  0.90840320  0.80875109  1
  Bi2+  Bi88  1  0.74451840  0.14698461  0.28431890  1
  Bi2+  Bi89  1  0.68996564  0.13799988  0.81464783  1
  Bi2+  Bi90  1  0.73111530  0.34280818  0.26286242  1
  Bi2+  Bi91  1  0.75856256  0.33595683  0.78337864  1
  Bi2+  Bi92  1  0.75902473  0.61208991  0.30331916  1
  Bi2+  Bi93  1  0.77116136  0.63275190  0.81380335  1
  Bi2+  Bi94  1  0.79225876  0.87158463  0.29042802  1
  Bi2+  Bi95  1  0.70749724  0.86658694  0.78668252  1
  Bi2+  Bi96  1  0.13403675  -0.00192463  0.20803416  1
  Bi2+  Bi97  1  0.12889710  0.01107511  0.71595028  1
  Bi2+  Bi98  1  0.16529031  0.24292699  0.21369612  1
  Bi2+  Bi99  1  0.16724812  0.30159691  0.67943728  1
  Bi2+  Bi100  1  0.18590957  0.51713968  0.20631973  1
  Bi2+  Bi101  1  0.12301442  0.48489307  0.70325557  1
  Bi2+  Bi102  1  0.13234972  0.77746525  0.20593990  1
  Bi2+  Bi103  1  0.12790359  0.74508982  0.71481975  1
  Bi2+  Bi104  1  0.32963707  -0.03021363  0.21643587  1
  Bi2+  Bi105  1  0.43948883  -0.01166185  0.69758619  1
  Bi2+  Bi106  1  0.36439420  0.25014355  0.21375857  1
  Bi2+  Bi107  1  0.35175564  0.23066945  0.70244306  1
  Bi2+  Bi108  1  0.42534877  0.50402852  0.19779038  1
  Bi2+  Bi109  1  0.32108926  0.53660810  0.71464158  1
  Bi2+  Bi110  1  0.41402280  0.78833071  0.20807600  1
  Bi2+  Bi111  1  0.39729207  0.80267371  0.72001870  1
  Bi2+  Bi112  1  0.61497254  0.00859168  0.20436175  1
  Bi2+  Bi113  1  0.63772687  -0.00200626  0.71084466  1
  Bi2+  Bi114  1  0.67106381  0.21338341  0.18157395  1
  Bi2+  Bi115  1  0.66365688  0.22282275  0.70774437  1
  Bi2+  Bi116  1  0.62528619  0.50359163  0.22509936  1
  Bi2+  Bi117  1  0.64631019  0.53476412  0.70388930  1
  Bi2+  Bi118  1  0.61936606  0.75300105  0.21829134  1
  Bi2+  Bi119  1  0.59744887  0.76026378  0.71495333  1
  Bi2+  Bi120  1  0.91238546  0.01068584  0.18844597  1
  Bi2+  Bi121  1  0.88025399  0.11842265  0.77864638  1
  Bi2+  Bi122  1  0.87376654  0.19684486  0.20383043  1
  Bi2+  Bi123  1  0.86942773  0.23677575  0.68690100  1
  Bi2+  Bi124  1  0.89662100  0.49294915  0.21260646  1
  Bi2+  Bi125  1  0.88163063  0.42604080  0.71167423  1
  Bi2+  Bi126  1  0.87637231  0.75849804  0.21364444  1
  Bi2+  Bi127  1  0.86579394  0.76395948  0.71516985  1
  S2-  S128  1  0.04640620  0.09589657  0.14414008  1
  S2-  S129  1  0.01531981  0.05678712  0.64958203  1
  S2-  S130  1  -0.06449644  0.34791564  0.16264506  1
  S2-  S131  1  -0.01362881  0.48556996  0.63620150  1
  S2-  S132  1  0.04321243  0.56291290  0.17499743  1
  S2-  S133  1  0.00070447  0.71414396  0.65488493  1
  S2-  S134  1  0.00041436  0.78502579  0.13988592  1
  S2-  S135  1  0.00319544  0.88807010  0.72443341  1
  S2-  S136  1  0.26575080  0.17492479  0.14262129  1
  S2-  S137  1  0.25343503  0.09295749  0.66743579  1
  S2-  S138  1  0.14353338  0.37493644  0.15029847  1
  S2-  S139  1  0.32963483  0.37755060  0.64593218  1
  S2-  S140  1  0.31821260  0.60369475  0.14545969  1
  S2-  S141  1  0.23076076  0.64690644  0.65578443  1
  S2-  S142  1  0.21227222  0.88260820  0.13920921  1
  S2-  S143  1  0.17463670  0.87659010  0.65304507  1
  S2-  S144  1  0.51984404  0.12148131  0.15612430  1
  S2-  S145  1  0.49929403  0.20855714  0.64988730  1
  S2-  S146  1  0.38911883  0.37166509  0.13645860  1
  S2-  S147  1  0.54553073  0.41396087  0.68579312  1
  S2-  S148  1  0.59053859  0.63151360  0.15349596  1
  S2-  S149  1  0.54613554  0.63318797  0.64564501  1
  S2-  S150  1  0.52757419  0.88271776  0.14721306  1
  S2-  S151  1  0.61307920  0.86806921  0.63694564  1
  S2-  S152  1  0.75087431  0.00320520  0.14145725  1
  S2-  S153  1  0.74739165  0.09911136  0.65720766  1
  S2-  S154  1  0.74484937  0.43380373  0.16792775  1
  S2-  S155  1  0.75482792  0.46849533  0.63973922  1
  S2-  S156  1  0.85134906  0.61831591  0.15616951  1
  S2-  S157  1  0.76298133  0.66862323  0.67327484  1
  S2-  S158  1  0.73923709  0.78411215  0.15403718  1
  S2-  S159  1  0.83762132  0.87903324  0.65120264  1
  S2-  S160  1  0.14115854  0.04454468  0.34690965  1
  S2-  S161  1  0.16558313  -0.03222790  0.81814522  1
  S2-  S162  1  0.11750582  0.28324226  0.33604538  1
  S2-  S163  1  0.12128243  0.16386280  0.85106174  1
  S2-  S164  1  0.12302866  0.53257244  0.34200700  1
  S2-  S165  1  0.08307198  0.59634895  0.86197533  1
  S2-  S166  1  0.11067926  0.75755051  0.33933655  1
  S2-  S167  1  0.15269024  0.76404946  0.82010520  1
  S2-  S168  1  0.45790704  0.00041741  0.35669823  1
  S2-  S169  1  0.36162893  0.09593354  0.85082655  1
  S2-  S170  1  0.35318148  0.22270904  0.35190953  1
  S2-  S171  1  0.36548096  0.31169518  0.83695565  1
  S2-  S172  1  0.42712195  0.50186601  0.34315569  1
  S2-  S173  1  0.46327031  0.50780491  0.84824457  1
  S2-  S174  1  0.38926576  0.77548477  0.35290762  1
  S2-  S175  1  0.37093694  0.71998642  0.84155968  1
  S2-  S176  1  0.65902344  -0.10166289  0.35125970  1
  S2-  S177  1  0.73509347  -0.01565394  0.86066504  1
  S2-  S178  1  0.61732813  0.15226913  0.35690527  1
  S2-  S179  1  0.60031943  0.33704580  0.85039921  1
  S2-  S180  1  0.70308029  0.49116976  0.35987725  1
  S2-  S181  1  0.68328785  0.49945052  0.80272572  1
  S2-  S182  1  0.62130518  0.69049698  0.33277896  1
  S2-  S183  1  0.63019634  0.67029918  0.86019354  1
  S2-  S184  1  0.88924861  -0.01674414  0.33522126  1
  S2-  S185  1  0.95657465  0.01821152  0.85102937  1
  S2-  S186  1  0.87425802  0.22154007  0.34513590  1
  S2-  S187  1  0.84950763  0.24558814  0.85149160  1
  S2-  S188  1  0.90434209  0.50340945  0.32004694  1
  S2-  S189  1  0.86954705  0.51245902  0.85738030  1
  S2-  S190  1  0.86875495  0.72683588  0.34752611  1
  S2-  S191  1  0.89334532  0.75394157  0.84529991  1
  S2-  S192  1  -0.01030701  0.12045906  0.45297091  1
  S2-  S193  1  -0.01858690  0.13289176  0.95193830  1
  S2-  S194  1  -0.01167056  0.37445962  0.44811265  1
  S2-  S195  1  -0.01545910  0.37673956  0.96456583  1
  S2-  S196  1  -0.01337031  0.61828197  0.45390006  1
  S2-  S197  1  -0.01670394  0.62520714  0.96718983  1
  S2-  S198  1  -0.01147633  0.86893052  0.44431952  1
  S2-  S199  1  -0.01490457  0.87290052  0.94925388  1
  S2-  S200  1  0.23893533  0.12207734  0.45973236  1
  S2-  S201  1  0.23622989  0.12356654  0.95045200  1
  S2-  S202  1  0.23935103  0.37422228  0.45074655  1
  S2-  S203  1  0.23837745  0.37463534  0.95271531  1
  S2-  S204  1  0.24386362  0.62265806  0.45185996  1
  S2-  S205  1  0.23853111  0.62205463  0.95217497  1
  S2-  S206  1  0.24067339  0.87120700  0.45300072  1
  S2-  S207  1  0.23626185  0.87377794  0.93746788  1
  S2-  S208  1  0.48622758  0.12675821  0.46119679  1
  S2-  S209  1  0.49250249  0.12363415  0.94858564  1
  S2-  S210  1  0.49301709  0.37221088  0.44625241  1
  S2-  S211  1  0.48574148  0.37250553  0.95238448  1
  S2-  S212  1  0.49352121  0.62304865  0.44959988  1
  S2-  S213  1  0.48758874  0.62115350  0.96011045  1
  S2-  S214  1  0.49201507  0.87266876  0.45839101  1
  S2-  S215  1  0.48793352  0.87413749  0.94724906  1
  S2-  S216  1  0.74279961  0.12240033  0.45202174  1
  S2-  S217  1  0.73738733  0.12706717  0.96034714  1
  S2-  S218  1  0.73810219  0.36658126  0.45257569  1
  S2-  S219  1  0.73171903  0.38194882  0.95850076  1
  S2-  S220  1  0.73288493  0.62396324  0.45825848  1
  S2-  S221  1  0.73520309  0.62248911  0.96830059  1
  S2-  S222  1  0.74168762  0.87127133  0.45937231  1
  S2-  S223  1  0.73542392  0.86823950  0.95940253  1
  S2-  S224  1  0.10680056  0.00107539  0.03046379  1
  S2-  S225  1  0.11476151  -0.00880048  0.54716622  1
  S2-  S226  1  0.10928472  0.24858561  0.04388727  1
  S2-  S227  1  0.11078227  0.24866402  0.54508649  1
  S2-  S228  1  0.11369989  0.50087112  0.04820061  1
  S2-  S229  1  0.12023173  0.49708665  0.54380264  1
  S2-  S230  1  0.11299625  0.75009335  0.03540760  1
  S2-  S231  1  0.11721633  0.74376709  0.54715389  1
  S2-  S232  1  0.35883982  0.00011115  0.04163701  1
  S2-  S233  1  0.36690920  -0.00785542  0.55161417  1
  S2-  S234  1  0.36304322  0.24565338  0.03539680  1
  S2-  S235  1  0.36324567  0.24386958  0.55071819  1
  S2-  S236  1  0.36060105  0.49844171  0.03740400  1
  S2-  S237  1  0.37043194  0.49660463  0.54548386  1
  S2-  S238  1  0.35881314  0.75392215  0.04727004  1
  S2-  S239  1  0.37238652  0.74743195  0.55475328  1
  S2-  S240  1  0.61040492  0.00160787  0.03997502  1
  S2-  S241  1  0.61393835  0.00002060  0.54034584  1
  S2-  S242  1  0.61074456  0.25240144  0.04578628  1
  S2-  S243  1  0.61444309  0.24764591  0.54712976  1
  S2-  S244  1  0.60536491  0.49484618  0.05968999  1
  S2-  S245  1  0.60433962  0.48670160  0.54621776  1
  S2-  S246  1  0.60376400  0.75135733  0.04962861  1
  S2-  S247  1  0.61354477  0.74365399  0.53851909  1
  S2-  S248  1  0.86570825  0.00113683  0.04018403  1
  S2-  S249  1  0.86650821  -0.00266673  0.54469957  1
  S2-  S250  1  0.86204007  0.24733556  0.05485520  1
  S2-  S251  1  0.86760625  0.24835177  0.54715256  1
  S2-  S252  1  0.86830423  0.49400479  0.05791358  1
  S2-  S253  1  0.86234034  0.49565932  0.53300768  1
  S2-  S254  1  0.85885453  0.75555557  0.04864394  1
  S2-  S255  1  0.85862831  0.73707511  0.55174017  1
