# generated using pymatgen
data_V69.824Zn69.824O256
_symmetry_space_group_name_H-M   'P 1'
_cell_length_a   16.79400000
_cell_length_b   16.79400000
_cell_length_c   16.79400000
_cell_angle_alpha   90.00000000
_cell_angle_beta   90.00000000
_cell_angle_gamma   90.00000000
_symmetry_Int_Tables_number   1
_chemical_formula_structural   V69.824Zn69.824O256
_chemical_formula_sum   'V69.824 Zn69.824 O256'
_cell_volume   4736.55349418
_cell_formula_units_Z   1
loop_
 _symmetry_equiv_pos_site_id
 _symmetry_equiv_pos_as_xyz
  1  'x, y, z'
loop_
 _atom_site_type_symbol
 _atom_site_label
 _atom_site_symmetry_multiplicity
 _atom_site_fract_x
 _atom_site_fract_y
 _atom_site_fract_z
 _atom_site_occupancy
  V  V3  1  0.37500000  0.50000000  0.37500000  1.0
  V  V3  1  0.62500000  0.00000000  0.62500000  1.0
  V  V3  1  0.25000000  0.37500000  0.12500000  1.0
  V  V3  1  0.75000000  0.37500000  0.12500000  1.0
  V  V3  1  0.25000000  0.12500000  0.37500000  1.0
  V  V3  1  0.12500000  0.62500000  0.00000000  1.0
  V  V3  1  0.75000000  0.12500000  0.37500000  1.0
  V  V3  1  0.00000000  0.62500000  0.12500000  1.0
  V  V3  1  0.87500000  0.75000000  0.12500000  1.0
  V  V3  1  0.25000000  0.87500000  0.12500000  1.0
  V  V3  1  0.75000000  0.25000000  0.00000000  1.0
  V  V3  1  0.25000000  0.62500000  0.87500000  1.0
  V  V3  1  0.25000000  0.75000000  0.50000000  1.0
  V  V3  1  0.25000000  0.87500000  0.62500000  1.0
  V  V3  1  0.75000000  0.62500000  0.87500000  1.0
  V  V3  1  0.00000000  0.00000000  0.00000000  1.0
  V  V3  1  0.00000000  0.62500000  0.62500000  1.0
  V  V3  1  0.12500000  0.25000000  0.87500000  1.0
  V  V3  1  0.12500000  0.87500000  0.75000000  1.0
  V  V3  1  0.00000000  0.12500000  0.12500000  1.0
  V  V3  1  0.75000000  0.37500000  0.62500000  1.0
  V  V3  1  0.87500000  0.25000000  0.12500000  1.0
  V  V3  1  0.62500000  0.37500000  0.25000000  1.0
  V  V3  1  0.00000000  0.25000000  0.25000000  1.0
  V  V3  1  0.25000000  0.00000000  0.75000000  1.0
  V  V3  1  0.00000000  0.87500000  0.37500000  1.0
  V  V3  1  0.12500000  0.37500000  0.75000000  1.0
  V  V3  1  0.87500000  0.37500000  0.50000000  1.0
  V  V3  1  0.25000000  0.12500000  0.87500000  1.0
  V  V3  1  0.00000000  0.50000000  0.50000000  1.0
  V  V3  1  0.75000000  0.50000000  0.75000000  1.0
  V  V3  1  0.37500000  0.00000000  0.37500000  1.0
  V  V3  1  0.37500000  0.75000000  0.12500000  1.0
  V  V3  1  0.37500000  0.62500000  0.75000000  1.0
  V  V3  1  0.75000000  0.87500000  0.62500000  1.0
  V  V3  1  0.50000000  0.62500000  0.62500000  1.0
  V  V3  1  0.25000000  0.62500000  0.37500000  1.0
  V  V3  1  0.37500000  0.12500000  0.75000000  1.0
  V  V3  1  0.00000000  0.12500000  0.62500000  1.0
  V  V3  1  0.12500000  0.00000000  0.62500000  1.0
  V  V3  1  0.87500000  0.50000000  0.87500000  1.0
  V  V3  1  0.50000000  0.12500000  0.62500000  1.0
  V  V3  1  0.62500000  0.87500000  0.25000000  1.0
  V  V3  1  0.62500000  0.87500000  0.75000000  1.0
  V  V3  1  0.50000000  0.00000000  0.50000000  1.0
  V  V3  1  0.87500000  0.62500000  0.75000000  1.0
  V  V3  1  0.25000000  0.25000000  0.50000000  1.0
  V  V3  1  0.12500000  0.25000000  0.37500000  1.0
  V  V3  1  0.12500000  0.50000000  0.62500000  1.0
  V  V3  1  0.75000000  0.62500000  0.37500000  1.0
  V  V3  1  0.87500000  0.87500000  0.00000000  1.0
  V  V3  1  0.50000000  0.37500000  0.87500000  1.0
  V  V3  1  0.50000000  0.62500000  0.12500000  1.0
  V  V3  1  0.62500000  0.75000000  0.37500000  1.0
  V  V3  1  0.37500000  0.25000000  0.12500000  1.0
  V  V3  1  0.50000000  0.50000000  0.00000000  1.0
  V  V3  1  0.87500000  0.25000000  0.62500000  1.0
  V  V3  1  0.75000000  0.87500000  0.12500000  1.0
  V  V3  1  0.62500000  0.25000000  0.37500000  1.0
  V  V3  1  0.37500000  0.12500000  0.25000000  1.0
  V  V3  1  0.25000000  0.37500000  0.62500000  1.0
  V  V3  1  0.00000000  0.87500000  0.87500000  1.0
  V  V3  1  0.12500000  0.37500000  0.25000000  1.0
  V  V3  1  0.75000000  0.00000000  0.75000000  1.0
  V  V3  1  0.00000000  0.75000000  0.25000000  1.0
  V  V3  1  0.00000000  0.75000000  0.75000000  1.0
  V  V3  1  0.00000000  0.37500000  0.87500000  1.0
  V  V3  1  0.87500000  0.12500000  0.25000000  1.0
  V  V3  1  0.87500000  0.37500000  0.00000000  1.0
  V  V3  1  0.62500000  0.12500000  0.00000000  1.0
  Zn  V3  1  0.50000000  0.37500000  0.37500000  1.0
  Zn  V3  1  0.50000000  0.00000000  0.00000000  1.0
  Zn  V3  1  0.37500000  0.62500000  0.25000000  1.0
  Zn  V3  1  0.75000000  0.25000000  0.50000000  1.0
  Zn  V3  1  0.25000000  0.50000000  0.75000000  1.0
  Zn  V3  1  0.12500000  0.87500000  0.25000000  1.0
  Zn  Zn2  1  0.18750000  0.18750000  0.18750000  1.0
  Zn  Zn2  1  0.18750000  0.18750000  0.68750000  1.0
  Zn  Zn2  1  0.18750000  0.68750000  0.18750000  1.0
  Zn  Zn2  1  0.18750000  0.68750000  0.68750000  1.0
  Zn  Zn2  1  0.68750000  0.18750000  0.18750000  1.0
  Zn  Zn2  1  0.68750000  0.18750000  0.68750000  1.0
  Zn  Zn2  1  0.68750000  0.68750000  0.18750000  1.0
  Zn  Zn2  1  0.68750000  0.68750000  0.68750000  1.0
  Zn  Zn2  1  0.31250000  0.31250000  0.31250000  1.0
  Zn  Zn2  1  0.31250000  0.31250000  0.81250000  1.0
  Zn  Zn2  1  0.31250000  0.81250000  0.31250000  1.0
  Zn  Zn2  1  0.31250000  0.81250000  0.81250000  1.0
  Zn  Zn2  1  0.81250000  0.31250000  0.31250000  1.0
  Zn  Zn2  1  0.81250000  0.31250000  0.81250000  1.0
  Zn  Zn2  1  0.81250000  0.81250000  0.31250000  1.0
  Zn  Zn2  1  0.81250000  0.81250000  0.81250000  1.0
  Zn  Zn2  1  0.18750000  0.43750000  0.43750000  1.0
  Zn  Zn2  1  0.18750000  0.43750000  0.93750000  1.0
  Zn  Zn2  1  0.18750000  0.93750000  0.43750000  1.0
  Zn  Zn2  1  0.18750000  0.93750000  0.93750000  1.0
  Zn  Zn2  1  0.68750000  0.43750000  0.43750000  1.0
  Zn  Zn2  1  0.68750000  0.43750000  0.93750000  1.0
  Zn  Zn2  1  0.68750000  0.93750000  0.43750000  1.0
  Zn  Zn2  1  0.68750000  0.93750000  0.93750000  1.0
  Zn  Zn2  1  0.31250000  0.06250000  0.06250000  1.0
  Zn  Zn2  1  0.31250000  0.06250000  0.56250000  1.0
  Zn  Zn2  1  0.31250000  0.56250000  0.06250000  1.0
  Zn  Zn2  1  0.31250000  0.56250000  0.56250000  1.0
  Zn  Zn2  1  0.81250000  0.06250000  0.06250000  1.0
  Zn  Zn2  1  0.81250000  0.06250000  0.56250000  1.0
  Zn  Zn2  1  0.81250000  0.56250000  0.06250000  1.0
  Zn  Zn2  1  0.81250000  0.56250000  0.56250000  1.0
  Zn  Zn2  1  0.43750000  0.43750000  0.18750000  1.0
  Zn  Zn2  1  0.43750000  0.43750000  0.68750000  1.0
  Zn  Zn2  1  0.43750000  0.93750000  0.18750000  1.0
  Zn  Zn2  1  0.43750000  0.93750000  0.68750000  1.0
  Zn  Zn2  1  0.93750000  0.43750000  0.18750000  1.0
  Zn  Zn2  1  0.93750000  0.43750000  0.68750000  1.0
  Zn  Zn2  1  0.93750000  0.93750000  0.18750000  1.0
  Zn  Zn2  1  0.93750000  0.93750000  0.68750000  1.0
  Zn  Zn2  1  0.06250000  0.06250000  0.31250000  1.0
  Zn  Zn2  1  0.06250000  0.06250000  0.81250000  1.0
  Zn  Zn2  1  0.06250000  0.56250000  0.31250000  1.0
  Zn  Zn2  1  0.06250000  0.56250000  0.81250000  1.0
  Zn  Zn2  1  0.56250000  0.06250000  0.31250000  1.0
  Zn  Zn2  1  0.56250000  0.06250000  0.81250000  1.0
  Zn  Zn2  1  0.56250000  0.56250000  0.31250000  1.0
  Zn  Zn2  1  0.56250000  0.56250000  0.81250000  1.0
  Zn  Zn2  1  0.43750000  0.18750000  0.43750000  1.0
  Zn  Zn2  1  0.43750000  0.18750000  0.93750000  1.0
  Zn  Zn2  1  0.43750000  0.68750000  0.43750000  1.0
  Zn  Zn2  1  0.43750000  0.68750000  0.93750000  1.0
  Zn  Zn2  1  0.93750000  0.18750000  0.43750000  1.0
  Zn  Zn2  1  0.93750000  0.18750000  0.93750000  1.0
  Zn  Zn2  1  0.93750000  0.68750000  0.43750000  1.0
  Zn  Zn2  1  0.93750000  0.68750000  0.93750000  1.0
  Zn  Zn2  1  0.06250000  0.31250000  0.06250000  1.0
  Zn  Zn2  1  0.06250000  0.31250000  0.56250000  1.0
  Zn  Zn2  1  0.06250000  0.81250000  0.06250000  1.0
  Zn  Zn2  1  0.06250000  0.81250000  0.56250000  1.0
  Zn  Zn2  1  0.56250000  0.31250000  0.06250000  1.0
  Zn  Zn2  1  0.56250000  0.31250000  0.56250000  1.0
  Zn  Zn2  1  0.56250000  0.81250000  0.06250000  1.0
  Zn  Zn2  1  0.56250000  0.81250000  0.56250000  1.0
  O  O4  1  0.11890000  0.11890000  0.11890000  1.0
  O  O4  1  0.11890000  0.11890000  0.61890000  1.0
  O  O4  1  0.11890000  0.61890000  0.11890000  1.0
  O  O4  1  0.11890000  0.61890000  0.61890000  1.0
  O  O4  1  0.61890000  0.11890000  0.11890000  1.0
  O  O4  1  0.61890000  0.11890000  0.61890000  1.0
  O  O4  1  0.61890000  0.61890000  0.11890000  1.0
  O  O4  1  0.61890000  0.61890000  0.61890000  1.0
  O  O4  1  0.38110000  0.38110000  0.38110000  1.0
  O  O4  1  0.38110000  0.38110000  0.88110000  1.0
  O  O4  1  0.38110000  0.88110000  0.38110000  1.0
  O  O4  1  0.38110000  0.88110000  0.88110000  1.0
  O  O4  1  0.88110000  0.38110000  0.38110000  1.0
  O  O4  1  0.88110000  0.38110000  0.88110000  1.0
  O  O4  1  0.88110000  0.88110000  0.38110000  1.0
  O  O4  1  0.88110000  0.88110000  0.88110000  1.0
  O  O4  1  0.25610000  0.00610000  0.36890000  1.0
  O  O4  1  0.25610000  0.00610000  0.86890000  1.0
  O  O4  1  0.25610000  0.50610000  0.36890000  1.0
  O  O4  1  0.25610000  0.50610000  0.86890000  1.0
  O  O4  1  0.75610000  0.00610000  0.36890000  1.0
  O  O4  1  0.75610000  0.00610000  0.86890000  1.0
  O  O4  1  0.75610000  0.50610000  0.36890000  1.0
  O  O4  1  0.75610000  0.50610000  0.86890000  1.0
  O  O4  1  0.24390000  0.49390000  0.13110000  1.0
  O  O4  1  0.24390000  0.49390000  0.63110000  1.0
  O  O4  1  0.24390000  0.99390000  0.13110000  1.0
  O  O4  1  0.24390000  0.99390000  0.63110000  1.0
  O  O4  1  0.74390000  0.49390000  0.13110000  1.0
  O  O4  1  0.74390000  0.49390000  0.63110000  1.0
  O  O4  1  0.74390000  0.99390000  0.13110000  1.0
  O  O4  1  0.74390000  0.99390000  0.63110000  1.0
  O  O4  1  0.00610000  0.36890000  0.25610000  1.0
  O  O4  1  0.00610000  0.36890000  0.75610000  1.0
  O  O4  1  0.00610000  0.86890000  0.25610000  1.0
  O  O4  1  0.00610000  0.86890000  0.75610000  1.0
  O  O4  1  0.50610000  0.36890000  0.25610000  1.0
  O  O4  1  0.50610000  0.36890000  0.75610000  1.0
  O  O4  1  0.50610000  0.86890000  0.25610000  1.0
  O  O4  1  0.50610000  0.86890000  0.75610000  1.0
  O  O4  1  0.49390000  0.13110000  0.24390000  1.0
  O  O4  1  0.49390000  0.13110000  0.74390000  1.0
  O  O4  1  0.49390000  0.63110000  0.24390000  1.0
  O  O4  1  0.49390000  0.63110000  0.74390000  1.0
  O  O4  1  0.99390000  0.13110000  0.24390000  1.0
  O  O4  1  0.99390000  0.13110000  0.74390000  1.0
  O  O4  1  0.99390000  0.63110000  0.24390000  1.0
  O  O4  1  0.99390000  0.63110000  0.74390000  1.0
  O  O4  1  0.36890000  0.25610000  0.00610000  1.0
  O  O4  1  0.36890000  0.25610000  0.50610000  1.0
  O  O4  1  0.36890000  0.75610000  0.00610000  1.0
  O  O4  1  0.36890000  0.75610000  0.50610000  1.0
  O  O4  1  0.86890000  0.25610000  0.00610000  1.0
  O  O4  1  0.86890000  0.25610000  0.50610000  1.0
  O  O4  1  0.86890000  0.75610000  0.00610000  1.0
  O  O4  1  0.86890000  0.75610000  0.50610000  1.0
  O  O4  1  0.13110000  0.24390000  0.49390000  1.0
  O  O4  1  0.13110000  0.24390000  0.99390000  1.0
  O  O4  1  0.13110000  0.74390000  0.49390000  1.0
  O  O4  1  0.13110000  0.74390000  0.99390000  1.0
  O  O4  1  0.63110000  0.24390000  0.49390000  1.0
  O  O4  1  0.63110000  0.24390000  0.99390000  1.0
  O  O4  1  0.63110000  0.74390000  0.49390000  1.0
  O  O4  1  0.63110000  0.74390000  0.99390000  1.0
  O  O4  1  0.49390000  0.24390000  0.13110000  1.0
  O  O4  1  0.49390000  0.24390000  0.63110000  1.0
  O  O4  1  0.49390000  0.74390000  0.13110000  1.0
  O  O4  1  0.49390000  0.74390000  0.63110000  1.0
  O  O4  1  0.99390000  0.24390000  0.13110000  1.0
  O  O4  1  0.99390000  0.24390000  0.63110000  1.0
  O  O4  1  0.99390000  0.74390000  0.13110000  1.0
  O  O4  1  0.99390000  0.74390000  0.63110000  1.0
  O  O4  1  0.00610000  0.25610000  0.36890000  1.0
  O  O4  1  0.00610000  0.25610000  0.86890000  1.0
  O  O4  1  0.00610000  0.75610000  0.36890000  1.0
  O  O4  1  0.00610000  0.75610000  0.86890000  1.0
  O  O4  1  0.50610000  0.25610000  0.36890000  1.0
  O  O4  1  0.50610000  0.25610000  0.86890000  1.0
  O  O4  1  0.50610000  0.75610000  0.36890000  1.0
  O  O4  1  0.50610000  0.75610000  0.86890000  1.0
  O  O4  1  0.24390000  0.13110000  0.49390000  1.0
  O  O4  1  0.24390000  0.13110000  0.99390000  1.0
  O  O4  1  0.24390000  0.63110000  0.49390000  1.0
  O  O4  1  0.24390000  0.63110000  0.99390000  1.0
  O  O4  1  0.74390000  0.13110000  0.49390000  1.0
  O  O4  1  0.74390000  0.13110000  0.99390000  1.0
  O  O4  1  0.74390000  0.63110000  0.49390000  1.0
  O  O4  1  0.74390000  0.63110000  0.99390000  1.0
  O  O4  1  0.25610000  0.36890000  0.00610000  1.0
  O  O4  1  0.25610000  0.36890000  0.50610000  1.0
  O  O4  1  0.25610000  0.86890000  0.00610000  1.0
  O  O4  1  0.25610000  0.86890000  0.50610000  1.0
  O  O4  1  0.75610000  0.36890000  0.00610000  1.0
  O  O4  1  0.75610000  0.36890000  0.50610000  1.0
  O  O4  1  0.75610000  0.86890000  0.00610000  1.0
  O  O4  1  0.75610000  0.86890000  0.50610000  1.0
  O  O4  1  0.13110000  0.49390000  0.24390000  1.0
  O  O4  1  0.13110000  0.49390000  0.74390000  1.0
  O  O4  1  0.13110000  0.99390000  0.24390000  1.0
  O  O4  1  0.13110000  0.99390000  0.74390000  1.0
  O  O4  1  0.63110000  0.49390000  0.24390000  1.0
  O  O4  1  0.63110000  0.49390000  0.74390000  1.0
  O  O4  1  0.63110000  0.99390000  0.24390000  1.0
  O  O4  1  0.63110000  0.99390000  0.74390000  1.0
  O  O4  1  0.36890000  0.00610000  0.25610000  1.0
  O  O4  1  0.36890000  0.00610000  0.75610000  1.0
  O  O4  1  0.36890000  0.50610000  0.25610000  1.0
  O  O4  1  0.36890000  0.50610000  0.75610000  1.0
  O  O4  1  0.86890000  0.00610000  0.25610000  1.0
  O  O4  1  0.86890000  0.00610000  0.75610000  1.0
  O  O4  1  0.86890000  0.50610000  0.25610000  1.0
  O  O4  1  0.86890000  0.50610000  0.75610000  1.0
  O  O4  1  0.11890000  0.36890000  0.36890000  1.0
  O  O4  1  0.11890000  0.36890000  0.86890000  1.0
  O  O4  1  0.11890000  0.86890000  0.36890000  1.0
  O  O4  1  0.11890000  0.86890000  0.86890000  1.0
  O  O4  1  0.61890000  0.36890000  0.36890000  1.0
  O  O4  1  0.61890000  0.36890000  0.86890000  1.0
  O  O4  1  0.61890000  0.86890000  0.36890000  1.0
  O  O4  1  0.61890000  0.86890000  0.86890000  1.0
  O  O4  1  0.38110000  0.13110000  0.13110000  1.0
  O  O4  1  0.38110000  0.13110000  0.63110000  1.0
  O  O4  1  0.38110000  0.63110000  0.13110000  1.0
  O  O4  1  0.38110000  0.63110000  0.63110000  1.0
  O  O4  1  0.88110000  0.13110000  0.13110000  1.0
  O  O4  1  0.88110000  0.13110000  0.63110000  1.0
  O  O4  1  0.88110000  0.63110000  0.13110000  1.0
  O  O4  1  0.88110000  0.63110000  0.63110000  1.0
  O  O4  1  0.25610000  0.25610000  0.11890000  1.0
  O  O4  1  0.25610000  0.25610000  0.61890000  1.0
  O  O4  1  0.25610000  0.75610000  0.11890000  1.0
  O  O4  1  0.25610000  0.75610000  0.61890000  1.0
  O  O4  1  0.75610000  0.25610000  0.11890000  1.0
  O  O4  1  0.75610000  0.25610000  0.61890000  1.0
  O  O4  1  0.75610000  0.75610000  0.11890000  1.0
  O  O4  1  0.75610000  0.75610000  0.61890000  1.0
  O  O4  1  0.24390000  0.24390000  0.38110000  1.0
  O  O4  1  0.24390000  0.24390000  0.88110000  1.0
  O  O4  1  0.24390000  0.74390000  0.38110000  1.0
  O  O4  1  0.24390000  0.74390000  0.88110000  1.0
  O  O4  1  0.74390000  0.24390000  0.38110000  1.0
  O  O4  1  0.74390000  0.24390000  0.88110000  1.0
  O  O4  1  0.74390000  0.74390000  0.38110000  1.0
  O  O4  1  0.74390000  0.74390000  0.88110000  1.0
  O  O4  1  0.00610000  0.11890000  0.00610000  1.0
  O  O4  1  0.00610000  0.11890000  0.50610000  1.0
  O  O4  1  0.00610000  0.61890000  0.00610000  1.0
  O  O4  1  0.00610000  0.61890000  0.50610000  1.0
  O  O4  1  0.50610000  0.11890000  0.00610000  1.0
  O  O4  1  0.50610000  0.11890000  0.50610000  1.0
  O  O4  1  0.50610000  0.61890000  0.00610000  1.0
  O  O4  1  0.50610000  0.61890000  0.50610000  1.0
  O  O4  1  0.49390000  0.38110000  0.49390000  1.0
  O  O4  1  0.49390000  0.38110000  0.99390000  1.0
  O  O4  1  0.49390000  0.88110000  0.49390000  1.0
  O  O4  1  0.49390000  0.88110000  0.99390000  1.0
  O  O4  1  0.99390000  0.38110000  0.49390000  1.0
  O  O4  1  0.99390000  0.38110000  0.99390000  1.0
  O  O4  1  0.99390000  0.88110000  0.49390000  1.0
  O  O4  1  0.99390000  0.88110000  0.99390000  1.0
  O  O4  1  0.49390000  0.49390000  0.38110000  1.0
  O  O4  1  0.49390000  0.49390000  0.88110000  1.0
  O  O4  1  0.49390000  0.99390000  0.38110000  1.0
  O  O4  1  0.49390000  0.99390000  0.88110000  1.0
  O  O4  1  0.99390000  0.49390000  0.38110000  1.0
  O  O4  1  0.99390000  0.49390000  0.88110000  1.0
  O  O4  1  0.99390000  0.99390000  0.38110000  1.0
  O  O4  1  0.99390000  0.99390000  0.88110000  1.0
  O  O4  1  0.00610000  0.00610000  0.11890000  1.0
  O  O4  1  0.00610000  0.00610000  0.61890000  1.0
  O  O4  1  0.00610000  0.50610000  0.11890000  1.0
  O  O4  1  0.00610000  0.50610000  0.61890000  1.0
  O  O4  1  0.50610000  0.00610000  0.11890000  1.0
  O  O4  1  0.50610000  0.00610000  0.61890000  1.0
  O  O4  1  0.50610000  0.50610000  0.11890000  1.0
  O  O4  1  0.50610000  0.50610000  0.61890000  1.0
  O  O4  1  0.24390000  0.38110000  0.24390000  1.0
  O  O4  1  0.24390000  0.38110000  0.74390000  1.0
  O  O4  1  0.24390000  0.88110000  0.24390000  1.0
  O  O4  1  0.24390000  0.88110000  0.74390000  1.0
  O  O4  1  0.74390000  0.38110000  0.24390000  1.0
  O  O4  1  0.74390000  0.38110000  0.74390000  1.0
  O  O4  1  0.74390000  0.88110000  0.24390000  1.0
  O  O4  1  0.74390000  0.88110000  0.74390000  1.0
  O  O4  1  0.25610000  0.11890000  0.25610000  1.0
  O  O4  1  0.25610000  0.11890000  0.75610000  1.0
  O  O4  1  0.25610000  0.61890000  0.25610000  1.0
  O  O4  1  0.25610000  0.61890000  0.75610000  1.0
  O  O4  1  0.75610000  0.11890000  0.25610000  1.0
  O  O4  1  0.75610000  0.11890000  0.75610000  1.0
  O  O4  1  0.75610000  0.61890000  0.25610000  1.0
  O  O4  1  0.75610000  0.61890000  0.75610000  1.0
  O  O4  1  0.36890000  0.11890000  0.36890000  1.0
  O  O4  1  0.36890000  0.11890000  0.86890000  1.0
  O  O4  1  0.36890000  0.61890000  0.36890000  1.0
  O  O4  1  0.36890000  0.61890000  0.86890000  1.0
  O  O4  1  0.86890000  0.11890000  0.36890000  1.0
  O  O4  1  0.86890000  0.11890000  0.86890000  1.0
  O  O4  1  0.86890000  0.61890000  0.36890000  1.0
  O  O4  1  0.86890000  0.61890000  0.86890000  1.0
  O  O4  1  0.13110000  0.38110000  0.13110000  1.0
  O  O4  1  0.13110000  0.38110000  0.63110000  1.0
  O  O4  1  0.13110000  0.88110000  0.13110000  1.0
  O  O4  1  0.13110000  0.88110000  0.63110000  1.0
  O  O4  1  0.63110000  0.38110000  0.13110000  1.0
  O  O4  1  0.63110000  0.38110000  0.63110000  1.0
  O  O4  1  0.63110000  0.88110000  0.13110000  1.0
  O  O4  1  0.63110000  0.88110000  0.63110000  1.0
  O  O4  1  0.11890000  0.25610000  0.25610000  1.0
  O  O4  1  0.11890000  0.25610000  0.75610000  1.0
  O  O4  1  0.11890000  0.75610000  0.25610000  1.0
  O  O4  1  0.11890000  0.75610000  0.75610000  1.0
  O  O4  1  0.61890000  0.25610000  0.25610000  1.0
  O  O4  1  0.61890000  0.25610000  0.75610000  1.0
  O  O4  1  0.61890000  0.75610000  0.25610000  1.0
  O  O4  1  0.61890000  0.75610000  0.75610000  1.0
  O  O4  1  0.38110000  0.24390000  0.24390000  1.0
  O  O4  1  0.38110000  0.24390000  0.74390000  1.0
  O  O4  1  0.38110000  0.74390000  0.24390000  1.0
  O  O4  1  0.38110000  0.74390000  0.74390000  1.0
  O  O4  1  0.88110000  0.24390000  0.24390000  1.0
  O  O4  1  0.88110000  0.24390000  0.74390000  1.0
  O  O4  1  0.88110000  0.74390000  0.24390000  1.0
  O  O4  1  0.88110000  0.74390000  0.74390000  1.0
  O  O4  1  0.38110000  0.49390000  0.49390000  1.0
  O  O4  1  0.38110000  0.49390000  0.99390000  1.0
  O  O4  1  0.38110000  0.99390000  0.49390000  1.0
  O  O4  1  0.38110000  0.99390000  0.99390000  1.0
  O  O4  1  0.88110000  0.49390000  0.49390000  1.0
  O  O4  1  0.88110000  0.49390000  0.99390000  1.0
  O  O4  1  0.88110000  0.99390000  0.49390000  1.0
  O  O4  1  0.88110000  0.99390000  0.99390000  1.0
  O  O4  1  0.11890000  0.00610000  0.00610000  1.0
  O  O4  1  0.11890000  0.00610000  0.50610000  1.0
  O  O4  1  0.11890000  0.50610000  0.00610000  1.0
  O  O4  1  0.11890000  0.50610000  0.50610000  1.0
  O  O4  1  0.61890000  0.00610000  0.00610000  1.0
  O  O4  1  0.61890000  0.00610000  0.50610000  1.0
  O  O4  1  0.61890000  0.50610000  0.00610000  1.0
  O  O4  1  0.61890000  0.50610000  0.50610000  1.0
  O  O4  1  0.36890000  0.36890000  0.11890000  1.0
  O  O4  1  0.36890000  0.36890000  0.61890000  1.0
  O  O4  1  0.36890000  0.86890000  0.11890000  1.0
  O  O4  1  0.36890000  0.86890000  0.61890000  1.0
  O  O4  1  0.86890000  0.36890000  0.11890000  1.0
  O  O4  1  0.86890000  0.36890000  0.61890000  1.0
  O  O4  1  0.86890000  0.86890000  0.11890000  1.0
  O  O4  1  0.86890000  0.86890000  0.61890000  1.0
  O  O4  1  0.13110000  0.13110000  0.38110000  1.0
  O  O4  1  0.13110000  0.13110000  0.88110000  1.0
  O  O4  1  0.13110000  0.63110000  0.38110000  1.0
  O  O4  1  0.13110000  0.63110000  0.88110000  1.0
  O  O4  1  0.63110000  0.13110000  0.38110000  1.0
  O  O4  1  0.63110000  0.13110000  0.88110000  1.0
  O  O4  1  0.63110000  0.63110000  0.38110000  1.0
  O  O4  1  0.63110000  0.63110000  0.88110000  1.0




























































































































































































