# generated using pymatgen
data_Hf2Zr2Ta2Ti2Mo2H15
_symmetry_space_group_name_H-M   'P 1'
_cell_length_a   17.12000000
_cell_length_b   17.12000000
_cell_length_c   17.12000000
_cell_angle_alpha   90.00000000
_cell_angle_beta   90.00000000
_cell_angle_gamma   90.00000000
_symmetry_Int_Tables_number   1
_chemical_formula_structural   Hf2Zr2Ta2Ti2Mo2H15
_chemical_formula_sum   'Hf50 Zr50 Ta50 Ti50 Mo50 H375'
_cell_volume   5017.77612800
_cell_formula_units_Z   25
loop_
 _symmetry_equiv_pos_site_id
 _symmetry_equiv_pos_as_xyz
  1  'x, y, z'
loop_
 _atom_type_symbol
 _atom_type_oxidation_number
  Hf0+  0.0
  Zr0+  0.0
  Ta0+  0.0
  Ti0+  0.0
  Mo0+  0.0
  D0+  0.0
loop_
 _atom_site_type_symbol
 _atom_site_label
 _atom_site_symmetry_multiplicity
 _atom_site_fract_x
 _atom_site_fract_y
 _atom_site_fract_z
 _atom_site_occupancy
  Hf0+  Ta1  1  0.80000000  0.40000000  0.00000000  1.0
  Hf0+  Ta1  1  0.50000000  0.50000000  0.30000000  1.0
  Hf0+  Ta1  1  0.50000000  0.30000000  0.10000000  1.0
  Hf0+  Ta1  1  0.70000000  0.50000000  0.90000000  1.0
  Hf0+  Ta1  1  0.80000000  0.80000000  0.80000000  1.0
  Hf0+  Ta1  1  0.10000000  0.90000000  0.70000000  1.0
  Hf0+  Ta1  1  0.50000000  0.10000000  0.10000000  1.0
  Hf0+  Ta1  1  0.10000000  0.30000000  0.10000000  1.0
  Hf0+  Ta1  1  0.80000000  0.00000000  0.00000000  1.0
  Hf0+  Ta1  1  0.80000000  0.60000000  0.00000000  1.0
  Hf0+  Ta1  1  0.90000000  0.10000000  0.10000000  1.0
  Hf0+  Ta1  1  0.80000000  0.00000000  0.20000000  1.0
  Hf0+  Ta1  1  0.30000000  0.30000000  0.50000000  1.0
  Hf0+  Ta1  1  0.50000000  0.90000000  0.50000000  1.0
  Hf0+  Ta1  1  0.90000000  0.30000000  0.30000000  1.0
  Hf0+  Ta1  1  0.60000000  0.40000000  0.00000000  1.0
  Hf0+  Ta1  1  0.60000000  0.60000000  0.60000000  1.0
  Hf0+  Ta1  1  0.30000000  0.10000000  0.50000000  1.0
  Hf0+  Ta1  1  0.70000000  0.30000000  0.70000000  1.0
  Hf0+  Ta1  1  0.40000000  0.20000000  0.00000000  1.0
  Hf0+  Ta1  1  0.90000000  0.50000000  0.90000000  1.0
  Hf0+  Ta1  1  0.00000000  0.40000000  0.80000000  1.0
  Hf0+  Ta1  1  0.40000000  0.60000000  0.20000000  1.0
  Hf0+  Ta1  1  0.40000000  0.00000000  0.00000000  1.0
  Hf0+  Ta1  1  0.20000000  0.60000000  0.20000000  1.0
  Hf0+  Ta1  1  0.60000000  0.00000000  0.20000000  1.0
  Hf0+  Ta1  1  0.60000000  0.40000000  0.80000000  1.0
  Hf0+  Ta1  1  0.40000000  0.00000000  0.60000000  1.0
  Hf0+  Ta1  1  0.20000000  0.00000000  0.60000000  1.0
  Hf0+  Ta1  1  0.20000000  0.20000000  0.00000000  1.0
  Hf0+  Ta1  1  0.30000000  0.90000000  0.90000000  1.0
  Hf0+  Ta1  1  0.60000000  0.20000000  0.00000000  1.0
  Hf0+  Ta1  1  0.90000000  0.30000000  0.10000000  1.0
  Hf0+  Ta1  1  0.90000000  0.70000000  0.30000000  1.0
  Hf0+  Ta1  1  0.50000000  0.90000000  0.70000000  1.0
  Hf0+  Ta1  1  0.40000000  0.00000000  0.80000000  1.0
  Hf0+  Ta1  1  0.60000000  0.40000000  0.40000000  1.0
  Hf0+  Ta1  1  0.80000000  0.40000000  0.40000000  1.0
  Hf0+  Ta1  1  0.60000000  0.60000000  0.00000000  1.0
  Hf0+  Ta1  1  0.10000000  0.30000000  0.90000000  1.0
  Hf0+  Ta1  1  0.20000000  0.60000000  0.80000000  1.0
  Hf0+  Ta1  1  0.30000000  0.90000000  0.70000000  1.0
  Hf0+  Ta1  1  0.70000000  0.90000000  0.30000000  1.0
  Hf0+  Ta1  1  0.70000000  0.30000000  0.50000000  1.0
  Hf0+  Ta1  1  0.50000000  0.50000000  0.70000000  1.0
  Hf0+  Ta1  1  0.30000000  0.50000000  0.30000000  1.0
  Hf0+  Ta1  1  0.80000000  0.20000000  0.40000000  1.0
  Hf0+  Ta1  1  0.30000000  0.70000000  0.10000000  1.0
  Hf0+  Ta1  1  0.60000000  0.60000000  0.80000000  1.0
  Hf0+  Ta1  1  0.60000000  0.20000000  0.20000000  1.0
  Zr0+  Ta1  1  0.00000000  0.40000000  0.20000000  1.0
  Zr0+  Ta1  1  0.90000000  0.90000000  0.50000000  1.0
  Zr0+  Ta1  1  0.60000000  0.80000000  0.40000000  1.0
  Zr0+  Ta1  1  0.10000000  0.70000000  0.70000000  1.0
  Zr0+  Ta1  1  0.90000000  0.10000000  0.50000000  1.0
  Zr0+  Ta1  1  0.40000000  0.20000000  0.60000000  1.0
  Zr0+  Ta1  1  0.30000000  0.10000000  0.10000000  1.0
  Zr0+  Ta1  1  0.40000000  0.60000000  0.60000000  1.0
  Zr0+  Ta1  1  0.70000000  0.90000000  0.70000000  1.0
  Zr0+  Ta1  1  0.70000000  0.90000000  0.10000000  1.0
  Zr0+  Ta1  1  0.60000000  0.80000000  0.80000000  1.0
  Zr0+  Ta1  1  0.60000000  0.00000000  0.60000000  1.0
  Zr0+  Ta1  1  0.30000000  0.30000000  0.70000000  1.0
  Zr0+  Ta1  1  0.90000000  0.90000000  0.10000000  1.0
  Zr0+  Ta1  1  0.10000000  0.10000000  0.90000000  1.0
  Zr0+  Ta1  1  0.30000000  0.10000000  0.30000000  1.0
  Zr0+  Ta1  1  0.30000000  0.90000000  0.10000000  1.0
  Zr0+  Ta1  1  0.50000000  0.10000000  0.70000000  1.0
  Zr0+  Ta1  1  0.40000000  0.60000000  0.00000000  1.0
  Zr0+  Ta1  1  0.80000000  0.40000000  0.60000000  1.0
  Zr0+  Ta1  1  0.90000000  0.70000000  0.10000000  1.0
  Zr0+  Ta1  1  0.60000000  0.20000000  0.40000000  1.0
  Zr0+  Ta1  1  0.20000000  0.40000000  0.20000000  1.0
  Zr0+  Ta1  1  0.10000000  0.50000000  0.50000000  1.0
  Zr0+  Ta1  1  0.60000000  0.80000000  0.00000000  1.0
  Zr0+  Ta1  1  0.10000000  0.90000000  0.50000000  1.0
  Zr0+  Ta1  1  0.10000000  0.90000000  0.90000000  1.0
  Zr0+  Ta1  1  0.20000000  0.80000000  0.00000000  1.0
  Zr0+  Ta1  1  0.10000000  0.70000000  0.30000000  1.0
  Zr0+  Ta1  1  0.80000000  0.20000000  0.80000000  1.0
  Zr0+  Ta1  1  0.70000000  0.10000000  0.90000000  1.0
  Zr0+  Ta1  1  0.90000000  0.30000000  0.70000000  1.0
  Zr0+  Ta1  1  0.80000000  0.80000000  0.40000000  1.0
  Zr0+  Ta1  1  0.70000000  0.10000000  0.10000000  1.0
  Zr0+  Ta1  1  0.40000000  0.80000000  0.00000000  1.0
  Zr0+  Ta1  1  0.30000000  0.90000000  0.50000000  1.0
  Zr0+  Ta1  1  0.20000000  0.80000000  0.60000000  1.0
  Zr0+  Ta1  1  0.30000000  0.30000000  0.10000000  1.0
  Zr0+  Ta1  1  0.40000000  0.40000000  0.40000000  1.0
  Zr0+  Ta1  1  0.00000000  0.00000000  0.20000000  1.0
  Zr0+  Ta1  1  0.20000000  0.40000000  0.80000000  1.0
  Zr0+  Ta1  1  0.80000000  0.60000000  0.40000000  1.0
  Zr0+  Ta1  1  0.70000000  0.50000000  0.50000000  1.0
  Zr0+  Ta1  1  0.60000000  0.20000000  0.60000000  1.0
  Zr0+  Ta1  1  0.70000000  0.30000000  0.90000000  1.0
  Zr0+  Ta1  1  0.50000000  0.70000000  0.30000000  1.0
  Zr0+  Ta1  1  0.60000000  0.00000000  0.80000000  1.0
  Zr0+  Ta1  1  0.20000000  0.00000000  0.00000000  1.0
  Zr0+  Ta1  1  0.00000000  0.60000000  0.00000000  1.0
  Zr0+  Ta1  1  0.30000000  0.70000000  0.70000000  1.0
  Ta0+  Ta1  1  0.00000000  0.60000000  0.80000000  1.0
  Ta0+  Ta1  1  0.00000000  0.40000000  0.60000000  1.0
  Ta0+  Ta1  1  0.20000000  0.00000000  0.20000000  1.0
  Ta0+  Ta1  1  0.00000000  0.20000000  0.20000000  1.0
  Ta0+  Ta1  1  0.10000000  0.50000000  0.30000000  1.0
  Ta0+  Ta1  1  0.10000000  0.70000000  0.10000000  1.0
  Ta0+  Ta1  1  0.20000000  0.80000000  0.40000000  1.0
  Ta0+  Ta1  1  0.70000000  0.30000000  0.30000000  1.0
  Ta0+  Ta1  1  0.50000000  0.70000000  0.10000000  1.0
  Ta0+  Ta1  1  0.20000000  0.20000000  0.20000000  1.0
  Ta0+  Ta1  1  0.10000000  0.50000000  0.90000000  1.0
  Ta0+  Ta1  1  0.00000000  0.80000000  0.60000000  1.0
  Ta0+  Ta1  1  0.60000000  0.80000000  0.20000000  1.0
  Ta0+  Ta1  1  0.70000000  0.10000000  0.30000000  1.0
  Ta0+  Ta1  1  0.30000000  0.10000000  0.90000000  1.0
  Ta0+  Ta1  1  0.80000000  0.00000000  0.40000000  1.0
  Ta0+  Ta1  1  0.00000000  0.40000000  0.00000000  1.0
  Ta0+  Ta1  1  0.70000000  0.50000000  0.10000000  1.0
  Ta0+  Ta1  1  0.30000000  0.50000000  0.90000000  1.0
  Ta0+  Ta1  1  0.40000000  0.00000000  0.40000000  1.0
  Ta0+  Ta1  1  0.70000000  0.70000000  0.50000000  1.0
  Ta0+  Ta1  1  0.10000000  0.10000000  0.30000000  1.0
  Ta0+  Ta1  1  0.50000000  0.90000000  0.90000000  1.0
  Ta0+  Ta1  1  0.90000000  0.50000000  0.50000000  1.0
  Ta0+  Ta1  1  0.10000000  0.90000000  0.10000000  1.0
  Ta0+  Ta1  1  0.50000000  0.50000000  0.50000000  1.0
  Ta0+  Ta1  1  0.40000000  0.40000000  0.20000000  1.0
  Ta0+  Ta1  1  0.30000000  0.70000000  0.30000000  1.0
  Ta0+  Ta1  1  0.90000000  0.30000000  0.90000000  1.0
  Ta0+  Ta1  1  0.90000000  0.70000000  0.50000000  1.0
  Ta0+  Ta1  1  0.70000000  0.70000000  0.10000000  1.0
  Ta0+  Ta1  1  0.00000000  0.60000000  0.40000000  1.0
  Ta0+  Ta1  1  0.20000000  0.40000000  0.60000000  1.0
  Ta0+  Ta1  1  0.50000000  0.70000000  0.70000000  1.0
  Ta0+  Ta1  1  0.90000000  0.90000000  0.70000000  1.0
  Ta0+  Ta1  1  0.80000000  0.80000000  0.20000000  1.0
  Ta0+  Ta1  1  0.40000000  0.80000000  0.80000000  1.0
  Ta0+  Ta1  1  0.60000000  0.40000000  0.20000000  1.0
  Ta0+  Ta1  1  0.10000000  0.70000000  0.90000000  1.0
  Ta0+  Ta1  1  0.10000000  0.10000000  0.70000000  1.0
  Ta0+  Ta1  1  0.00000000  0.20000000  0.60000000  1.0
  Ta0+  Ta1  1  0.40000000  0.80000000  0.60000000  1.0
  Ta0+  Ta1  1  0.20000000  0.20000000  0.40000000  1.0
  Ta0+  Ta1  1  0.00000000  0.20000000  0.40000000  1.0
  Ta0+  Ta1  1  0.20000000  0.80000000  0.80000000  1.0
  Ta0+  Ta1  1  0.50000000  0.50000000  0.90000000  1.0
  Ta0+  Ta1  1  0.70000000  0.90000000  0.50000000  1.0
  Ta0+  Ta1  1  0.00000000  0.20000000  0.80000000  1.0
  Ta0+  Ta1  1  0.00000000  0.40000000  0.40000000  1.0
  Ta0+  Ta1  1  0.90000000  0.50000000  0.10000000  1.0
  Ti0+  Ta1  1  0.60000000  0.60000000  0.40000000  1.0
  Ti0+  Ta1  1  0.80000000  0.40000000  0.20000000  1.0
  Ti0+  Ta1  1  0.60000000  0.60000000  0.20000000  1.0
  Ti0+  Ta1  1  0.10000000  0.30000000  0.50000000  1.0
  Ti0+  Ta1  1  0.50000000  0.30000000  0.30000000  1.0
  Ti0+  Ta1  1  0.20000000  0.20000000  0.60000000  1.0
  Ti0+  Ta1  1  0.50000000  0.70000000  0.50000000  1.0
  Ti0+  Ta1  1  0.80000000  0.80000000  0.00000000  1.0
  Ti0+  Ta1  1  0.00000000  0.00000000  0.60000000  1.0
  Ti0+  Ta1  1  0.60000000  0.80000000  0.60000000  1.0
  Ti0+  Ta1  1  0.40000000  0.60000000  0.40000000  1.0
  Ti0+  Ta1  1  0.40000000  0.40000000  0.80000000  1.0
  Ti0+  Ta1  1  0.90000000  0.90000000  0.90000000  1.0
  Ti0+  Ta1  1  0.10000000  0.10000000  0.10000000  1.0
  Ti0+  Ta1  1  0.80000000  0.20000000  0.60000000  1.0
  Ti0+  Ta1  1  0.90000000  0.70000000  0.90000000  1.0
  Ti0+  Ta1  1  0.90000000  0.50000000  0.30000000  1.0
  Ti0+  Ta1  1  0.90000000  0.10000000  0.30000000  1.0
  Ti0+  Ta1  1  0.00000000  0.80000000  0.20000000  1.0
  Ti0+  Ta1  1  0.20000000  0.20000000  0.80000000  1.0
  Ti0+  Ta1  1  0.30000000  0.50000000  0.70000000  1.0
  Ti0+  Ta1  1  0.80000000  0.20000000  0.00000000  1.0
  Ti0+  Ta1  1  0.70000000  0.90000000  0.90000000  1.0
  Ti0+  Ta1  1  0.80000000  0.40000000  0.80000000  1.0
  Ti0+  Ta1  1  0.70000000  0.30000000  0.10000000  1.0
  Ti0+  Ta1  1  0.20000000  0.40000000  0.00000000  1.0
  Ti0+  Ta1  1  0.20000000  0.80000000  0.20000000  1.0
  Ti0+  Ta1  1  0.20000000  0.00000000  0.40000000  1.0
  Ti0+  Ta1  1  0.60000000  0.00000000  0.00000000  1.0
  Ti0+  Ta1  1  0.70000000  0.10000000  0.70000000  1.0
  Ti0+  Ta1  1  0.00000000  0.80000000  0.40000000  1.0
  Ti0+  Ta1  1  0.50000000  0.30000000  0.70000000  1.0
  Ti0+  Ta1  1  0.90000000  0.30000000  0.50000000  1.0
  Ti0+  Ta1  1  0.20000000  0.60000000  0.60000000  1.0
  Ti0+  Ta1  1  0.00000000  0.20000000  0.00000000  1.0
  Ti0+  Ta1  1  0.70000000  0.70000000  0.70000000  1.0
  Ti0+  Ta1  1  0.50000000  0.50000000  0.10000000  1.0
  Ti0+  Ta1  1  0.50000000  0.30000000  0.50000000  1.0
  Ti0+  Ta1  1  0.70000000  0.50000000  0.30000000  1.0
  Ti0+  Ta1  1  0.40000000  0.80000000  0.20000000  1.0
  Ti0+  Ta1  1  0.30000000  0.30000000  0.30000000  1.0
  Ti0+  Ta1  1  0.10000000  0.70000000  0.50000000  1.0
  Ti0+  Ta1  1  0.50000000  0.30000000  0.90000000  1.0
  Ti0+  Ta1  1  0.70000000  0.50000000  0.70000000  1.0
  Ti0+  Ta1  1  0.80000000  0.60000000  0.20000000  1.0
  Ti0+  Ta1  1  0.60000000  0.40000000  0.60000000  1.0
  Ti0+  Ta1  1  0.50000000  0.10000000  0.90000000  1.0
  Ti0+  Ta1  1  0.30000000  0.50000000  0.50000000  1.0
  Ti0+  Ta1  1  0.50000000  0.70000000  0.90000000  1.0
  Ti0+  Ta1  1  0.10000000  0.90000000  0.30000000  1.0
  Mo0+  Ta1  1  0.00000000  0.60000000  0.20000000  1.0
  Mo0+  Ta1  1  0.30000000  0.70000000  0.90000000  1.0
  Mo0+  Ta1  1  0.20000000  0.60000000  0.00000000  1.0
  Mo0+  Ta1  1  0.80000000  0.80000000  0.60000000  1.0
  Mo0+  Ta1  1  0.00000000  0.80000000  0.00000000  1.0
  Mo0+  Ta1  1  0.30000000  0.30000000  0.90000000  1.0
  Mo0+  Ta1  1  0.10000000  0.10000000  0.50000000  1.0
  Mo0+  Ta1  1  0.90000000  0.70000000  0.70000000  1.0
  Mo0+  Ta1  1  0.70000000  0.70000000  0.90000000  1.0
  Mo0+  Ta1  1  0.40000000  0.00000000  0.20000000  1.0
  Mo0+  Ta1  1  0.30000000  0.10000000  0.70000000  1.0
  Mo0+  Ta1  1  0.00000000  0.80000000  0.80000000  1.0
  Mo0+  Ta1  1  0.00000000  0.60000000  0.60000000  1.0
  Mo0+  Ta1  1  0.00000000  0.00000000  0.00000000  1.0
  Mo0+  Ta1  1  0.40000000  0.80000000  0.40000000  1.0
  Mo0+  Ta1  1  0.90000000  0.90000000  0.30000000  1.0
  Mo0+  Ta1  1  0.40000000  0.20000000  0.40000000  1.0
  Mo0+  Ta1  1  0.40000000  0.40000000  0.00000000  1.0
  Mo0+  Ta1  1  0.20000000  0.40000000  0.40000000  1.0
  Mo0+  Ta1  1  0.20000000  0.00000000  0.80000000  1.0
  Mo0+  Ta1  1  0.80000000  0.00000000  0.80000000  1.0
  Mo0+  Ta1  1  0.40000000  0.60000000  0.80000000  1.0
  Mo0+  Ta1  1  0.40000000  0.20000000  0.20000000  1.0
  Mo0+  Ta1  1  0.20000000  0.60000000  0.40000000  1.0
  Mo0+  Ta1  1  0.00000000  0.00000000  0.40000000  1.0
  Mo0+  Ta1  1  0.60000000  0.00000000  0.40000000  1.0
  Mo0+  Ta1  1  0.10000000  0.30000000  0.30000000  1.0
  Mo0+  Ta1  1  0.90000000  0.10000000  0.70000000  1.0
  Mo0+  Ta1  1  0.30000000  0.50000000  0.10000000  1.0
  Mo0+  Ta1  1  0.70000000  0.70000000  0.30000000  1.0
  Mo0+  Ta1  1  0.40000000  0.40000000  0.60000000  1.0
  Mo0+  Ta1  1  0.80000000  0.20000000  0.20000000  1.0
  Mo0+  Ta1  1  0.80000000  0.60000000  0.60000000  1.0
  Mo0+  Ta1  1  0.00000000  0.00000000  0.80000000  1.0
  Mo0+  Ta1  1  0.60000000  0.20000000  0.80000000  1.0
  Mo0+  Ta1  1  0.30000000  0.70000000  0.50000000  1.0
  Mo0+  Ta1  1  0.30000000  0.90000000  0.30000000  1.0
  Mo0+  Ta1  1  0.10000000  0.50000000  0.10000000  1.0
  Mo0+  Ta1  1  0.70000000  0.10000000  0.50000000  1.0
  Mo0+  Ta1  1  0.50000000  0.10000000  0.50000000  1.0
  Mo0+  Ta1  1  0.50000000  0.10000000  0.30000000  1.0
  Mo0+  Ta1  1  0.50000000  0.90000000  0.10000000  1.0
  Mo0+  Ta1  1  0.80000000  0.60000000  0.80000000  1.0
  Mo0+  Ta1  1  0.90000000  0.10000000  0.90000000  1.0
  Mo0+  Ta1  1  0.80000000  0.00000000  0.60000000  1.0
  Mo0+  Ta1  1  0.50000000  0.90000000  0.30000000  1.0
  Mo0+  Ta1  1  0.90000000  0.50000000  0.70000000  1.0
  Mo0+  Ta1  1  0.10000000  0.50000000  0.70000000  1.0
  Mo0+  Ta1  1  0.40000000  0.20000000  0.80000000  1.0
  Mo0+  Ta1  1  0.10000000  0.30000000  0.70000000  1.0
