# generated using pymatgen
data_In86Cu29Se144
_symmetry_space_group_name_H-M   'P 1'
_cell_length_a   17.59520713
_cell_length_b   17.59218412
_cell_length_c   23.45550205
_cell_angle_alpha   89.98409010
_cell_angle_beta   90.01395259
_cell_angle_gamma   89.99986270
_symmetry_Int_Tables_number   1
_chemical_formula_structural   In86Cu29Se144
_chemical_formula_sum   'In86 Cu29 Se144'
_cell_volume   7260.37159439
_cell_formula_units_Z   1
loop_
 _symmetry_equiv_pos_site_id
 _symmetry_equiv_pos_as_xyz
  1  'x, y, z'
loop_
 _atom_site_type_symbol
 _atom_site_label
 _atom_site_symmetry_multiplicity
 _atom_site_fract_x
 _atom_site_fract_y
 _atom_site_fract_z
 _atom_site_occupancy
  In  In0  1  0.01053402  0.15758128  0.12955981  1
  In  In1  1  -0.00117740  0.16529853  0.62373450  1
  In  In2  1  0.00353619  0.50425910  0.13095661  1
  In  In3  1  0.00229003  0.51103044  0.61761776  1
  In  In4  1  -0.00050377  0.82920585  0.12560193  1
  In  In5  1  -0.00531165  0.83548353  0.63802400  1
  In  In6  1  0.32262676  0.17182681  0.13302072  1
  In  In7  1  0.33495929  0.15367534  0.61431664  1
  In  In8  1  0.33233985  0.49831392  0.12837168  1
  In  In9  1  0.33396795  0.51178832  0.61897279  1
  In  In10  1  0.34140869  0.82976456  0.13202184  1
  In  In11  1  0.33503720  0.82466851  0.62388094  1
  In  In12  1  0.67544954  0.17239965  0.12761107  1
  In  In13  1  0.65831663  0.17600515  0.62022660  1
  In  In14  1  0.66001612  0.50012528  0.12079100  1
  In  In15  1  0.67826881  0.50569654  0.62173364  1
  In  In16  1  0.66307205  0.82739804  0.11446553  1
  In  In17  1  0.65909830  0.82349506  0.62383667  1
  In  In18  1  0.16652359  -0.00134326  0.36379581  1
  In  In19  1  0.16785078  0.00344136  0.88604825  1
  In  In20  1  0.18299399  0.36195171  0.35083964  1
  In  In21  1  0.15885368  0.33863132  0.88920399  1
  In  In22  1  0.15937495  0.65768717  0.35858340  1
  In  In23  1  0.16206292  0.66013143  0.87396755  1
  In  In24  1  0.50020628  0.00003360  0.37668947  1
  In  In25  1  0.49212835  -0.01936996  0.87754816  1
  In  In26  1  0.48669120  0.32118196  0.36670199  1
  In  In27  1  0.51096858  0.34198694  0.87682240  1
  In  In28  1  0.49422618  0.68210662  0.37192377  1
  In  In29  1  0.49548488  0.67171851  0.87332095  1
  In  In30  1  0.83325312  -0.01266743  0.37772309  1
  In  In31  1  0.83643772  -0.03473260  0.87398002  1
  In  In32  1  0.84959674  0.34816839  0.36218923  1
  In  In33  1  0.84798617  0.34221631  0.87734516  1
  In  In34  1  0.83502623  0.66325626  0.38508599  1
  In  In35  1  0.82887295  0.66934222  0.87446810  1
  In  In36  1  0.00435101  0.17086403  0.36758846  1
  In  In37  1  0.01456924  0.16413314  0.88261704  1
  In  In38  1  0.00193621  0.50751040  0.37079679  1
  In  In39  1  -0.02983098  0.54513440  0.92234356  1
  In  In40  1  -0.00516221  0.82582658  0.36778863  1
  In  In41  1  -0.01839306  0.81293524  0.85782382  1
  In  In42  1  0.34760560  0.17616109  0.36965009  1
  In  In43  1  0.32148957  0.15111663  0.88549321  1
  In  In44  1  0.32173240  0.49764184  0.35967636  1
  In  In45  1  0.32054580  0.51313737  0.88668576  1
  In  In46  1  0.34017339  0.83662096  0.36007246  1
  In  In47  1  0.35581709  0.82746706  0.88562082  1
  In  In48  1  0.65493657  0.16932339  0.37636348  1
  In  In49  1  0.66517165  0.17293943  0.87546263  1
  In  In50  1  0.68162475  0.50582214  0.37444030  1
  In  In51  1  0.64956233  0.51964050  0.88584052  1
  In  In52  1  0.66866145  0.83796163  0.38538414  1
  In  In53  1  0.67580308  0.81673272  0.87689437  1
  In  In54  1  0.15916529  0.00314351  0.12674083  1
  In  In55  1  0.16719666  -0.01005012  0.62499752  1
  In  In56  1  0.17299439  0.33617857  0.13377846  1
  In  In57  1  0.15474035  0.33984462  0.61754042  1
  In  In58  1  0.16686263  0.65267722  0.13013292  1
  In  In59  1  0.16613577  0.66208226  0.62982302  1
  In  In60  1  0.49068732  -0.01658347  0.12078273  1
  In  In61  1  0.49653084  -0.00689817  0.61584866  1
  In  In62  1  0.48660902  0.34407547  0.13807957  1
  In  In63  1  0.50761230  0.33472302  0.61393423  1
  In  In64  1  0.49681670  0.66771268  0.12076686  1
  In  In65  1  0.48710845  0.67785156  0.63614082  1
  In  In66  1  0.84363107  -0.00648123  0.12210382  1
  In  In67  1  0.84777005  -0.00312307  0.62709926  1
  In  In68  1  0.82248998  0.34774409  0.13519257  1
  In  In69  1  0.82476757  0.33744210  0.61980147  1
  In  In70  1  0.84540486  0.67096923  0.11301684  1
  In  In71  1  0.83549067  0.66763634  0.62673078  1
  In  In72  1  0.67149577  -0.00920896  0.75628119  1
  In  In73  1  0.32888890  -0.01108217  0.75234749  1
  In  In74  1  0.83945521  0.16730948  0.00429750  1
  In  In75  1  0.17589664  0.17934642  0.48709305  1
  In  In76  1  0.67132943  0.34069373  0.74218872  1
  In  In77  1  0.83253205  0.16858516  0.50247537  1
  In  In78  1  0.49567188  0.17331647  0.00515511  1
  In  In79  1  0.66476539  0.66738884  0.24574539  1
  In  In80  1  0.66706159  0.00349739  0.25441620  1
  In  In81  1  0.33263453  0.33607293  0.75048243  1
  In  In82  1  0.49826429  0.49833074  0.49608896  1
  In  In83  1  0.16966824  0.82577979  0.49704146  1
  In  In84  1  0.00291753  0.34303337  0.75175653  1
  In  In85  1  0.15910278  0.82836644  0.00862408  1
  Cu  Cu86  1  0.34787194  -0.00131465  0.49078395  1
  Cu  Cu87  1  0.00539858  0.00007023  0.50193241  1
  Cu  Cu88  1  0.16329887  0.83391635  0.75300098  1
  Cu  Cu89  1  0.00173811  0.35319929  0.49154384  1
  Cu  Cu90  1  0.16601064  0.50114476  0.75586331  1
  Cu  Cu91  1  -0.00167779  -0.01228887  0.00168639  1
  Cu  Cu92  1  0.66874040  0.66558971  -0.00137939  1
  Cu  Cu93  1  0.83281731  0.83160015  0.24920161  1
  Cu  Cu94  1  0.33840669  0.66790307  0.00733596  1
  Cu  Cu95  1  0.66758761  0.33218285  0.49408695  1
  Cu  Cu96  1  0.16281535  0.83494399  0.24341154  1
  Cu  Cu97  1  0.83685326  0.17010161  0.24617730  1
  Cu  Cu98  1  -0.00402940  0.66781518  0.49618894  1
  Cu  Cu99  1  0.83979819  0.50785664  0.25151977  1
  Cu  Cu100  1  0.83298875  0.50667890  0.75710605  1
  Cu  Cu101  1  0.50258798  0.49892086  0.24539197  1
  Cu  Cu102  1  0.32979866  0.66842276  0.49724584  1
  Cu  Cu103  1  0.50138867  0.16272107  0.24972218  1
  Cu  Cu104  1  0.66686773  -0.00839196  0.49978715  1
  Cu  Cu105  1  0.84414993  0.15230663  0.75083330  1
  Cu  Cu106  1  0.16491471  0.16258521  0.75966165  1
  Cu  Cu107  1  0.66647071  0.34551262  0.00420763  1
  Cu  Cu108  1  0.49345756  0.16077650  0.74330310  1
  Cu  Cu109  1  0.66445888  0.66862647  0.50255333  1
  Cu  Cu110  1  0.65838054  -0.00641254  -0.00342703  1
  Cu  Cu111  1  0.16185842  0.16037332  0.25014603  1
  Cu  Cu112  1  0.49485235  0.51132857  0.75231350  1
  Cu  Cu113  1  0.33664487  0.33590783  0.00914475  1
  Cu  Cu114  1  0.00749292  0.33430176  0.01275707  1
  Se  Se115  1  0.07737869  0.07721920  0.05094812  1
  Se  Se116  1  0.08943186  0.08411817  0.55445703  1
  Se  Se117  1  0.08944038  0.41869230  0.06447409  1
  Se  Se118  1  0.08658798  0.43015906  0.54804294  1
  Se  Se119  1  0.07239522  0.72864687  0.05947721  1
  Se  Se120  1  0.07552515  0.74594217  0.55942765  1
  Se  Se121  1  0.40759088  0.08318301  0.06271326  1
  Se  Se122  1  0.42635982  0.08492324  0.54567839  1
  Se  Se123  1  0.42210291  0.42048264  0.05723362  1
  Se  Se124  1  0.40440069  0.40911023  0.55458628  1
  Se  Se125  1  0.41986641  0.75838275  0.05337373  1
  Se  Se126  1  0.41555302  0.74625408  0.55248883  1
  Se  Se127  1  0.74078354  0.07236831  0.05683086  1
  Se  Se128  1  0.74305207  0.07473596  0.56223598  1
  Se  Se129  1  0.75513151  0.42452919  0.05493137  1
  Se  Se130  1  0.74719919  0.41723278  0.54829672  1
  Se  Se131  1  0.75297272  0.75063181  0.04921211  1
  Se  Se132  1  0.75056435  0.74842400  0.55675124  1
  Se  Se133  1  0.24992743  0.25302788  0.05839439  1
  Se  Se134  1  0.25795466  0.25987339  0.55891560  1
  Se  Se135  1  0.25423214  0.58277010  0.05673194  1
  Se  Se136  1  0.24553311  0.58884580  0.55185475  1
  Se  Se137  1  0.25200829  0.91781729  0.06367257  1
  Se  Se138  1  0.26261070  0.92422386  0.55229899  1
  Se  Se139  1  0.58797430  0.26196701  0.06354683  1
  Se  Se140  1  0.58164825  0.24796035  0.54319946  1
  Se  Se141  1  0.58212852  0.58671322  0.05295875  1
  Se  Se142  1  0.58046871  0.58870963  0.56117452  1
  Se  Se143  1  0.57543905  0.91036611  0.04920840  1
  Se  Se144  1  0.58169781  0.90845129  0.55217617  1
  Se  Se145  1  0.91963861  0.25669298  0.07054688  1
  Se  Se146  1  0.92974688  0.26543413  0.55415849  1
  Se  Se147  1  0.91804824  0.57081087  0.05322707  1
  Se  Se148  1  0.91125396  0.58526438  0.55063774  1
  Se  Se149  1  0.91372685  0.90456367  0.05184369  1
  Se  Se150  1  0.92784043  0.91553730  0.55721374  1
  Se  Se151  1  0.07726097  0.26559309  0.43572219  1
  Se  Se152  1  0.08429037  0.24720735  0.95701237  1
  Se  Se153  1  0.08332416  0.59203846  0.44038280  1
  Se  Se154  1  0.10910201  0.56640494  0.94942037  1
  Se  Se155  1  0.08136126  0.92041730  0.43929638  1
  Se  Se156  1  0.07259894  0.90794216  0.93763421  1
  Se  Se157  1  0.41857891  0.25007224  0.44790625  1
  Se  Se158  1  0.40853813  0.25985077  0.93767062  1
  Se  Se159  1  0.40958887  0.58812728  0.43603687  1
  Se  Se160  1  0.41921778  0.58733546  0.94715462  1
  Se  Se161  1  0.42044340  0.90533847  0.43915734  1
  Se  Se162  1  0.39142207  0.94142278  0.94951214  1
  Se  Se163  1  0.75426974  0.25710303  0.43408443  1
  Se  Se164  1  0.74507542  0.26042080  0.94520700  1
  Se  Se165  1  0.74896550  0.58333053  0.45325207  1
  Se  Se166  1  0.75433260  0.58102941  0.94770877  1
  Se  Se167  1  0.75938114  0.91159737  0.45404642  1
  Se  Se168  1  0.74594028  0.90921219  0.94869576  1
  Se  Se169  1  0.25771189  0.07447955  0.43556716  1
  Se  Se170  1  0.23646929  0.08859891  0.95944388  1
  Se  Se171  1  0.25364052  0.41768850  0.43681880  1
  Se  Se172  1  0.25269764  0.41553059  0.95226586  1
  Se  Se173  1  0.25420960  0.74334325  0.42990171  1
  Se  Se174  1  0.25469107  0.74488492  0.94472728  1
  Se  Se175  1  0.58763043  0.07798873  0.44606337  1
  Se  Se176  1  0.58347920  0.08041480  0.93972509  1
  Se  Se177  1  0.58801504  0.41252065  0.43282114  1
  Se  Se178  1  0.57780220  0.42433979  0.95260513  1
  Se  Se179  1  0.58242952  0.74863452  0.44577926  1
  Se  Se180  1  0.58245651  0.74733517  0.94520693  1
  Se  Se181  1  0.92441637  0.08086830  0.44252584  1
  Se  Se182  1  0.91762548  0.07244220  0.93987828  1
  Se  Se183  1  0.91115552  0.43031856  0.44151228  1
  Se  Se184  1  0.92083912  0.41088786  0.95630120  1
  Se  Se185  1  0.91586318  0.75779329  0.44664926  1
  Se  Se186  1  0.92124026  0.74425413  0.94248464  1
  Se  Se187  1  0.24414284  0.24036392  0.30670293  1
  Se  Se188  1  0.24532270  0.24634262  0.81508764  1
  Se  Se189  1  0.25029963  0.58683617  0.29055966  1
  Se  Se190  1  0.25349983  0.58513178  0.80430571  1
  Se  Se191  1  0.24842773  0.91631292  0.29654049  1
  Se  Se192  1  0.24325684  0.90461128  0.81857386  1
  Se  Se193  1  0.58473968  0.24939515  0.30054547  1
  Se  Se194  1  0.57525476  0.24580924  0.79976087  1
  Se  Se195  1  0.57785222  0.57834272  0.31002261  1
  Se  Se196  1  0.58363113  0.59009546  0.80363886  1
  Se  Se197  1  0.58113667  0.90673575  0.30854896  1
  Se  Se198  1  0.57638923  0.90050683  0.80901572  1
  Se  Se199  1  0.92196434  0.25177342  0.29845550  1
  Se  Se200  1  0.91683392  0.24166464  0.80915160  1
  Se  Se201  1  0.91419249  0.59564364  0.30685572  1
  Se  Se202  1  0.92040651  0.57344096  0.81910561  1
  Se  Se203  1  0.91456939  0.91807125  0.30198154  1
  Se  Se204  1  0.92316984  0.91935678  0.79489908  1
  Se  Se205  1  0.07453890  0.07690416  0.30034941  1
  Se  Se206  1  0.08456484  0.07658236  0.81054280  1
  Se  Se207  1  0.06585656  0.41331912  0.29955606  1
  Se  Se208  1  0.08490133  0.42789992  0.81789254  1
  Se  Se209  1  0.07937641  0.75223267  0.29693488  1
  Se  Se210  1  0.08498259  0.74057917  0.80065935  1
  Se  Se211  1  0.41985571  0.07973632  0.30486332  1
  Se  Se212  1  0.41804393  0.08730195  0.80966288  1
  Se  Se213  1  0.41885914  0.41695304  0.29996057  1
  Se  Se214  1  0.41991797  0.42570795  0.81209359  1
  Se  Se215  1  0.41145630  0.74171229  0.29407955  1
  Se  Se216  1  0.40903656  0.74875925  0.80370092  1
  Se  Se217  1  0.76088464  0.09339094  0.31326375  1
  Se  Se218  1  0.75956975  0.08658660  0.81626355  1
  Se  Se219  1  0.75154610  0.42340156  0.29967378  1
  Se  Se220  1  0.75137416  0.42239475  0.81388625  1
  Se  Se221  1  0.75179790  0.75537898  0.31060760  1
  Se  Se222  1  0.75985522  0.75515314  0.80086031  1
  Se  Se223  1  0.24651541  0.07799422  0.19772995  1
  Se  Se224  1  0.24483751  0.08996058  0.69345738  1
  Se  Se225  1  0.26656100  0.40730672  0.20072594  1
  Se  Se226  1  0.24006574  0.42275104  0.69019194  1
  Se  Se227  1  0.24491671  0.75058148  0.19099833  1
  Se  Se228  1  0.24437972  0.75627264  0.69318444  1
  Se  Se229  1  0.57867893  0.08568342  0.18586031  1
  Se  Se230  1  0.58185637  0.08267823  0.68991928  1
  Se  Se231  1  0.59091943  0.41633243  0.19681362  1
  Se  Se232  1  0.57117689  0.43020106  0.68903898  1
  Se  Se233  1  0.57512137  0.76150652  0.19156199  1
  Se  Se234  1  0.58804399  0.74256199  0.69868783  1
  Se  Se235  1  0.91356426  0.08138206  0.19300620  1
  Se  Se236  1  0.93129002  0.07778501  0.69628213  1
  Se  Se237  1  0.91869868  0.41883313  0.19991138  1
  Se  Se238  1  0.90499056  0.42423066  0.69065697  1
  Se  Se239  1  0.91281837  0.74762735  0.19389283  1
  Se  Se240  1  0.93231651  0.72999406  0.69627205  1
  Se  Se241  1  0.08384926  0.24842078  0.19675928  1
  Se  Se242  1  0.09246865  0.24385960  0.69432125  1
  Se  Se243  1  0.08755886  0.57763188  0.20437005  1
  Se  Se244  1  0.08156477  0.57752988  0.69653635  1
  Se  Se245  1  0.07569883  0.91812958  0.19346506  1
  Se  Se246  1  0.08584179  0.92161460  0.69925207  1
  Se  Se247  1  0.41423727  0.24675021  0.20066493  1
  Se  Se248  1  0.41960110  0.24572868  0.68452264  1
  Se  Se249  1  0.42173755  0.58403637  0.19254041  1
  Se  Se250  1  0.40469828  0.58532981  0.69809092  1
  Se  Se251  1  0.41457092  0.92110734  0.20072627  1
  Se  Se252  1  0.42564539  0.90772148  0.69264663  1
  Se  Se253  1  0.74692978  0.25367332  0.20134459  1
  Se  Se254  1  0.76299098  0.23534505  0.69263567  1
  Se  Se255  1  0.75848365  0.58204843  0.18669124  1
  Se  Se256  1  0.75113118  0.58304509  0.69718805  1
  Se  Se257  1  0.75031905  0.91038895  0.18973133  1
  Se  Se258  1  0.75676667  0.90921775  0.68849412  1
