# generated using pymatgen
data_In86Cu29Se144
_symmetry_space_group_name_H-M   'P 1'
_cell_length_a   17.57722951
_cell_length_b   17.57637279
_cell_length_c   23.43501937
_cell_angle_alpha   89.96670020
_cell_angle_beta   89.98987225
_cell_angle_gamma   90.01034891
_symmetry_Int_Tables_number   1
_chemical_formula_structural   In86Cu29Se144
_chemical_formula_sum   'In86 Cu29 Se144'
_cell_volume   7240.10572602
_cell_formula_units_Z   1
loop_
 _symmetry_equiv_pos_site_id
 _symmetry_equiv_pos_as_xyz
  1  'x, y, z'
loop_
 _atom_site_type_symbol
 _atom_site_label
 _atom_site_symmetry_multiplicity
 _atom_site_fract_x
 _atom_site_fract_y
 _atom_site_fract_z
 _atom_site_occupancy
  In  In0  1  0.00115004  0.18490652  0.12619576  1
  In  In1  1  0.00347822  0.15959817  0.62454931  1
  In  In2  1  -0.00351936  0.49939973  0.12958473  1
  In  In3  1  0.01280054  0.50805773  0.60933142  1
  In  In4  1  -0.01943469  0.82897226  0.13552514  1
  In  In5  1  0.00511414  0.83290844  0.63273494  1
  In  In6  1  0.34080291  0.15834155  0.13492615  1
  In  In7  1  0.32904191  0.16198832  0.61882671  1
  In  In8  1  0.31879565  0.50559017  0.12944171  1
  In  In9  1  0.33250906  0.51002572  0.61607876  1
  In  In10  1  0.34775181  0.83396654  0.12541273  1
  In  In11  1  0.34083502  0.82443612  0.63024897  1
  In  In12  1  0.65539020  0.16206269  0.11963926  1
  In  In13  1  0.66715642  0.18397518  0.62170036  1
  In  In14  1  0.68142654  0.49638064  0.12803476  1
  In  In15  1  0.66011979  0.48794534  0.61136950  1
  In  In16  1  0.66303807  0.84402904  0.13783499  1
  In  In17  1  0.65243311  0.83840337  0.62231267  1
  In  In18  1  0.18071661  -0.00317670  0.37135544  1
  In  In19  1  0.16755939  -0.00378846  0.86814371  1
  In  In20  1  0.16662932  0.33091825  0.38145051  1
  In  In21  1  0.17656459  0.34492661  0.87546060  1
  In  In22  1  0.15861784  0.67044417  0.37386556  1
  In  In23  1  0.15868831  0.65616989  0.86919454  1
  In  In24  1  0.49751274  0.00211916  0.37477560  1
  In  In25  1  0.49944439  -0.00077441  0.87591612  1
  In  In26  1  0.49559330  0.34570278  0.38531338  1
  In  In27  1  0.49732760  0.31951761  0.87306786  1
  In  In28  1  0.50687678  0.65838261  0.38534000  1
  In  In29  1  0.50847458  0.67873484  0.87805477  1
  In  In30  1  0.82745557  0.01635624  0.36279351  1
  In  In31  1  0.84369681  -0.00478161  0.87847164  1
  In  In32  1  0.84676349  0.33096251  0.37498254  1
  In  In33  1  0.82407195  0.34128830  0.88124876  1
  In  In34  1  0.82206744  0.65955723  0.36085915  1
  In  In35  1  0.83098424  0.65386769  0.87705624  1
  In  In36  1  -0.00475947  0.19624211  0.37615644  1
  In  In37  1  -0.00122019  0.15721379  0.87714185  1
  In  In38  1  0.00002898  0.49408711  0.38097114  1
  In  In39  1  -0.00689035  0.50787225  0.87921487  1
  In  In40  1  0.01559559  0.82351568  0.36477806  1
  In  In41  1  0.00433162  0.83261271  0.86832706  1
  In  In42  1  0.33302743  0.16810617  0.37652981  1
  In  In43  1  0.35056353  0.16244050  0.87508385  1
  In  In44  1  0.34689167  0.49578092  0.38624938  1
  In  In45  1  0.31940993  0.49367554  0.87460886  1
  In  In46  1  0.32609616  0.84377643  0.37355468  1
  In  In47  1  0.34032541  0.83828209  0.87036312  1
  In  In48  1  0.67149593  0.15566665  0.37097737  1
  In  In49  1  0.65873743  0.17364165  0.88033726  1
  In  In50  1  0.65676363  0.50692428  0.38553194  1
  In  In51  1  0.67973939  0.50541544  0.87617204  1
  In  In52  1  0.66168797  0.82558280  0.36166908  1
  In  In53  1  0.65171237  0.81690613  0.88313073  1
  In  In54  1  0.16758075  0.01574521  0.13082322  1
  In  In55  1  0.16628352  0.00462128  0.62877346  1
  In  In56  1  0.15562521  0.34278068  0.13666459  1
  In  In57  1  0.16976544  0.34503139  0.60433200  1
  In  In58  1  0.16319550  0.64978933  0.12746910  1
  In  In59  1  0.17288093  0.66103822  0.62765703  1
  In  In60  1  0.49920126  0.00261567  0.12836504  1
  In  In61  1  0.48913682  -0.01128678  0.61504674  1
  In  In62  1  0.50441251  0.31992046  0.12953133  1
  In  In63  1  0.51391799  0.33824643  0.61263431  1
  In  In64  1  0.49922527  0.68205599  0.12478357  1
  In  In65  1  0.47942834  0.65301240  0.60619256  1
  In  In66  1  0.81497974  0.00002666  0.12991515  1
  In  In67  1  0.84441947  0.01159789  0.62661818  1
  In  In68  1  0.83786119  0.34390505  0.11974725  1
  In  In69  1  0.81916225  0.33679616  0.62142860  1
  In  In70  1  0.84228984  0.66155676  0.13752974  1
  In  In71  1  0.84664274  0.66484652  0.62746138  1
  In  In72  1  0.00516067  0.00009034  0.24857623  1
  In  In73  1  0.67138743  0.00355981  0.74820000  1
  In  In74  1  0.66889770  0.66623847  0.75352670  1
  In  In75  1  0.16912438  0.82712051  0.00722221  1
  In  In76  1  0.17040861  0.17816411  -0.00474893  1
  In  In77  1  -0.00007168  0.33208605  0.73902607  1
  In  In78  1  0.82208212  0.82858270  0.00395363  1
  In  In79  1  0.33005205  0.66953895  0.25344861  1
  In  In80  1  0.50082633  0.49991209  0.00278907  1
  In  In81  1  0.17474803  0.82739822  0.49544005  1
  In  In82  1  0.82923600  0.83083829  0.48887946  1
  In  In83  1  0.33676595  0.32927192  0.74622073  1
  In  In84  1  0.82920234  0.17008499  0.49655720  1
  In  In85  1  0.66977597  0.32938773  0.25107259  1
  Cu  Cu86  1  0.65707172  0.00077082  0.00515061  1
  Cu  Cu87  1  0.50416384  0.16198673  0.74936246  1
  Cu  Cu88  1  0.33032696  0.33396028  0.00339180  1
  Cu  Cu89  1  -0.00045434  0.65958157  0.49634980  1
  Cu  Cu90  1  0.49497480  0.16538281  0.25236003  1
  Cu  Cu91  1  0.34490532  -0.00143143  0.00119894  1
  Cu  Cu92  1  -0.00603963  0.65817757  0.00327706  1
  Cu  Cu93  1  0.33149919  0.66564868  0.00266960  1
  Cu  Cu94  1  0.16365920  0.49064683  0.25526301  1
  Cu  Cu95  1  0.84154163  0.83753018  0.75031099  1
  Cu  Cu96  1  0.66722901  0.33012670  0.00273658  1
  Cu  Cu97  1  0.17018325  0.15960682  0.74645208  1
  Cu  Cu98  1  0.49824481  0.84054387  0.25113545  1
  Cu  Cu99  1  0.83441487  0.49881708  0.75215165  1
  Cu  Cu100  1  -0.00478407  0.00355006  -0.00083310  1
  Cu  Cu101  1  0.16987012  0.17177204  0.25631389  1
  Cu  Cu102  1  0.49909058  0.50080442  0.73577329  1
  Cu  Cu103  1  0.00166305  0.00185142  0.50212962  1
  Cu  Cu104  1  -0.00343624  0.34519966  0.00422589  1
  Cu  Cu105  1  0.50135073  0.50406039  0.26060260  1
  Cu  Cu106  1  0.65759035  0.00135675  0.49509133  1
  Cu  Cu107  1  0.83779200  0.16975711  0.74707657  1
  Cu  Cu108  1  0.33571609  0.00229500  0.49679066  1
  Cu  Cu109  1  0.67125002  0.67142489  0.49425441  1
  Cu  Cu110  1  0.16486063  0.50542353  0.74571992  1
  Cu  Cu111  1  0.49458371  0.82736455  0.74818628  1
  Cu  Cu112  1  0.83950953  0.49496015  0.25277900  1
  Cu  Cu113  1  0.17054873  0.83468200  0.74844316  1
  Cu  Cu114  1  0.33431090  0.33012931  0.49929348  1
  Se  Se115  1  0.07883915  0.08513802  0.05427332  1
  Se  Se116  1  0.08747021  0.08227836  0.55401721  1
  Se  Se117  1  0.08430155  0.42077230  0.05905057  1
  Se  Se118  1  0.06687046  0.40530765  0.54193176  1
  Se  Se119  1  0.06914450  0.74320244  0.06351601  1
  Se  Se120  1  0.07553695  0.74612876  0.55612185  1
  Se  Se121  1  0.41889451  0.08767779  0.05690453  1
  Se  Se122  1  0.41916430  0.08632036  0.55018994  1
  Se  Se123  1  0.41087370  0.41235153  0.06568551  1
  Se  Se124  1  0.41348211  0.41574645  0.55534035  1
  Se  Se125  1  0.41634043  0.75241595  0.04908173  1
  Se  Se126  1  0.42254471  0.76531068  0.55065730  1
  Se  Se127  1  0.74628783  0.08196886  0.05349648  1
  Se  Se128  1  0.74198328  0.07362585  0.55830541  1
  Se  Se129  1  0.75005413  0.41932492  0.04931322  1
  Se  Se130  1  0.75477958  0.41887495  0.54498834  1
  Se  Se131  1  0.74425939  0.74427519  0.07311293  1
  Se  Se132  1  0.74673544  0.74805296  0.56184883  1
  Se  Se133  1  0.25239164  0.25587361  0.06797729  1
  Se  Se134  1  0.24882754  0.24494063  0.54903691  1
  Se  Se135  1  0.24607368  0.58133768  0.05120917  1
  Se  Se136  1  0.23110365  0.57292733  0.55181254  1
  Se  Se137  1  0.25506265  0.92895438  0.06055746  1
  Se  Se138  1  0.25587575  0.92106376  0.55909250  1
  Se  Se139  1  0.57677431  0.24877432  0.04985965  1
  Se  Se140  1  0.58381549  0.24477399  0.54525974  1
  Se  Se141  1  0.58769962  0.58550645  0.06627980  1
  Se  Se142  1  0.58901804  0.58909690  0.55005978  1
  Se  Se143  1  0.58132248  0.91484456  0.06136653  1
  Se  Se144  1  0.57816042  0.91266462  0.54593365  1
  Se  Se145  1  0.91689970  0.25348533  0.05172473  1
  Se  Se146  1  0.91921830  0.25170092  0.56190345  1
  Se  Se147  1  0.91033837  0.57977786  0.05962760  1
  Se  Se148  1  0.91058002  0.58295988  0.54981142  1
  Se  Se149  1  0.91692986  0.92222997  0.05903015  1
  Se  Se150  1  0.92041561  0.91684267  0.55632969  1
  Se  Se151  1  0.09004629  0.24139168  0.45035197  1
  Se  Se152  1  0.07306565  0.26662642  0.93778105  1
  Se  Se153  1  0.08834199  0.58161505  0.44472108  1
  Se  Se154  1  0.08352450  0.58289449  0.94772025  1
  Se  Se155  1  0.07833232  0.92000203  0.44071876  1
  Se  Se156  1  0.07963646  0.92061799  0.94540739  1
  Se  Se157  1  0.41822538  0.24793372  0.44623084  1
  Se  Se158  1  0.41348660  0.25196007  0.94935657  1
  Se  Se159  1  0.42094364  0.58416109  0.45460501  1
  Se  Se160  1  0.40918699  0.58490566  0.93920936  1
  Se  Se161  1  0.41492236  0.91617138  0.44333087  1
  Se  Se162  1  0.42140494  0.91220335  0.94545721  1
  Se  Se163  1  0.73976856  0.25849984  0.43696029  1
  Se  Se164  1  0.75080852  0.24739429  0.94769098  1
  Se  Se165  1  0.75627317  0.58759221  0.44381279  1
  Se  Se166  1  0.73839994  0.59636502  0.94915206  1
  Se  Se167  1  0.74326800  0.92867505  0.43415935  1
  Se  Se168  1  0.73548150  0.92249123  0.94015044  1
  Se  Se169  1  0.24853246  0.08258319  0.44527217  1
  Se  Se170  1  0.25749175  0.07516345  0.94204304  1
  Se  Se171  1  0.25200912  0.41660744  0.44800807  1
  Se  Se172  1  0.24640996  0.42009474  0.95425684  1
  Se  Se173  1  0.26500476  0.73513023  0.44005133  1
  Se  Se174  1  0.25288122  0.74435977  0.93838831  1
  Se  Se175  1  0.58000137  0.08896887  0.44250816  1
  Se  Se176  1  0.57883194  0.08345976  0.94499025  1
  Se  Se177  1  0.58362476  0.41922373  0.45410839  1
  Se  Se178  1  0.58677329  0.40920341  0.93896739  1
  Se  Se179  1  0.58884083  0.75726479  0.44314806  1
  Se  Se180  1  0.58183204  0.74158196  0.96018512  1
  Se  Se181  1  0.92249070  0.07826872  0.43861025  1
  Se  Se182  1  0.91029995  0.08780599  0.94955759  1
  Se  Se183  1  0.92036153  0.40847092  0.44981294  1
  Se  Se184  1  0.91154723  0.42345694  0.94644779  1
  Se  Se185  1  0.92490001  0.74231010  0.43432323  1
  Se  Se186  1  0.92291165  0.74742643  0.94284436  1
  Se  Se187  1  0.25321369  0.25578731  0.30858031  1
  Se  Se188  1  0.24571963  0.24045143  0.81053284  1
  Se  Se189  1  0.24778120  0.57201851  0.31300321  1
  Se  Se190  1  0.25192814  0.58183057  0.80160817  1
  Se  Se191  1  0.23890288  0.90455861  0.29861459  1
  Se  Se192  1  0.25465049  0.91770357  0.80180375  1
  Se  Se193  1  0.57334335  0.24833297  0.31233682  1
  Se  Se194  1  0.58494826  0.24849738  0.80118475  1
  Se  Se195  1  0.58781114  0.58861242  0.30769363  1
  Se  Se196  1  0.57376656  0.57317798  0.80805211  1
  Se  Se197  1  0.58302631  0.92425398  0.30335974  1
  Se  Se198  1  0.58295233  0.90542487  0.80486651  1
  Se  Se199  1  0.89724040  0.23390253  0.30102516  1
  Se  Se200  1  0.91471949  0.25084287  0.81015228  1
  Se  Se201  1  0.92276665  0.57780728  0.30736129  1
  Se  Se202  1  0.91685469  0.58503308  0.80296978  1
  Se  Se203  1  0.91625700  0.91341488  0.31181099  1
  Se  Se204  1  0.92294940  0.92203238  0.80351696  1
  Se  Se205  1  0.08556150  0.09171164  0.31494243  1
  Se  Se206  1  0.08436436  0.08547389  0.80508927  1
  Se  Se207  1  0.08022941  0.40915370  0.31040407  1
  Se  Se208  1  0.08639287  0.42177345  0.80518177  1
  Se  Se209  1  0.09606705  0.74768699  0.29376965  1
  Se  Se210  1  0.08676526  0.74959513  0.80168586  1
  Se  Se211  1  0.41092178  0.08145419  0.30550036  1
  Se  Se212  1  0.42073798  0.07814493  0.80139826  1
  Se  Se213  1  0.41675147  0.41742533  0.30749400  1
  Se  Se214  1  0.42425634  0.42331590  0.80602636  1
  Se  Se215  1  0.42494833  0.75420989  0.31311712  1
  Se  Se216  1  0.41719146  0.74346995  0.80592095  1
  Se  Se217  1  0.74547807  0.08912663  0.29091858  1
  Se  Se218  1  0.75937707  0.09077686  0.81122769  1
  Se  Se219  1  0.75130030  0.42330263  0.31390280  1
  Se  Se220  1  0.74878913  0.41712034  0.80367499  1
  Se  Se221  1  0.76205792  0.76244609  0.29690401  1
  Se  Se222  1  0.75864767  0.76182172  0.81189207  1
  Se  Se223  1  0.25106689  0.08428108  0.20500122  1
  Se  Se224  1  0.25914865  0.08034318  0.69579540  1
  Se  Se225  1  0.25350461  0.41506888  0.20130219  1
  Se  Se226  1  0.24351855  0.41880886  0.68866748  1
  Se  Se227  1  0.24621034  0.75272480  0.18421616  1
  Se  Se228  1  0.25079055  0.74723945  0.69626094  1
  Se  Se229  1  0.58168866  0.08633404  0.19760667  1
  Se  Se230  1  0.58058329  0.08446229  0.68358485  1
  Se  Se231  1  0.57670453  0.42450321  0.19431584  1
  Se  Se232  1  0.58604134  0.41538156  0.69112557  1
  Se  Se233  1  0.57957249  0.75172757  0.20075150  1
  Se  Se234  1  0.57492901  0.74620142  0.68928482  1
  Se  Se235  1  0.91662734  0.08688805  0.18569843  1
  Se  Se236  1  0.92484846  0.08415529  0.70109798  1
  Se  Se237  1  0.91903228  0.40960352  0.19843879  1
  Se  Se238  1  0.91208572  0.42725979  0.68416601  1
  Se  Se239  1  0.92057015  0.74197029  0.20996274  1
  Se  Se240  1  0.92120961  0.74858008  0.69944454  1
  Se  Se241  1  0.08115282  0.25127077  0.20426186  1
  Se  Se242  1  0.10144847  0.24736325  0.68561562  1
  Se  Se243  1  0.08239240  0.57722263  0.20153224  1
  Se  Se244  1  0.07739610  0.58373330  0.69182325  1
  Se  Se245  1  0.09148031  0.90873037  0.18574636  1
  Se  Se246  1  0.08535788  0.92036245  0.69795859  1
  Se  Se247  1  0.41409028  0.25351222  0.20118006  1
  Se  Se248  1  0.42785961  0.24352754  0.68563210  1
  Se  Se249  1  0.42358972  0.58012061  0.19305958  1
  Se  Se250  1  0.41206458  0.58603095  0.69125058  1
  Se  Se251  1  0.41297925  0.92216624  0.19858462  1
  Se  Se252  1  0.41751459  0.91788484  0.69623058  1
  Se  Se253  1  0.75216487  0.24713366  0.18225271  1
  Se  Se254  1  0.75079337  0.25229301  0.69754645  1
  Se  Se255  1  0.75198182  0.57820603  0.20274031  1
  Se  Se256  1  0.75215822  0.57662083  0.68892736  1
  Se  Se257  1  0.76121114  0.90883872  0.20476359  1
  Se  Se258  1  0.75958566  0.90930538  0.68691364  1
