# generated using pymatgen
data_In86Cu29Se144
_symmetry_space_group_name_H-M   'P 1'
_cell_length_a   17.58396269
_cell_length_b   17.57932927
_cell_length_c   23.44346558
_cell_angle_alpha   90.00398377
_cell_angle_beta   89.99381946
_cell_angle_gamma   90.00519180
_symmetry_Int_Tables_number   1
_chemical_formula_structural   In86Cu29Se144
_chemical_formula_sum   'In86 Cu29 Se144'
_cell_volume   7246.70965676
_cell_formula_units_Z   1
loop_
 _symmetry_equiv_pos_site_id
 _symmetry_equiv_pos_as_xyz
  1  'x, y, z'
loop_
 _atom_site_type_symbol
 _atom_site_label
 _atom_site_symmetry_multiplicity
 _atom_site_fract_x
 _atom_site_fract_y
 _atom_site_fract_z
 _atom_site_occupancy
  In  In0  1  0.01073163  0.16931126  0.12357965  1
  In  In1  1  -0.00425642  0.18219759  0.62070105  1
  In  In2  1  -0.03256894  0.52616749  0.15902927  1
  In  In3  1  0.00366183  0.50719899  0.61900936  1
  In  In4  1  -0.01957010  0.83285502  0.12283081  1
  In  In5  1  -0.01776795  0.81649271  0.61424384  1
  In  In6  1  0.32290123  0.17685016  0.13564787  1
  In  In7  1  0.33036042  0.15815922  0.62724086  1
  In  In8  1  0.33102014  0.50251703  0.13488033  1
  In  In9  1  0.35105364  0.51900602  0.60607067  1
  In  In10  1  0.34149563  0.82802676  0.13271272  1
  In  In11  1  0.32793291  0.83738457  0.62537641  1
  In  In12  1  0.66370004  0.17027652  0.13129023  1
  In  In13  1  0.66387693  0.15439327  0.62417902  1
  In  In14  1  0.67782997  0.50670755  0.13256197  1
  In  In15  1  0.69483617  0.55104089  0.57492092  1
  In  In16  1  0.68622287  0.81513334  0.14174684  1
  In  In17  1  0.67949153  0.81685371  0.63188926  1
  In  In18  1  0.16742071  -0.01686766  0.37615970  1
  In  In19  1  0.17836530  -0.00167872  0.87601210  1
  In  In20  1  0.18414918  0.35352087  0.36744683  1
  In  In21  1  0.15384794  0.33461357  0.88274956  1
  In  In22  1  0.16428247  0.66451274  0.37491763  1
  In  In23  1  0.16749699  0.66865519  0.86753664  1
  In  In24  1  0.50304461  0.00152248  0.36791597  1
  In  In25  1  0.49754838  -0.00471919  0.86814509  1
  In  In26  1  0.50122196  0.33928698  0.36908942  1
  In  In27  1  0.49717738  0.34838643  0.87756666  1
  In  In28  1  0.50246987  0.66152233  0.37476578  1
  In  In29  1  0.50393450  0.66953068  0.86870897  1
  In  In30  1  0.82492041  0.00290975  0.38172989  1
  In  In31  1  0.81621616  -0.00171886  0.87109478  1
  In  In32  1  0.83173932  0.33962438  0.36787695  1
  In  In33  1  0.83798290  0.34033660  0.87969662  1
  In  In34  1  0.83332648  0.65632806  0.37275937  1
  In  In35  1  0.83315294  0.66386137  0.87649884  1
  In  In36  1  -0.01560146  0.16848828  0.37796384  1
  In  In37  1  0.00201106  0.18401366  0.88282582  1
  In  In38  1  -0.00431009  0.50592481  0.36993579  1
  In  In39  1  -0.01116998  0.51046489  0.87800768  1
  In  In40  1  0.01006232  0.82087167  0.38258260  1
  In  In41  1  -0.00403132  0.81185540  0.87256843  1
  In  In42  1  0.33950049  0.17039032  0.36690474  1
  In  In43  1  0.33804486  0.15488422  0.87964451  1
  In  In44  1  0.33044516  0.50041193  0.37836368  1
  In  In45  1  0.33340286  0.50620250  0.87078956  1
  In  In46  1  0.32711484  0.82161714  0.36896507  1
  In  In47  1  0.33068751  0.83035345  0.86656012  1
  In  In48  1  0.67356452  0.17509949  0.36670226  1
  In  In49  1  0.67424546  0.16105332  0.87256701  1
  In  In50  1  0.67374197  0.49702702  0.37070851  1
  In  In51  1  0.67424596  0.50961258  0.87591629  1
  In  In52  1  0.66848002  0.82712973  0.37637542  1
  In  In53  1  0.66843600  0.83261990  0.87233282  1
  In  In54  1  0.16416506  0.01266665  0.12536911  1
  In  In55  1  0.18089331  -0.00070672  0.62608518  1
  In  In56  1  0.16386158  0.33329864  0.13435569  1
  In  In57  1  0.16226109  0.33943782  0.61700065  1
  In  In58  1  0.17184873  0.65990077  0.13049501  1
  In  In59  1  0.16377357  0.66882619  0.62125761  1
  In  In60  1  0.50195535  -0.00484325  0.13317862  1
  In  In61  1  0.50120146  -0.00372884  0.63028196  1
  In  In62  1  0.50492587  0.33420250  0.13427034  1
  In  In63  1  0.50666833  0.35988932  0.61533946  1
  In  In64  1  0.50231799  0.66468484  0.13180287  1
  In  In65  1  0.50637803  0.65946389  0.62661288  1
  In  In66  1  0.83055536  -0.01673466  0.12538919  1
  In  In67  1  0.82237788  -0.01402190  0.61771153  1
  In  In68  1  0.80871453  0.36725975  0.15698226  1
  In  In69  1  0.83771419  0.34383201  0.61325574  1
  In  In70  1  0.83035313  0.66921281  0.12918041  1
  In  In71  1  0.83585919  0.66724236  0.62443829  1
  In  In72  1  0.00223714  -0.00155138  0.74475305  1
  In  In73  1  0.51214828  0.50231522  0.00672899  1
  In  In74  1  0.16234346  0.16882074  0.50063970  1
  In  In75  1  0.83583624  0.17287739  0.00332215  1
  In  In76  1  0.66259759  0.33748276  0.75288068  1
  In  In77  1  0.16402436  0.49431830  0.01452471  1
  In  In78  1  0.50413255  0.82994441  -0.00250296  1
  In  In79  1  0.16331810  0.83007648  -0.00830889  1
  In  In80  1  -0.00184775  0.34222141  0.74490378  1
  In  In81  1  0.50721532  0.17397933  0.49055702  1
  In  In82  1  0.50722552  0.82604378  0.49380221  1
  In  In83  1  0.32823153  0.32753984  0.73427110  1
  In  In84  1  -0.00042865  -0.00366742  0.24907169  1
  In  In85  1  0.50077081  0.16630553  0.01510323  1
  Cu  Cu86  1  0.49813567  0.50440965  0.25485272  1
  Cu  Cu87  1  0.83386678  0.83031918  0.25537132  1
  Cu  Cu88  1  0.16548159  0.83034866  0.74557997  1
  Cu  Cu89  1  -0.00251325  -0.00238877  0.49670818  1
  Cu  Cu90  1  0.32509880  0.67026414  0.49555946  1
  Cu  Cu91  1  0.17431578  0.16371941  0.75565775  1
  Cu  Cu92  1  0.82939711  0.82973078  0.74745227  1
  Cu  Cu93  1  0.33342208  -0.00258698  0.49984541  1
  Cu  Cu94  1  0.16814405  0.16381907  0.25322164  1
  Cu  Cu95  1  -0.00394066  0.33750772  0.49133471  1
  Cu  Cu96  1  -0.00468561  -0.00036343  0.00273259  1
  Cu  Cu97  1  0.67585377  -0.00642834  0.50246798  1
  Cu  Cu98  1  0.49732173  0.16258076  0.74934575  1
  Cu  Cu99  1  0.32807042  0.32923801  0.00846500  1
  Cu  Cu100  1  0.82686544  0.16469102  0.74455220  1
  Cu  Cu101  1  0.16730310  0.51116131  0.74499725  1
  Cu  Cu102  1  -0.00152630  0.33641180  0.01139066  1
  Cu  Cu103  1  0.16778894  0.50015441  0.25459485  1
  Cu  Cu104  1  0.16885213  0.82862135  0.25098657  1
  Cu  Cu105  1  0.49735575  0.16246618  0.24888022  1
  Cu  Cu106  1  0.66434072  -0.00649273  -0.00079863  1
  Cu  Cu107  1  -0.00522391  0.66284005  0.00500653  1
  Cu  Cu108  1  0.50176129  0.50703296  0.74344216  1
  Cu  Cu109  1  0.67083532  0.33569209  0.48727886  1
  Cu  Cu110  1  0.32278827  0.00090341  0.00183535  1
  Cu  Cu111  1  -0.00082530  0.66252600  0.49566421  1
  Cu  Cu112  1  0.83269934  0.16554887  0.25282622  1
  Cu  Cu113  1  0.49917232  0.83178001  0.74664465  1
  Cu  Cu114  1  0.50366549  0.83267160  0.25418243  1
  Se  Se115  1  0.08191723  0.08306144  0.05009276  1
  Se  Se116  1  0.07475443  0.07575038  0.56218548  1
  Se  Se117  1  0.06671538  0.42066724  0.07595956  1
  Se  Se118  1  0.07841779  0.41738481  0.54895212  1
  Se  Se119  1  0.07955986  0.74440071  0.06109086  1
  Se  Se120  1  0.08115050  0.74899848  0.54942697  1
  Se  Se121  1  0.40395122  0.07441121  0.06563173  1
  Se  Se122  1  0.41858788  0.07893756  0.55372293  1
  Se  Se123  1  0.41181479  0.41215264  0.06202928  1
  Se  Se124  1  0.40150336  0.40461244  0.54868667  1
  Se  Se125  1  0.41299156  0.74131797  0.05713467  1
  Se  Se126  1  0.41085692  0.74640348  0.55681404  1
  Se  Se127  1  0.74283328  0.07704496  0.05907435  1
  Se  Se128  1  0.75293240  0.08626030  0.55290625  1
  Se  Se129  1  0.75590230  0.41980270  0.06362727  1
  Se  Se130  1  0.75054607  0.41883160  0.54412720  1
  Se  Se131  1  0.75926341  0.75977581  0.05813143  1
  Se  Se132  1  0.75678377  0.75340837  0.55359915  1
  Se  Se133  1  0.24198807  0.24977793  0.06062318  1
  Se  Se134  1  0.26037483  0.25323631  0.55790915  1
  Se  Se135  1  0.26382353  0.59040008  0.05587270  1
  Se  Se136  1  0.24292166  0.58508030  0.54934997  1
  Se  Se137  1  0.24986195  0.91409097  0.06137851  1
  Se  Se138  1  0.24800166  0.91523032  0.55054946  1
  Se  Se139  1  0.59607765  0.26505117  0.05802872  1
  Se  Se140  1  0.59543994  0.26026239  0.55671067  1
  Se  Se141  1  0.59948635  0.59888099  0.06054423  1
  Se  Se142  1  0.55238640  0.56215176  0.55139978  1
  Se  Se143  1  0.58983495  0.91509508  0.06362186  1
  Se  Se144  1  0.58992420  0.91641307  0.56064305  1
  Se  Se145  1  0.91399344  0.25970433  0.07054403  1
  Se  Se146  1  0.91472860  0.25269232  0.54623382  1
  Se  Se147  1  0.91690932  0.58088112  0.06368047  1
  Se  Se148  1  0.91486613  0.58307267  0.55135785  1
  Se  Se149  1  0.90916724  0.91377672  0.04724661  1
  Se  Se150  1  0.91257403  0.91396349  0.54925876  1
  Se  Se151  1  0.08133442  0.25765214  0.43456757  1
  Se  Se152  1  0.08355992  0.25356842  0.95872464  1
  Se  Se153  1  0.08292624  0.57898287  0.44278272  1
  Se  Se154  1  0.08478579  0.58966208  0.94647492  1
  Se  Se155  1  0.08515776  0.91318316  0.45044078  1
  Se  Se156  1  0.07050104  0.92268493  0.93478259  1
  Se  Se157  1  0.40690962  0.26031517  0.44105070  1
  Se  Se158  1  0.41370720  0.25635455  0.94646276  1
  Se  Se159  1  0.41294866  0.58888839  0.44484118  1
  Se  Se160  1  0.41876416  0.58547908  0.94170954  1
  Se  Se161  1  0.41397876  0.91964693  0.43866687  1
  Se  Se162  1  0.40530336  0.92247378  0.94277476  1
  Se  Se163  1  0.75554142  0.24927885  0.43952743  1
  Se  Se164  1  0.74069410  0.25738485  0.94198761  1
  Se  Se165  1  0.75213845  0.57573435  0.44534832  1
  Se  Se166  1  0.76529715  0.57099920  0.94714306  1
  Se  Se167  1  0.75242233  0.90719877  0.44704788  1
  Se  Se168  1  0.74905335  0.91342766  0.94534997  1
  Se  Se169  1  0.25546665  0.08043436  0.43959469  1
  Se  Se170  1  0.24393390  0.08855669  0.94951479  1
  Se  Se171  1  0.24809273  0.42141991  0.45053186  1
  Se  Se172  1  0.25742011  0.41301646  0.94379314  1
  Se  Se173  1  0.24222853  0.75528764  0.44437337  1
  Se  Se174  1  0.26083955  0.73896590  0.94155858  1
  Se  Se175  1  0.59651439  0.07404662  0.44084859  1
  Se  Se176  1  0.58354515  0.07791991  0.94352440  1
  Se  Se177  1  0.58264247  0.41847091  0.43970654  1
  Se  Se178  1  0.59712049  0.40950760  0.94466464  1
  Se  Se179  1  0.60009304  0.72879981  0.44766815  1
  Se  Se180  1  0.59568033  0.73704282  0.94371690  1
  Se  Se181  1  0.91225883  0.08354643  0.44960786  1
  Se  Se182  1  0.91797351  0.07889367  0.93700123  1
  Se  Se183  1  0.91255301  0.42099558  0.43910286  1
  Se  Se184  1  0.92375977  0.41654686  0.94866367  1
  Se  Se185  1  0.91324225  0.74369489  0.44259183  1
  Se  Se186  1  0.91495998  0.74754876  0.94966671  1
  Se  Se187  1  0.25105270  0.25173619  0.30289022  1
  Se  Se188  1  0.24776952  0.25181802  0.81433608  1
  Se  Se189  1  0.25175698  0.58511253  0.30687361  1
  Se  Se190  1  0.25458264  0.58729329  0.80082091  1
  Se  Se191  1  0.25165650  0.91508600  0.30159421  1
  Se  Se192  1  0.24620742  0.91525378  0.80069564  1
  Se  Se193  1  0.57836608  0.24817602  0.30276365  1
  Se  Se194  1  0.56982283  0.24382446  0.81316554  1
  Se  Se195  1  0.58793572  0.58432679  0.30471015  1
  Se  Se196  1  0.58510925  0.57992600  0.80495214  1
  Se  Se197  1  0.58904198  0.91380217  0.30699316  1
  Se  Se198  1  0.58269469  0.91300402  0.80352427  1
  Se  Se199  1  0.91752606  0.25004864  0.30194469  1
  Se  Se200  1  0.90844749  0.24406276  0.80457586  1
  Se  Se201  1  0.90918009  0.57726238  0.29683058  1
  Se  Se202  1  0.92433866  0.59426604  0.80456426  1
  Se  Se203  1  0.91523850  0.91075892  0.31530691  1
  Se  Se204  1  0.91161832  0.91145391  0.80751339  1
  Se  Se205  1  0.08636934  0.08497112  0.31413669  1
  Se  Se206  1  0.08333804  0.09201288  0.81238067  1
  Se  Se207  1  0.08088371  0.41682574  0.30443910  1
  Se  Se208  1  0.09180086  0.42785031  0.80739243  1
  Se  Se209  1  0.08222022  0.74775400  0.30325930  1
  Se  Se210  1  0.08244486  0.74678400  0.79820990  1
  Se  Se211  1  0.41368105  0.07806976  0.30079503  1
  Se  Se212  1  0.41254830  0.08094097  0.80277600  1
  Se  Se213  1  0.41180168  0.42016124  0.30450977  1
  Se  Se214  1  0.41874678  0.42033431  0.79745294  1
  Se  Se215  1  0.42097219  0.74647551  0.30571598  1
  Se  Se216  1  0.41664731  0.74823561  0.80133381  1
  Se  Se217  1  0.75092846  0.07867095  0.30415635  1
  Se  Se218  1  0.74399443  0.08073275  0.79641654  1
  Se  Se219  1  0.73911653  0.40595373  0.29742780  1
  Se  Se220  1  0.76273708  0.42372525  0.80572057  1
  Se  Se221  1  0.74990299  0.74530384  0.30622616  1
  Se  Se222  1  0.75006047  0.74708930  0.80566626  1
  Se  Se223  1  0.24983884  0.07886737  0.20009006  1
  Se  Se224  1  0.25467545  0.07938455  0.70182480  1
  Se  Se225  1  0.25065430  0.41560069  0.20047334  1
  Se  Se226  1  0.24344674  0.42964381  0.68386776  1
  Se  Se227  1  0.25336933  0.74615171  0.19724947  1
  Se  Se228  1  0.24967317  0.74800779  0.69189162  1
  Se  Se229  1  0.58531805  0.08145183  0.19779748  1
  Se  Se230  1  0.58416314  0.08012943  0.69828563  1
  Se  Se231  1  0.58235316  0.42719201  0.19645165  1
  Se  Se232  1  0.59035393  0.43353009  0.68759607  1
  Se  Se233  1  0.58470521  0.74534826  0.20180918  1
  Se  Se234  1  0.58306953  0.74545446  0.69643537  1
  Se  Se235  1  0.90983214  0.08658939  0.18803722  1
  Se  Se236  1  0.91152873  0.08905060  0.68518885  1
  Se  Se237  1  0.93877073  0.39481050  0.20267904  1
  Se  Se238  1  0.90546873  0.43119430  0.68998569  1
  Se  Se239  1  0.91838563  0.75033489  0.19994860  1
  Se  Se240  1  0.91705168  0.74768935  0.69790796  1
  Se  Se241  1  0.08244587  0.24500153  0.20159549  1
  Se  Se242  1  0.09561372  0.24407524  0.69432175  1
  Se  Se243  1  0.08715527  0.58899624  0.20376155  1
  Se  Se244  1  0.07898864  0.58884066  0.69253096  1
  Se  Se245  1  0.08892561  0.90644650  0.18674922  1
  Se  Se246  1  0.08515195  0.90672116  0.68246983  1
  Se  Se247  1  0.41688877  0.25274937  0.19902036  1
  Se  Se248  1  0.43347817  0.24537333  0.68182284  1
  Se  Se249  1  0.41462448  0.58743870  0.20004379  1
  Se  Se250  1  0.41062376  0.58601469  0.69364267  1
  Se  Se251  1  0.41749456  0.91496679  0.20147326  1
  Se  Se252  1  0.41362865  0.91586327  0.69548250  1
  Se  Se253  1  0.74487698  0.24818568  0.20303608  1
  Se  Se254  1  0.75312194  0.25186969  0.68601558  1
  Se  Se255  1  0.76700973  0.57770047  0.20311374  1
  Se  Se256  1  0.73717592  0.58142851  0.67755952  1
  Se  Se257  1  0.75106457  0.91948103  0.20496288  1
  Se  Se258  1  0.74677347  0.91773361  0.69772131  1
