# generated using pymatgen
data_In86Cu29Se144
_symmetry_space_group_name_H-M   'P 1'
_cell_length_a   17.59017673
_cell_length_b   17.58759484
_cell_length_c   23.45186353
_cell_angle_alpha   90.00196633
_cell_angle_beta   89.98359776
_cell_angle_gamma   89.99748325
_symmetry_Int_Tables_number   1
_chemical_formula_structural   In86Cu29Se144
_chemical_formula_sum   'In86 Cu29 Se144'
_cell_volume   7255.27695051
_cell_formula_units_Z   1
loop_
 _symmetry_equiv_pos_site_id
 _symmetry_equiv_pos_as_xyz
  1  'x, y, z'
loop_
 _atom_site_type_symbol
 _atom_site_label
 _atom_site_symmetry_multiplicity
 _atom_site_fract_x
 _atom_site_fract_y
 _atom_site_fract_z
 _atom_site_occupancy
  In  In0  1  0.00141516  0.17018046  0.12572594  1
  In  In1  1  0.00615112  0.15943624  0.63173369  1
  In  In2  1  -0.00069654  0.50057225  0.13204056  1
  In  In3  1  0.00759577  0.48888273  0.62871867  1
  In  In4  1  -0.00615481  0.83260355  0.13261493  1
  In  In5  1  -0.00611717  0.83670792  0.63234891  1
  In  In6  1  0.33044975  0.16796668  0.12472104  1
  In  In7  1  0.31488761  0.16684107  0.62498905  1
  In  In8  1  0.32241075  0.47788294  0.12429918  1
  In  In9  1  0.33701557  0.50792842  0.62339229  1
  In  In10  1  0.33676356  0.85040146  0.12893684  1
  In  In11  1  0.34395446  0.82371831  0.62632620  1
  In  In12  1  0.66587941  0.16466162  0.10840620  1
  In  In13  1  0.67981155  0.15553699  0.64747054  1
  In  In14  1  0.67891062  0.51322327  0.10577868  1
  In  In15  1  0.67219308  0.49401132  0.63963949  1
  In  In16  1  0.66447702  0.82462393  0.12388950  1
  In  In17  1  0.65259151  0.84266149  0.63315033  1
  In  In18  1  0.16696862  0.00769243  0.36596173  1
  In  In19  1  0.16961833  0.00760274  0.87287686  1
  In  In20  1  0.16765127  0.33811957  0.37613019  1
  In  In21  1  0.14618955  0.32826169  0.87459547  1
  In  In22  1  0.15452617  0.66964659  0.37687519  1
  In  In23  1  0.16810081  0.66575925  0.86513600  1
  In  In24  1  0.49003002  0.00801994  0.38109068  1
  In  In25  1  0.50475946  0.00451118  0.86859585  1
  In  In26  1  0.49587543  0.34763807  0.37212879  1
  In  In27  1  0.51061907  0.32367500  0.88301944  1
  In  In28  1  0.51621789  0.66507521  0.37338919  1
  In  In29  1  0.49947430  0.66536357  0.87673924  1
  In  In30  1  0.84917569  -0.00541252  0.37608956  1
  In  In31  1  0.85022119  0.02390552  0.85430933  1
  In  In32  1  0.84272614  0.31759036  0.37791930  1
  In  In33  1  0.83771819  0.33071719  0.87830043  1
  In  In34  1  0.83002147  0.67747336  0.36213312  1
  In  In35  1  0.82596740  0.65180513  0.87367876  1
  In  In36  1  0.03600532  0.19749079  0.34076980  1
  In  In37  1  -0.00470198  0.16833714  0.87953647  1
  In  In38  1  0.01267948  0.51397920  0.36336541  1
  In  In39  1  -0.01058377  0.48680343  0.87090629  1
  In  In40  1  -0.00286497  0.84173661  0.35960439  1
  In  In41  1  0.00604648  0.83866990  0.86848063  1
  In  In42  1  0.31017272  0.15580463  0.35592520  1
  In  In43  1  0.33985101  0.15896315  0.88146621  1
  In  In44  1  0.32855529  0.48426632  0.36740151  1
  In  In45  1  0.33012998  0.51327662  0.87593883  1
  In  In46  1  0.33399875  0.85030360  0.37736092  1
  In  In47  1  0.33322876  0.83391020  0.86741931  1
  In  In48  1  0.65714479  0.16758401  0.37622439  1
  In  In49  1  0.66848850  0.16205285  0.87238994  1
  In  In50  1  0.65727541  0.50817384  0.37270838  1
  In  In51  1  0.67111906  0.50397066  0.88320546  1
  In  In52  1  0.67467113  0.82480893  0.38052106  1
  In  In53  1  0.66647895  0.82927808  0.86931594  1
  In  In54  1  0.14368243  0.03694194  0.15010182  1
  In  In55  1  0.15807637  0.00833836  0.62977182  1
  In  In56  1  0.17891062  0.31559942  0.14576040  1
  In  In57  1  0.15990621  0.32120438  0.61387527  1
  In  In58  1  0.14813423  0.65129838  0.12798176  1
  In  In59  1  0.17494903  0.66109913  0.62689575  1
  In  In60  1  0.49017550  0.00563217  0.12480712  1
  In  In61  1  0.50900741  -0.01714576  0.63025396  1
  In  In62  1  0.49485135  0.32810919  0.11420009  1
  In  In63  1  0.50565923  0.34171890  0.63195365  1
  In  In64  1  0.51240418  0.66725677  0.11892911  1
  In  In65  1  0.49506598  0.66939984  0.63072028  1
  In  In66  1  0.83692063  0.00992014  0.11554357  1
  In  In67  1  0.83458326  -0.00014176  0.63653958  1
  In  In68  1  0.83874547  0.33597093  0.11854269  1
  In  In69  1  0.84610093  0.31342438  0.65079388  1
  In  In70  1  0.84210697  0.65787104  0.12702963  1
  In  In71  1  0.83245402  0.66513523  0.63688108  1
  In  In72  1  0.15983436  0.49100787  0.00355051  1
  In  In73  1  0.16844985  0.83499736  0.50034728  1
  In  In74  1  0.49716792  0.16939273  0.50252799  1
  In  In75  1  0.33478952  0.33495784  0.74967608  1
  In  In76  1  0.83970650  0.15644541  0.51254852  1
  In  In77  1  0.67217899  -0.00366251  0.24767690  1
  In  In78  1  0.83351247  0.83431248  0.50027494  1
  In  In79  1  0.33375946  0.66987543  0.24829731  1
  In  In80  1  0.83239117  0.49651265  0.50364954  1
  In  In81  1  0.50487251  0.83819562  -0.00865170  1
  In  In82  1  0.67208955  0.34716954  0.24012801  1
  In  In83  1  0.16847380  0.84417879  -0.00119889  1
  In  In84  1  0.83464975  0.83575177  -0.00134037  1
  In  In85  1  0.49724337  0.50203136  0.50100811  1
  Cu  Cu86  1  0.49517735  0.82463411  0.75082686  1
  Cu  Cu87  1  0.83527234  0.16135878  0.24446574  1
  Cu  Cu88  1  0.16645446  0.83558755  0.74549127  1
  Cu  Cu89  1  0.49472974  0.17535278  0.24608772  1
  Cu  Cu90  1  0.49980419  0.50396291  0.24369799  1
  Cu  Cu91  1  0.00548611  0.01311327  0.49796644  1
  Cu  Cu92  1  0.32826129  0.01292252  0.00289894  1
  Cu  Cu93  1  0.83498082  0.50225445  0.75889906  1
  Cu  Cu94  1  0.00075727  0.66394270  0.49756616  1
  Cu  Cu95  1  0.32999627  0.33000426  0.00100414  1
  Cu  Cu96  1  0.33818740  0.66658436  0.00058254  1
  Cu  Cu97  1  0.66855028  0.00142286  -0.01094824  1
  Cu  Cu98  1  0.67178200  0.32955753  0.51312214  1
  Cu  Cu99  1  0.16199583  0.16762363  0.75158824  1
  Cu  Cu100  1  0.17084484  0.83355626  0.25185187  1
  Cu  Cu101  1  0.33647159  0.66236342  0.50382000  1
  Cu  Cu102  1  0.33166180  0.00406352  0.49808655  1
  Cu  Cu103  1  0.66655165  0.33376307  -0.00607114  1
  Cu  Cu104  1  0.49595039  0.15901232  0.75683770  1
  Cu  Cu105  1  0.00873383  0.33292618  0.49556785  1
  Cu  Cu106  1  0.66374153  0.67044623  0.50220870  1
  Cu  Cu107  1  0.50471295  0.83744609  0.24873643  1
  Cu  Cu108  1  0.32737535  0.32544956  0.49172910  1
  Cu  Cu109  1  -0.00308130  0.66188313  -0.00074901  1
  Cu  Cu110  1  0.50606108  0.50097119  0.75662538  1
  Cu  Cu111  1  -0.00263853  0.32542689  0.00260929  1
  Cu  Cu112  1  0.16673311  0.50220995  0.74740086  1
  Cu  Cu113  1  0.82893618  0.49910293  0.24563175  1
  Cu  Cu114  1  0.83489389  0.82709662  0.75527547  1
  Se  Se115  1  0.08928456  0.09053603  0.05799119  1
  Se  Se116  1  0.08842313  0.09167404  0.55393831  1
  Se  Se117  1  0.07834040  0.40026378  0.06706652  1
  Se  Se118  1  0.08701080  0.41960761  0.55053451  1
  Se  Se119  1  0.07899831  0.74472960  0.05531292  1
  Se  Se120  1  0.07509569  0.74796736  0.55972788  1
  Se  Se121  1  0.41951797  0.09143435  0.05309866  1
  Se  Se122  1  0.41025931  0.07877637  0.56423981  1
  Se  Se123  1  0.41232035  0.41858588  0.04942505  1
  Se  Se124  1  0.40808834  0.40192045  0.55573287  1
  Se  Se125  1  0.41113219  0.75526769  0.05820433  1
  Se  Se126  1  0.42264524  0.74568775  0.55228133  1
  Se  Se127  1  0.75300052  0.08324221  0.04339796  1
  Se  Se128  1  0.73914387  0.07060317  0.56383125  1
  Se  Se129  1  0.75328657  0.41232580  0.04817294  1
  Se  Se130  1  0.75606589  0.40431690  0.57147631  1
  Se  Se131  1  0.74898316  0.74027412  0.05650477  1
  Se  Se132  1  0.74692593  0.74504232  0.56345587  1
  Se  Se133  1  0.24530497  0.25363634  0.05829650  1
  Se  Se134  1  0.24575074  0.24158296  0.54535888  1
  Se  Se135  1  0.25213034  0.58882107  0.05869998  1
  Se  Se136  1  0.24962863  0.57975074  0.55187386  1
  Se  Se137  1  0.24960226  0.93376972  0.06378335  1
  Se  Se138  1  0.25527348  0.92383339  0.56258362  1
  Se  Se139  1  0.58069609  0.24977573  0.04544609  1
  Se  Se140  1  0.59122582  0.24757250  0.56962743  1
  Se  Se141  1  0.57497000  0.58004167  0.04589977  1
  Se  Se142  1  0.59336941  0.58179673  0.56307520  1
  Se  Se143  1  0.59191253  0.92746751  0.05773982  1
  Se  Se144  1  0.58179606  0.91063524  0.55207804  1
  Se  Se145  1  0.91110088  0.24134574  0.05318668  1
  Se  Se146  1  0.92612278  0.26082819  0.56124206  1
  Se  Se147  1  0.92121363  0.57575953  0.05521636  1
  Se  Se148  1  0.92136889  0.58966508  0.56143842  1
  Se  Se149  1  0.93164710  0.92226871  0.05448710  1
  Se  Se150  1  0.92540727  0.93028396  0.55687180  1
  Se  Se151  1  0.08455157  0.24430400  0.43967111  1
  Se  Se152  1  0.08469848  0.24443027  0.95168185  1
  Se  Se153  1  0.08467541  0.57957451  0.44757189  1
  Se  Se154  1  0.08079881  0.58545738  0.93824918  1
  Se  Se155  1  0.07580848  0.92057846  0.43940704  1
  Se  Se156  1  0.07329737  0.92989687  0.94233696  1
  Se  Se157  1  0.41317693  0.25150639  0.43261151  1
  Se  Se158  1  0.41581092  0.24912202  0.94779172  1
  Se  Se159  1  0.41078026  0.58687857  0.43408148  1
  Se  Se160  1  0.41847085  0.58207639  0.94791822  1
  Se  Se161  1  0.41883211  0.91813084  0.45207246  1
  Se  Se162  1  0.40393662  0.92734141  0.94183303  1
  Se  Se163  1  0.74463432  0.24872302  0.44920292  1
  Se  Se164  1  0.74789120  0.24720068  0.94208681  1
  Se  Se165  1  0.74572271  0.59156278  0.44207092  1
  Se  Se166  1  0.76065198  0.57722739  0.95330493  1
  Se  Se167  1  0.74577927  0.92956996  0.44369708  1
  Se  Se168  1  0.75076713  0.92186926  0.93217282  1
  Se  Se169  1  0.24846373  0.08199480  0.44057884  1
  Se  Se170  1  0.24207047  0.09055194  0.94779587  1
  Se  Se171  1  0.24951037  0.42100238  0.44715366  1
  Se  Se172  1  0.25160814  0.40830654  0.93693733  1
  Se  Se173  1  0.25981437  0.74394249  0.44051477  1
  Se  Se174  1  0.25501212  0.74375620  0.94173018  1
  Se  Se175  1  0.59280288  0.07579255  0.44920594  1
  Se  Se176  1  0.57813552  0.08482620  0.94314167  1
  Se  Se177  1  0.59593050  0.40792654  0.44779329  1
  Se  Se178  1  0.58012089  0.42086692  0.94791757  1
  Se  Se179  1  0.58129098  0.75197402  0.44834712  1
  Se  Se180  1  0.59749495  0.73981054  0.94592729  1
  Se  Se181  1  0.92797386  0.09194275  0.43649326  1
  Se  Se182  1  0.90727233  0.08407720  0.94368530  1
  Se  Se183  1  0.92356611  0.41319065  0.43995881  1
  Se  Se184  1  0.91853910  0.41507554  0.95087402  1
  Se  Se185  1  0.92440119  0.74639092  0.43790651  1
  Se  Se186  1  0.92464249  0.74546143  0.93710475  1
  Se  Se187  1  0.25885342  0.27091389  0.30327346  1
  Se  Se188  1  0.24600583  0.24637723  0.81131260  1
  Se  Se189  1  0.24442986  0.58350075  0.30983052  1
  Se  Se190  1  0.25376967  0.58424757  0.79775981  1
  Se  Se191  1  0.25298972  0.91942937  0.30252835  1
  Se  Se192  1  0.24562317  0.91692683  0.80450845  1
  Se  Se193  1  0.58069757  0.25442516  0.30322082  1
  Se  Se194  1  0.57969314  0.24568249  0.80532699  1
  Se  Se195  1  0.58551240  0.58521136  0.29565137  1
  Se  Se196  1  0.58754495  0.58421611  0.81085711  1
  Se  Se197  1  0.57937958  0.91733574  0.31390131  1
  Se  Se198  1  0.57748638  0.90916436  0.80411140  1
  Se  Se199  1  0.91234052  0.25292173  0.29498164  1
  Se  Se200  1  0.93508033  0.26689601  0.81015688  1
  Se  Se201  1  0.91004750  0.58282034  0.30237337  1
  Se  Se202  1  0.92449294  0.58762393  0.80532263  1
  Se  Se203  1  0.89657936  0.90659631  0.29741879  1
  Se  Se204  1  0.92077251  0.91686184  0.79877618  1
  Se  Se205  1  0.06323104  0.06387279  0.30131589  1
  Se  Se206  1  0.07934313  0.08635353  0.80726645  1
  Se  Se207  1  0.06065450  0.39546854  0.31135312  1
  Se  Se208  1  0.08444044  0.41901942  0.80114037  1
  Se  Se209  1  0.08451974  0.75067209  0.30194170  1
  Se  Se210  1  0.08497818  0.75153661  0.80070196  1
  Se  Se211  1  0.42208892  0.08748904  0.30376884  1
  Se  Se212  1  0.40665622  0.07691465  0.80396510  1
  Se  Se213  1  0.41797818  0.41747510  0.29459130  1
  Se  Se214  1  0.42190185  0.42065139  0.81473857  1
  Se  Se215  1  0.42373717  0.75825599  0.31103354  1
  Se  Se216  1  0.41337098  0.74175941  0.80563828  1
  Se  Se217  1  0.75504401  0.09193994  0.31102194  1
  Se  Se218  1  0.73047775  0.06692483  0.80110108  1
  Se  Se219  1  0.75820470  0.42143212  0.31611471  1
  Se  Se220  1  0.75264504  0.41973105  0.81351487  1
  Se  Se221  1  0.73738264  0.75225251  0.29909016  1
  Se  Se222  1  0.75078094  0.74267615  0.80532402  1
  Se  Se223  1  0.26789586  0.07667356  0.19846824  1
  Se  Se224  1  0.24708972  0.08356726  0.70026714  1
  Se  Se225  1  0.22158837  0.43947819  0.19669960  1
  Se  Se226  1  0.24421427  0.41890253  0.68575568  1
  Se  Se227  1  0.24241739  0.75477974  0.18454806  1
  Se  Se228  1  0.25105619  0.75081387  0.69366770  1
  Se  Se229  1  0.58233272  0.09460854  0.19093396  1
  Se  Se230  1  0.57731018  0.07618100  0.70029165  1
  Se  Se231  1  0.57827807  0.42737410  0.17882117  1
  Se  Se232  1  0.58662284  0.41211691  0.70668827  1
  Se  Se233  1  0.58103440  0.74951087  0.19579008  1
  Se  Se234  1  0.58436930  0.74426826  0.69883340  1
  Se  Se235  1  0.91761222  0.07892883  0.19171646  1
  Se  Se236  1  0.90209785  0.10198632  0.69587466  1
  Se  Se237  1  0.91127760  0.41308374  0.19525274  1
  Se  Se238  1  0.91828051  0.42184801  0.70171692  1
  Se  Se239  1  0.92296493  0.73854330  0.19617492  1
  Se  Se240  1  0.92103142  0.74669586  0.70052445  1
  Se  Se241  1  0.08356381  0.23731445  0.20491787  1
  Se  Se242  1  0.08558987  0.25391325  0.69491606  1
  Se  Se243  1  0.08174817  0.57565467  0.20552022  1
  Se  Se244  1  0.08328936  0.58457811  0.69272577  1
  Se  Se245  1  0.08803022  0.91251949  0.19413037  1
  Se  Se246  1  0.07973424  0.92062058  0.69679861  1
  Se  Se247  1  0.41453261  0.25782183  0.19097153  1
  Se  Se248  1  0.42208611  0.23931877  0.69030379  1
  Se  Se249  1  0.41621546  0.58008479  0.18253888  1
  Se  Se250  1  0.42089383  0.57652041  0.69783311  1
  Se  Se251  1  0.42073614  0.92413460  0.20127665  1
  Se  Se252  1  0.41422432  0.91255483  0.69789710  1
  Se  Se253  1  0.75015126  0.24043464  0.18676683  1
  Se  Se254  1  0.73629620  0.26081342  0.70975225  1
  Se  Se255  1  0.74571165  0.57986242  0.19106347  1
  Se  Se256  1  0.74919242  0.58391997  0.70488225  1
  Se  Se257  1  0.75862067  0.91136099  0.18287272  1
  Se  Se258  1  0.75286690  0.90867262  0.69817159  1
