# generated using pymatgen
data_In86Cu29Se144
_symmetry_space_group_name_H-M   'P 1'
_cell_length_a   17.58228619
_cell_length_b   17.57558218
_cell_length_c   23.43862391
_cell_angle_alpha   90.00794264
_cell_angle_beta   89.98948388
_cell_angle_gamma   90.01392811
_symmetry_Int_Tables_number   1
_chemical_formula_structural   In86Cu29Se144
_chemical_formula_sum   'In86 Cu29 Se144'
_cell_volume   7242.97774442
_cell_formula_units_Z   1
loop_
 _symmetry_equiv_pos_site_id
 _symmetry_equiv_pos_as_xyz
  1  'x, y, z'
loop_
 _atom_site_type_symbol
 _atom_site_label
 _atom_site_symmetry_multiplicity
 _atom_site_fract_x
 _atom_site_fract_y
 _atom_site_fract_z
 _atom_site_occupancy
  In  In0  1  0.02772747  0.14750111  0.14777832  1
  In  In1  1  0.00226514  0.16464368  0.62288174  1
  In  In2  1  0.00866533  0.48887382  0.12860046  1
  In  In3  1  0.00090017  0.49673110  0.62528877  1
  In  In4  1  0.00792153  0.84205140  0.11251796  1
  In  In5  1  0.00735125  0.84421568  0.63962911  1
  In  In6  1  0.29638655  0.19092203  0.15332797  1
  In  In7  1  0.33070357  0.18271393  0.62171673  1
  In  In8  1  0.32873091  0.49851799  0.11688428  1
  In  In9  1  0.33728179  0.51297524  0.62053381  1
  In  In10  1  0.33095000  0.84208793  0.12513248  1
  In  In11  1  0.32995757  0.81199175  0.63195554  1
  In  In12  1  0.66982189  0.16843859  0.12564736  1
  In  In13  1  0.67727833  0.15000228  0.62677034  1
  In  In14  1  0.67140327  0.51641293  0.12708373  1
  In  In15  1  0.66715648  0.50633282  0.62403083  1
  In  In16  1  0.65573085  0.82244118  0.11968439  1
  In  In17  1  0.65335917  0.83085065  0.63771613  1
  In  In18  1  0.17180558  0.01337136  0.36341427  1
  In  In19  1  0.15625040  0.00900638  0.88523013  1
  In  In20  1  0.17052263  0.33413181  0.36887917  1
  In  In21  1  0.16068587  0.34201405  0.88038863  1
  In  In22  1  0.15619582  0.65804839  0.37828288  1
  In  In23  1  0.16120522  0.66356939  0.87840327  1
  In  In24  1  0.48585152  0.00255847  0.38164212  1
  In  In25  1  0.49975849  -0.03172637  0.86602795  1
  In  In26  1  0.49448633  0.35195785  0.37296384  1
  In  In27  1  0.49870211  0.35126664  0.87829696  1
  In  In28  1  0.51220491  0.65038036  0.38156328  1
  In  In29  1  0.47745516  0.65856223  0.84181559  1
  In  In30  1  0.85049418  0.00568195  0.37421194  1
  In  In31  1  0.82445058  -0.00792396  0.86314695  1
  In  In32  1  0.84322482  0.32336248  0.38731483  1
  In  In33  1  0.84533432  0.32521334  0.86807526  1
  In  In34  1  0.81662546  0.66685451  0.37833098  1
  In  In35  1  0.85021012  0.67767825  0.86440961  1
  In  In36  1  0.00678677  0.16933989  0.37325508  1
  In  In37  1  0.00293727  0.17370200  0.86396656  1
  In  In38  1  0.01377920  0.48756719  0.38822192  1
  In  In39  1  0.01104464  0.50654570  0.86483963  1
  In  In40  1  -0.01158320  0.84496886  0.37459867  1
  In  In41  1  0.00213921  0.83075392  0.87778368  1
  In  In42  1  0.31703894  0.16167396  0.36447534  1
  In  In43  1  0.32412930  0.15463774  0.87740239  1
  In  In44  1  0.34553762  0.48985803  0.37649277  1
  In  In45  1  0.32700528  0.51550494  0.88561548  1
  In  In46  1  0.33387905  0.84509090  0.37779282  1
  In  In47  1  0.32275663  0.80271532  0.87076098  1
  In  In48  1  0.67035447  0.17629627  0.38290894  1
  In  In49  1  0.67913956  0.15662455  0.86777563  1
  In  In50  1  0.65460352  0.50865430  0.38532257  1
  In  In51  1  0.64891233  0.51580158  0.86991845  1
  In  In52  1  0.66599542  0.81438347  0.37734743  1
  In  In53  1  0.66876506  0.83357883  0.86319173  1
  In  In54  1  0.16570909  0.00107435  0.12281922  1
  In  In55  1  0.14819944  0.00010487  0.62877019  1
  In  In56  1  0.16284291  0.33725553  0.12270155  1
  In  In57  1  0.16041774  0.32236773  0.61594374  1
  In  In58  1  0.17386287  0.66543902  0.10599300  1
  In  In59  1  0.17500595  0.66375319  0.63872074  1
  In  In60  1  0.48627324  -0.01541589  0.12370686  1
  In  In61  1  0.51509309  -0.00108927  0.62502344  1
  In  In62  1  0.48488017  0.33297692  0.12773116  1
  In  In63  1  0.49364061  0.34633221  0.62303880  1
  In  In64  1  0.51048993  0.67080697  0.12433892  1
  In  In65  1  0.49353567  0.66112453  0.62848204  1
  In  In66  1  0.84477621  0.00791205  0.11989529  1
  In  In67  1  0.83798885  0.00161072  0.62855383  1
  In  In68  1  0.85310191  0.34045229  0.12808700  1
  In  In69  1  0.84262805  0.34187191  0.61776846  1
  In  In70  1  0.81947668  0.67011472  0.12311001  1
  In  In71  1  0.84377895  0.66115805  0.63246233  1
  In  In72  1  0.67108080  0.33774216  0.74117926  1
  In  In73  1  0.83566801  0.50353889  0.00027238  1
  In  In74  1  -0.00545384  0.66455591  0.25127626  1
  In  In75  1  0.66367287  0.34016631  0.25820977  1
  In  In76  1  0.33761976  0.66804815  0.24339346  1
  In  In77  1  0.66351949  -0.00377990  0.24754276  1
  In  In78  1  0.33205005  0.34325982  0.75294831  1
  In  In79  1  0.83871217  0.16948364  -0.00472931  1
  In  In80  1  0.50015774  0.17260526  0.49934871  1
  In  In81  1  0.83149998  0.83052165  0.50639756  1
  In  In82  1  0.49233698  0.15999010  0.00226966  1
  In  In83  1  0.33263983  -0.00753607  0.75171290  1
  In  In84  1  0.49204298  0.82309431  -0.00966339  1
  In  In85  1  0.16896519  0.83320646  0.50805952  1
  Cu  Cu86  1  0.00312868  0.33228161  0.50022022  1
  Cu  Cu87  1  -0.00099363  0.66253148  -0.00723308  1
  Cu  Cu88  1  0.67412170  -0.01132544  0.50689858  1
  Cu  Cu89  1  0.83284683  0.49954881  0.25557346  1
  Cu  Cu90  1  0.32595019  0.33697604  0.49539480  1
  Cu  Cu91  1  0.17200101  0.49816873  0.24848418  1
  Cu  Cu92  1  0.48942594  0.16067942  0.25205333  1
  Cu  Cu93  1  0.66615569  -0.00408411  -0.01456827  1
  Cu  Cu94  1  0.66176875  0.34377527  -0.00281633  1
  Cu  Cu95  1  0.50876275  0.16786696  0.75450611  1
  Cu  Cu96  1  0.83103377  0.83515468  0.24903040  1
  Cu  Cu97  1  0.00642734  0.33075822  -0.00084827  1
  Cu  Cu98  1  0.16265595  0.49522969  0.75110859  1
  Cu  Cu99  1  -0.00194923  -0.00172132  -0.00001696  1
  Cu  Cu100  1  0.50035937  0.82726165  0.25084933  1
  Cu  Cu101  1  0.66840122  0.67112302  -0.00405127  1
  Cu  Cu102  1  0.83579016  0.49189117  0.74706526  1
  Cu  Cu103  1  0.83755520  0.83468659  0.74888971  1
  Cu  Cu104  1  0.33137419  -0.00118672  0.49901815  1
  Cu  Cu105  1  0.15872217  0.84171792  0.24613349  1
  Cu  Cu106  1  0.83800821  0.17332955  0.25493680  1
  Cu  Cu107  1  0.32116969  0.00298596  0.00499273  1
  Cu  Cu108  1  0.00741053  0.01094223  0.49732540  1
  Cu  Cu109  1  0.16207233  0.16632752  0.74748949  1
  Cu  Cu110  1  0.33066210  0.33169508  0.00667406  1
  Cu  Cu111  1  -0.00088730  0.66080372  0.50735406  1
  Cu  Cu112  1  0.33399959  0.66358436  0.50367362  1
  Cu  Cu113  1  0.65849235  0.66251437  0.50550224  1
  Cu  Cu114  1  0.66948239  0.33599343  0.50252843  1
  Se  Se115  1  0.07836546  0.08460141  0.05550677  1
  Se  Se116  1  0.09374003  0.08923963  0.55150757  1
  Se  Se117  1  0.08570742  0.42152106  0.04940655  1
  Se  Se118  1  0.08482905  0.41814372  0.55319708  1
  Se  Se119  1  0.08076992  0.74821343  0.04682364  1
  Se  Se120  1  0.07567129  0.74547048  0.56573219  1
  Se  Se121  1  0.40104555  0.08099525  0.06703281  1
  Se  Se122  1  0.41241046  0.07984032  0.56096488  1
  Se  Se123  1  0.42041514  0.41604425  0.05113110  1
  Se  Se124  1  0.40891961  0.41820213  0.55164053  1
  Se  Se125  1  0.40751327  0.74224507  0.06092074  1
  Se  Se126  1  0.41591905  0.74808845  0.55622553  1
  Se  Se127  1  0.73874991  0.07735265  0.05102216  1
  Se  Se128  1  0.75883974  0.07665305  0.55230298  1
  Se  Se129  1  0.74781346  0.41044005  0.06237606  1
  Se  Se130  1  0.74942805  0.42191902  0.55564254  1
  Se  Se131  1  0.74923214  0.75595423  0.04938330  1
  Se  Se132  1  0.74218259  0.74123700  0.56548782  1
  Se  Se133  1  0.24734318  0.24706194  0.05819637  1
  Se  Se134  1  0.24782344  0.24618404  0.54497359  1
  Se  Se135  1  0.25597903  0.58051972  0.04289522  1
  Se  Se136  1  0.24208718  0.58899258  0.55654779  1
  Se  Se137  1  0.24235486  0.91052757  0.05347870  1
  Se  Se138  1  0.25844370  0.92347682  0.56793713  1
  Se  Se139  1  0.58841091  0.25606799  0.05696104  1
  Se  Se140  1  0.59083628  0.25533487  0.56549562  1
  Se  Se141  1  0.58880445  0.58773846  0.05245414  1
  Se  Se142  1  0.57335000  0.57745392  0.55616428  1
  Se  Se143  1  0.58360884  0.92175165  0.04969015  1
  Se  Se144  1  0.58622390  0.90783950  0.55571716  1
  Se  Se145  1  0.92982992  0.24946220  0.06063983  1
  Se  Se146  1  0.92007244  0.24825389  0.55353616  1
  Se  Se147  1  0.92527671  0.58988830  0.06459272  1
  Se  Se148  1  0.91251427  0.57783007  0.55651525  1
  Se  Se149  1  0.90927257  0.91602941  0.04906744  1
  Se  Se150  1  0.93343312  0.91897017  0.55495886  1
  Se  Se151  1  0.08705627  0.25482873  0.44152148  1
  Se  Se152  1  0.08229462  0.24498898  0.94141082  1
  Se  Se153  1  0.08723144  0.58084813  0.45577925  1
  Se  Se154  1  0.08204971  0.57229518  0.94758041  1
  Se  Se155  1  0.08373842  0.92149204  0.44070893  1
  Se  Se156  1  0.08310912  0.91313087  0.94966999  1
  Se  Se157  1  0.40885783  0.25461907  0.43550386  1
  Se  Se158  1  0.40855345  0.25615258  0.93917187  1
  Se  Se159  1  0.41543791  0.58068080  0.44749779  1
  Se  Se160  1  0.43178285  0.59593068  0.93423548  1
  Se  Se161  1  0.41884207  0.91248848  0.45404289  1
  Se  Se162  1  0.39958091  0.92344372  0.94206891  1
  Se  Se163  1  0.75303252  0.24689333  0.45605237  1
  Se  Se164  1  0.74127606  0.26075115  0.93974308  1
  Se  Se165  1  0.74744288  0.58323026  0.45300574  1
  Se  Se166  1  0.75084736  0.59123212  0.93573204  1
  Se  Se167  1  0.74990279  0.91892664  0.43598762  1
  Se  Se168  1  0.75062208  0.91090502  0.93795575  1
  Se  Se169  1  0.25023619  0.08058662  0.44338098  1
  Se  Se170  1  0.24095786  0.09195501  0.95426909  1
  Se  Se171  1  0.24608684  0.42184780  0.44072715  1
  Se  Se172  1  0.25390666  0.41446565  0.94610747  1
  Se  Se173  1  0.25412432  0.74272534  0.44117355  1
  Se  Se174  1  0.24935256  0.73734985  0.94994462  1
  Se  Se175  1  0.59354168  0.07270373  0.44602835  1
  Se  Se176  1  0.57996769  0.07748829  0.93287623  1
  Se  Se177  1  0.57984414  0.41364986  0.45060986  1
  Se  Se178  1  0.58230097  0.43104074  0.94725455  1
  Se  Se179  1  0.57884738  0.74797578  0.45066743  1
  Se  Se180  1  0.58693664  0.74115163  0.93080506  1
  Se  Se181  1  0.91955424  0.09142317  0.44628166  1
  Se  Se182  1  0.92079191  0.07559212  0.93476198  1
  Se  Se183  1  0.91485424  0.41915603  0.45296651  1
  Se  Se184  1  0.92366796  0.41121572  0.94043587  1
  Se  Se185  1  0.92370123  0.74160270  0.44354431  1
  Se  Se186  1  0.91348014  0.75014893  0.94788731  1
  Se  Se187  1  0.24428034  0.24942182  0.29615853  1
  Se  Se188  1  0.24472105  0.24424558  0.80759897  1
  Se  Se189  1  0.24711393  0.58267692  0.30831806  1
  Se  Se190  1  0.24316604  0.57826952  0.80719532  1
  Se  Se191  1  0.24794378  0.91293657  0.30420820  1
  Se  Se192  1  0.24598558  0.91562524  0.82157326  1
  Se  Se193  1  0.57264273  0.23973294  0.31126643  1
  Se  Se194  1  0.58208635  0.25454588  0.81326544  1
  Se  Se195  1  0.58872942  0.58107919  0.30400379  1
  Se  Se196  1  0.59511934  0.60261753  0.79002549  1
  Se  Se197  1  0.57681665  0.91094063  0.31338768  1
  Se  Se198  1  0.60317195  0.93156125  0.79523074  1
  Se  Se199  1  0.91977013  0.25673666  0.30757151  1
  Se  Se200  1  0.90540070  0.23618628  0.79547106  1
  Se  Se201  1  0.91374141  0.57748079  0.31920234  1
  Se  Se202  1  0.91797721  0.57867659  0.79910781  1
  Se  Se203  1  0.91544626  0.92081386  0.29746906  1
  Se  Se204  1  0.92269056  0.91378167  0.80469184  1
  Se  Se205  1  0.07033295  0.07677043  0.30096111  1
  Se  Se206  1  0.08574985  0.07980219  0.80317624  1
  Se  Se207  1  0.08374171  0.42280764  0.30417355  1
  Se  Se208  1  0.08052921  0.40613599  0.80045867  1
  Se  Se209  1  0.08568393  0.75984015  0.31034296  1
  Se  Se210  1  0.06332281  0.72876111  0.81200594  1
  Se  Se211  1  0.41041895  0.07506081  0.30530717  1
  Se  Se212  1  0.42618209  0.08633862  0.81102763  1
  Se  Se213  1  0.41795794  0.42126180  0.29622247  1
  Se  Se214  1  0.42113047  0.43625668  0.80752755  1
  Se  Se215  1  0.42080804  0.75052900  0.31469487  1
  Se  Se216  1  0.44629077  0.79662674  0.81229624  1
  Se  Se217  1  0.75078616  0.09148059  0.30833553  1
  Se  Se218  1  0.76350691  0.09142404  0.79479249  1
  Se  Se219  1  0.75678296  0.42156939  0.32056983  1
  Se  Se220  1  0.75260508  0.42376785  0.81369570  1
  Se  Se221  1  0.75016757  0.74912888  0.30054716  1
  Se  Se222  1  0.75448511  0.74730379  0.79835423  1
  Se  Se223  1  0.25603820  0.06478775  0.19696690  1
  Se  Se224  1  0.25039405  0.09159970  0.68985966  1
  Se  Se225  1  0.25219222  0.41851179  0.19029808  1
  Se  Se226  1  0.24186420  0.42015588  0.68517382  1
  Se  Se227  1  0.23572211  0.75447360  0.18945410  1
  Se  Se228  1  0.23298944  0.76619473  0.70599722  1
  Se  Se229  1  0.57114288  0.08798703  0.18801712  1
  Se  Se230  1  0.58642538  0.08391450  0.69843554  1
  Se  Se231  1  0.58262934  0.42100178  0.18722621  1
  Se  Se232  1  0.57043253  0.43017717  0.69591999  1
  Se  Se233  1  0.58814983  0.74768303  0.20001688  1
  Se  Se234  1  0.59128607  0.72532218  0.69901135  1
  Se  Se235  1  0.91170722  0.08449959  0.19875478  1
  Se  Se236  1  0.94759622  0.05699122  0.68748854  1
  Se  Se237  1  0.92158556  0.42216396  0.20377836  1
  Se  Se238  1  0.92173981  0.41020192  0.69606527  1
  Se  Se239  1  0.91278148  0.75724817  0.18715975  1
  Se  Se240  1  0.92279232  0.75098492  0.69770769  1
  Se  Se241  1  0.07045860  0.27100069  0.19414274  1
  Se  Se242  1  0.08241517  0.25148762  0.69313475  1
  Se  Se243  1  0.09545741  0.58639693  0.19015431  1
  Se  Se244  1  0.08049074  0.57994688  0.69697037  1
  Se  Se245  1  0.07502004  0.92070544  0.19118957  1
  Se  Se246  1  0.11097637  0.90245970  0.70481744  1
  Se  Se247  1  0.41315731  0.25337648  0.20291612  1
  Se  Se248  1  0.42673013  0.24700760  0.69618296  1
  Se  Se249  1  0.42549148  0.57586834  0.18635887  1
  Se  Se250  1  0.39626756  0.59758788  0.69853384  1
  Se  Se251  1  0.41374347  0.91087929  0.20197677  1
  Se  Se252  1  0.42312146  0.91080310  0.68712949  1
  Se  Se253  1  0.75750640  0.25167219  0.19356741  1
  Se  Se254  1  0.76131797  0.24547273  0.68648854  1
  Se  Se255  1  0.75545180  0.58626953  0.20142077  1
  Se  Se256  1  0.75403509  0.57805038  0.69598196  1
  Se  Se257  1  0.75317812  0.91217206  0.18338454  1
  Se  Se258  1  0.75362775  0.91329010  0.69178712  1
