# generated using pymatgen
data_In86Cu29Se144
_symmetry_space_group_name_H-M   'P 1'
_cell_length_a   17.57622593
_cell_length_b   17.57995355
_cell_length_c   23.42766989
_cell_angle_alpha   89.99182272
_cell_angle_beta   90.03513314
_cell_angle_gamma   90.00682271
_symmetry_Int_Tables_number   1
_chemical_formula_structural   In86Cu29Se144
_chemical_formula_sum   'In86 Cu29 Se144'
_cell_volume   7238.89631952
_cell_formula_units_Z   1
loop_
 _symmetry_equiv_pos_site_id
 _symmetry_equiv_pos_as_xyz
  1  'x, y, z'
loop_
 _atom_site_type_symbol
 _atom_site_label
 _atom_site_symmetry_multiplicity
 _atom_site_fract_x
 _atom_site_fract_y
 _atom_site_fract_z
 _atom_site_occupancy
  In  In0  1  -0.00943000  0.17319075  0.13187656  1
  In  In1  1  0.00987468  0.16352367  0.62371257  1
  In  In2  1  -0.01296294  0.50095500  0.12682942  1
  In  In3  1  -0.01921409  0.50403410  0.62627946  1
  In  In4  1  0.00653555  0.83272636  0.11926347  1
  In  In5  1  -0.00148942  0.83682643  0.62003625  1
  In  In6  1  0.33709527  0.16471096  0.12126606  1
  In  In7  1  0.33394239  0.17545876  0.62452690  1
  In  In8  1  0.34319412  0.49496604  0.12269488  1
  In  In9  1  0.34435550  0.49509026  0.63099485  1
  In  In10  1  0.33465335  0.83369223  0.11349891  1
  In  In11  1  0.33117963  0.82708833  0.63089133  1
  In  In12  1  0.66732314  0.16112124  0.10779984  1
  In  In13  1  0.66552284  0.16988061  0.63740750  1
  In  In14  1  0.67347630  0.51002402  0.11127558  1
  In  In15  1  0.66381962  0.50751061  0.63072402  1
  In  In16  1  0.66083890  0.82612927  0.10746373  1
  In  In17  1  0.66516623  0.82745065  0.63153922  1
  In  In18  1  0.16166401  0.00664555  0.38255195  1
  In  In19  1  0.15934629  -0.00568224  0.87461476  1
  In  In20  1  0.14497480  0.33434944  0.37668783  1
  In  In21  1  0.16736203  0.33833500  0.86259195  1
  In  In22  1  0.17936515  0.66841336  0.37927050  1
  In  In23  1  0.17794162  0.67312233  0.86768923  1
  In  In24  1  0.48953290  -0.00562725  0.37310223  1
  In  In25  1  0.53510397  -0.02670543  0.89717633  1
  In  In26  1  0.51339914  0.34055736  0.37666215  1
  In  In27  1  0.50419156  0.33662121  0.87259775  1
  In  In28  1  0.50550042  0.66290780  0.38115132  1
  In  In29  1  0.50153529  0.67212567  0.87273960  1
  In  In30  1  0.82855823  -0.01954448  0.37097815  1
  In  In31  1  0.80821978  0.00887565  0.89755398  1
  In  In32  1  0.84162294  0.33365934  0.37590745  1
  In  In33  1  0.83155311  0.33714635  0.87549864  1
  In  In34  1  0.82282321  0.67682417  0.38123899  1
  In  In35  1  0.80577285  0.69349097  0.91069889  1
  In  In36  1  0.00338725  0.17386840  0.36878799  1
  In  In37  1  -0.01769762  0.16283484  0.87476602  1
  In  In38  1  -0.00463183  0.48452695  0.37224015  1
  In  In39  1  -0.00396020  0.49399325  0.87528644  1
  In  In40  1  -0.00754317  0.84131846  0.37693912  1
  In  In41  1  -0.01082465  0.82966073  0.88645192  1
  In  In42  1  0.33166810  0.15041571  0.37654223  1
  In  In43  1  0.34205662  0.18305871  0.86728698  1
  In  In44  1  0.33712788  0.51076240  0.37843553  1
  In  In45  1  0.34579496  0.51465347  0.85976529  1
  In  In46  1  0.33785133  0.82753637  0.38594932  1
  In  In47  1  0.34294037  0.82738135  0.87288384  1
  In  In48  1  0.67032013  0.17664499  0.37397134  1
  In  In49  1  0.66449361  0.16681506  0.87695237  1
  In  In50  1  0.65476707  0.51253213  0.38544841  1
  In  In51  1  0.67145881  0.50682482  0.87778248  1
  In  In52  1  0.67308077  0.82338543  0.38073979  1
  In  In53  1  0.66313716  0.82421048  0.87214653  1
  In  In54  1  0.16463357  -0.01527714  0.12712814  1
  In  In55  1  0.16137818  -0.00390022  0.61821205  1
  In  In56  1  0.16482029  0.32430784  0.13016706  1
  In  In57  1  0.17316416  0.32722568  0.62770853  1
  In  In58  1  0.15403380  0.67493791  0.12103994  1
  In  In59  1  0.17144449  0.68569689  0.62932084  1
  In  In60  1  0.50955927  0.00369115  0.10675423  1
  In  In61  1  0.51679712  -0.00743616  0.63360388  1
  In  In62  1  0.50090627  0.33955318  0.11357174  1
  In  In63  1  0.49078506  0.34215481  0.63570573  1
  In  In64  1  0.51826470  0.67991004  0.10542935  1
  In  In65  1  0.50450119  0.67058334  0.63211214  1
  In  In66  1  0.83645335  0.00598467  0.11550635  1
  In  In67  1  0.82778080  -0.01338159  0.62745239  1
  In  In68  1  0.83798839  0.33640326  0.11869880  1
  In  In69  1  0.81952651  0.34638753  0.63863219  1
  In  In70  1  0.82255751  0.65196207  0.10364829  1
  In  In71  1  0.82685775  0.66221096  0.62361809  1
  In  In72  1  -0.00414847  0.66382236  0.24596453  1
  In  In73  1  0.16785973  0.50452044  0.00191673  1
  In  In74  1  0.66656046  -0.00277666  0.23412462  1
  In  In75  1  0.16813761  0.16614213  0.00190536  1
  In  In76  1  0.34288309  -0.00113972  0.75483166  1
  In  In77  1  -0.00859831  -0.00308530  0.74845462  1
  In  In78  1  0.16367985  0.50141396  0.49718569  1
  In  In79  1  0.33270516  -0.00338712  0.24787843  1
  In  In80  1  0.49940083  0.16453310  0.49945207  1
  In  In81  1  0.32959460  0.33424023  0.24749963  1
  In  In82  1  0.83721739  0.16617149  0.50054666  1
  In  In83  1  0.33442066  0.66413229  0.25524697  1
  In  In84  1  0.67014264  0.33405540  0.24801026  1
  In  In85  1  -0.00505484  0.66328199  0.75531795  1
  Cu  Cu86  1  0.83547171  0.16182216  0.24708204  1
  Cu  Cu87  1  0.16661716  0.17061906  0.74504953  1
  Cu  Cu88  1  0.33637540  0.66939735  -0.00986869  1
  Cu  Cu89  1  -0.00313586  0.67189170  0.50280450  1
  Cu  Cu90  1  0.66433359  0.67054448  0.50765314  1
  Cu  Cu91  1  0.00012094  -0.00286120  0.49821909  1
  Cu  Cu92  1  0.33543578  -0.00943839  0.50401488  1
  Cu  Cu93  1  0.33662795  0.66785428  0.50672009  1
  Cu  Cu94  1  0.15600088  0.16570494  0.25434001  1
  Cu  Cu95  1  0.51001243  0.83197648  0.24067226  1
  Cu  Cu96  1  0.66345294  0.34823657  0.51090184  1
  Cu  Cu97  1  0.33415239  0.00424098  -0.00348453  1
  Cu  Cu98  1  0.82793105  0.50337813  0.75523797  1
  Cu  Cu99  1  0.82600376  0.50194980  0.24443878  1
  Cu  Cu100  1  0.50861075  0.50991001  0.24984054  1
  Cu  Cu101  1  0.16476569  0.49586349  0.74527648  1
  Cu  Cu102  1  0.83034256  0.16995436  0.75986167  1
  Cu  Cu103  1  0.50576706  0.50040456  0.75323077  1
  Cu  Cu104  1  0.66819400  0.33477356  -0.00712792  1
  Cu  Cu105  1  0.16362395  0.83365972  0.25041601  1
  Cu  Cu106  1  0.66516386  -0.00802340  0.50232720  1
  Cu  Cu107  1  0.50500800  0.16313297  0.75527567  1
  Cu  Cu108  1  0.33201166  0.33135689  0.50612523  1
  Cu  Cu109  1  -0.00407475  0.33308527  0.50055586  1
  Cu  Cu110  1  0.34049681  0.34473984  -0.01057446  1
  Cu  Cu111  1  0.83394036  0.82411315  0.24801421  1
  Cu  Cu112  1  0.82764985  0.83340848  0.75859994  1
  Cu  Cu113  1  -0.00194842  -0.00214428  -0.00093581  1
  Cu  Cu114  1  -0.00238416  0.32616067  -0.00156004  1
  Se  Se115  1  0.07769495  0.07793556  0.06199108  1
  Se  Se116  1  0.08302262  0.08306815  0.54940644  1
  Se  Se117  1  0.07951394  0.40582627  0.05857453  1
  Se  Se118  1  0.07594833  0.41457206  0.56154355  1
  Se  Se119  1  0.09322542  0.76035667  0.04692039  1
  Se  Se120  1  0.08348319  0.75179080  0.55479622  1
  Se  Se121  1  0.41604538  0.08971107  0.04829276  1
  Se  Se122  1  0.41570783  0.07303439  0.56411432  1
  Se  Se123  1  0.42182944  0.42650696  0.04539082  1
  Se  Se124  1  0.41795266  0.41444565  0.55511036  1
  Se  Se125  1  0.41844714  0.75441991  0.04542191  1
  Se  Se126  1  0.41868486  0.75045861  0.56143251  1
  Se  Se127  1  0.74140373  0.06792283  0.04497221  1
  Se  Se128  1  0.74039837  0.08125848  0.55948807  1
  Se  Se129  1  0.75229154  0.41427059  0.05066198  1
  Se  Se130  1  0.75254796  0.42715011  0.56085127  1
  Se  Se131  1  0.75202855  0.74991611  0.04092378  1
  Se  Se132  1  0.75143229  0.75464326  0.55748569  1
  Se  Se133  1  0.26171441  0.26581827  0.05329691  1
  Se  Se134  1  0.24613595  0.24545075  0.55193329  1
  Se  Se135  1  0.26141709  0.59597750  0.06042255  1
  Se  Se136  1  0.25227040  0.58528241  0.56275797  1
  Se  Se137  1  0.25023981  0.92238689  0.05067858  1
  Se  Se138  1  0.25113985  0.91006852  0.55875814  1
  Se  Se139  1  0.58366888  0.25376223  0.04837523  1
  Se  Se140  1  0.58558745  0.25492446  0.56256301  1
  Se  Se141  1  0.56870563  0.56718241  0.04748186  1
  Se  Se142  1  0.58037278  0.58499347  0.55861379  1
  Se  Se143  1  0.58125098  0.91302938  0.04132777  1
  Se  Se144  1  0.58428796  0.91018357  0.55770701  1
  Se  Se145  1  0.91468756  0.24326870  0.05280529  1
  Se  Se146  1  0.91587795  0.25880376  0.56596660  1
  Se  Se147  1  0.93678199  0.59080708  0.05015883  1
  Se  Se148  1  0.91213550  0.58599657  0.55095771  1
  Se  Se149  1  0.91749745  0.91337517  0.05338818  1
  Se  Se150  1  0.91364208  0.91932150  0.55291365  1
  Se  Se151  1  0.07745857  0.24608208  0.44923594  1
  Se  Se152  1  0.08228197  0.25404246  0.93690170  1
  Se  Se153  1  0.07155319  0.59139345  0.43720894  1
  Se  Se154  1  0.08588279  0.58905601  0.93441895  1
  Se  Se155  1  0.08495072  0.91231941  0.44617362  1
  Se  Se156  1  0.08219349  0.91608443  0.94678181  1
  Se  Se157  1  0.41020871  0.25654591  0.43772679  1
  Se  Se158  1  0.42149856  0.25277246  0.94397977  1
  Se  Se159  1  0.41818617  0.58447381  0.45083539  1
  Se  Se160  1  0.41788599  0.58203982  0.94095086  1
  Se  Se161  1  0.42362864  0.91335498  0.45031975  1
  Se  Se162  1  0.41386717  0.91683267  0.94451753  1
  Se  Se163  1  0.74053365  0.26518158  0.44928730  1
  Se  Se164  1  0.75360796  0.24894618  0.94399261  1
  Se  Se165  1  0.74726948  0.58832719  0.45054787  1
  Se  Se166  1  0.76273848  0.56611320  0.95325306  1
  Se  Se167  1  0.75167768  0.91175828  0.44920574  1
  Se  Se168  1  0.76615808  0.88431050  0.94335553  1
  Se  Se169  1  0.25380051  0.07853204  0.45215746  1
  Se  Se170  1  0.25557895  0.08394177  0.93433174  1
  Se  Se171  1  0.25492348  0.40774975  0.43867745  1
  Se  Se172  1  0.25396354  0.42078885  0.93323802  1
  Se  Se173  1  0.25018940  0.74975254  0.45415366  1
  Se  Se174  1  0.25018726  0.75450882  0.94297959  1
  Se  Se175  1  0.59293408  0.07528425  0.43805152  1
  Se  Se176  1  0.58415848  0.09019339  0.95102176  1
  Se  Se177  1  0.57687158  0.42330650  0.45356417  1
  Se  Se178  1  0.58395100  0.41987865  0.94261910  1
  Se  Se179  1  0.58135099  0.75188260  0.44962064  1
  Se  Se180  1  0.58225753  0.74762571  0.94597198  1
  Se  Se181  1  0.91835041  0.07484927  0.43552851  1
  Se  Se182  1  0.91336599  0.08570473  0.95205073  1
  Se  Se183  1  0.91248803  0.41841737  0.44980281  1
  Se  Se184  1  0.91733392  0.41440864  0.94800722  1
  Se  Se185  1  0.91484683  0.75466939  0.44577596  1
  Se  Se186  1  0.93498385  0.73011284  0.95573036  1
  Se  Se187  1  0.24370230  0.24192823  0.31228407  1
  Se  Se188  1  0.25192463  0.25299742  0.79727711  1
  Se  Se189  1  0.23764955  0.56943480  0.30580166  1
  Se  Se190  1  0.24592891  0.58345165  0.79602202  1
  Se  Se191  1  0.24800977  0.90762165  0.31278807  1
  Se  Se192  1  0.24356448  0.91101222  0.80701476  1
  Se  Se193  1  0.57332010  0.24234750  0.30339035  1
  Se  Se194  1  0.58727432  0.25145095  0.80497318  1
  Se  Se195  1  0.58881058  0.59201853  0.30553381  1
  Se  Se196  1  0.58700442  0.58505378  0.80644753  1
  Se  Se197  1  0.58295238  0.91311258  0.30611589  1
  Se  Se198  1  0.59011689  0.91817789  0.80545339  1
  Se  Se199  1  0.91199482  0.25037060  0.30202258  1
  Se  Se200  1  0.91831161  0.25582270  0.80453871  1
  Se  Se201  1  0.90522145  0.57904297  0.31019041  1
  Se  Se202  1  0.90278332  0.58442868  0.81803343  1
  Se  Se203  1  0.91535335  0.91218319  0.29775241  1
  Se  Se204  1  0.90511201  0.91776840  0.81749517  1
  Se  Se205  1  0.07906366  0.07587988  0.30659690  1
  Se  Se206  1  0.08596845  0.09199547  0.80551810  1
  Se  Se207  1  0.08244149  0.41722264  0.30058517  1
  Se  Se208  1  0.07717605  0.41974746  0.79951781  1
  Se  Se209  1  0.08799953  0.75009589  0.31074844  1
  Se  Se210  1  0.08087983  0.76230949  0.80927247  1
  Se  Se211  1  0.42720336  0.09251246  0.30058552  1
  Se  Se212  1  0.43142743  0.08210792  0.81874134  1
  Se  Se213  1  0.42591701  0.42714817  0.30647074  1
  Se  Se214  1  0.41772263  0.41277668  0.79989739  1
  Se  Se215  1  0.42742829  0.76085699  0.30692616  1
  Se  Se216  1  0.40652867  0.73639610  0.80135745  1
  Se  Se217  1  0.75157413  0.08559152  0.30656212  1
  Se  Se218  1  0.75107620  0.08051535  0.81036370  1
  Se  Se219  1  0.75101864  0.42622322  0.31279816  1
  Se  Se220  1  0.74577749  0.41648828  0.80634018  1
  Se  Se221  1  0.74609112  0.74801784  0.30233570  1
  Se  Se222  1  0.75715491  0.73839887  0.81141757  1
  Se  Se223  1  0.23927975  0.09205467  0.19127484  1
  Se  Se224  1  0.24587301  0.08327760  0.69025898  1
  Se  Se225  1  0.24168048  0.42865825  0.19034506  1
  Se  Se226  1  0.25268554  0.41397975  0.69441875  1
  Se  Se227  1  0.24827901  0.75721017  0.19175071  1
  Se  Se228  1  0.25628940  0.74642341  0.70533070  1
  Se  Se229  1  0.57446466  0.09410167  0.18499577  1
  Se  Se230  1  0.58958022  0.07945654  0.70375871  1
  Se  Se231  1  0.58140779  0.42497064  0.18815250  1
  Se  Se232  1  0.58754491  0.41540222  0.69848822  1
  Se  Se233  1  0.59078814  0.74789557  0.18758371  1
  Se  Se234  1  0.59957230  0.73486253  0.70233832  1
  Se  Se235  1  0.91584943  0.07551547  0.19450566  1
  Se  Se236  1  0.90350626  0.09327492  0.68978531  1
  Se  Se237  1  0.91054934  0.41473087  0.19668300  1
  Se  Se238  1  0.91527414  0.42140231  0.70331653  1
  Se  Se239  1  0.90824002  0.74719771  0.18138376  1
  Se  Se240  1  0.90960036  0.75956807  0.69352866  1
  Se  Se241  1  0.07754230  0.25247494  0.20037870  1
  Se  Se242  1  0.07925993  0.25281812  0.69465101  1
  Se  Se243  1  0.09173220  0.57483073  0.19034921  1
  Se  Se244  1  0.08611049  0.58069100  0.68646879  1
  Se  Se245  1  0.07731513  0.91357459  0.19841604  1
  Se  Se246  1  0.08901329  0.90936895  0.69473480  1
  Se  Se247  1  0.42430504  0.24966735  0.18874406  1
  Se  Se248  1  0.41927000  0.24253756  0.69905703  1
  Se  Se249  1  0.42606994  0.58629176  0.18844506  1
  Se  Se250  1  0.42046799  0.58251233  0.69887353  1
  Se  Se251  1  0.42687857  0.91340514  0.18467980  1
  Se  Se252  1  0.43000664  0.90467480  0.69753454  1
  Se  Se253  1  0.75306810  0.23890947  0.18648059  1
  Se  Se254  1  0.74685860  0.25336360  0.70495549  1
  Se  Se255  1  0.74986075  0.58635087  0.18745440  1
  Se  Se256  1  0.74907870  0.58928163  0.69997800  1
  Se  Se257  1  0.75741223  0.90271920  0.18181982  1
  Se  Se258  1  0.74635076  0.91590794  0.70153119  1
