# generated using pymatgen
data_In86Cu29Se144
_symmetry_space_group_name_H-M   'P 1'
_cell_length_a   17.58554008
_cell_length_b   17.58476365
_cell_length_c   23.45526829
_cell_angle_alpha   90.00549213
_cell_angle_beta   90.01607252
_cell_angle_gamma   89.98134153
_symmetry_Int_Tables_number   1
_chemical_formula_structural   In86Cu29Se144
_chemical_formula_sum   'In86 Cu29 Se144'
_cell_volume   7253.24936890
_cell_formula_units_Z   1
loop_
 _symmetry_equiv_pos_site_id
 _symmetry_equiv_pos_as_xyz
  1  'x, y, z'
loop_
 _atom_site_type_symbol
 _atom_site_label
 _atom_site_symmetry_multiplicity
 _atom_site_fract_x
 _atom_site_fract_y
 _atom_site_fract_z
 _atom_site_occupancy
  In  In0  1  0.00985680  0.15606914  0.12651088  1
  In  In1  1  -0.00718866  0.16283632  0.61866325  1
  In  In2  1  -0.00052531  0.50269590  0.12663920  1
  In  In3  1  -0.00325611  0.51058632  0.62704912  1
  In  In4  1  -0.01541050  0.84397954  0.13249523  1
  In  In5  1  -0.00409075  0.83019174  0.62256629  1
  In  In6  1  0.34398043  0.18121154  0.12524481  1
  In  In7  1  0.34380094  0.17180892  0.62093858  1
  In  In8  1  0.32425573  0.48713517  0.11742238  1
  In  In9  1  0.33049166  0.48795069  0.63281761  1
  In  In10  1  0.33557590  0.81864014  0.12304435  1
  In  In11  1  0.33267124  0.84653986  0.62270614  1
  In  In12  1  0.64909240  0.16181628  0.13206087  1
  In  In13  1  0.66645792  0.16972875  0.61425626  1
  In  In14  1  0.67753645  0.51045169  0.11910426  1
  In  In15  1  0.66577939  0.50046629  0.61503681  1
  In  In16  1  0.66999611  0.83288522  0.13014795  1
  In  In17  1  0.67523449  0.82013763  0.62179025  1
  In  In18  1  0.13922220  -0.00311841  0.37546118  1
  In  In19  1  0.16434113  0.01220676  0.87631058  1
  In  In20  1  0.16707253  0.33359686  0.36328023  1
  In  In21  1  0.17432248  0.32545863  0.87947110  1
  In  In22  1  0.16484932  0.68362075  0.37964842  1
  In  In23  1  0.14836818  0.66749482  0.87629744  1
  In  In24  1  0.51621304  0.00210671  0.36915520  1
  In  In25  1  0.49758048  0.00313474  0.88968769  1
  In  In26  1  0.49551811  0.33895691  0.37450262  1
  In  In27  1  0.48345519  0.34727248  0.88572075  1
  In  In28  1  0.49902038  0.65189159  0.37335383  1
  In  In29  1  0.50860615  0.65952953  0.88448755  1
  In  In30  1  0.83750448  0.00092580  0.37737133  1
  In  In31  1  0.83437403  -0.01341884  0.87540908  1
  In  In32  1  0.83780342  0.32299621  0.37944304  1
  In  In33  1  0.84525965  0.34334890  0.87726049  1
  In  In34  1  0.83468511  0.66424139  0.37269588  1
  In  In35  1  0.84786620  0.65773897  0.88187930  1
  In  In36  1  -0.01426959  0.15498237  0.36069288  1
  In  In37  1  0.01293415  0.17179857  0.87477136  1
  In  In38  1  -0.00862654  0.49060466  0.36856490  1
  In  In39  1  -0.00968246  0.51397470  0.88337354  1
  In  In40  1  -0.00218386  0.83426093  0.37700773  1
  In  In41  1  -0.00810747  0.82392215  0.87044175  1
  In  In42  1  0.33285488  0.18153057  0.37132775  1
  In  In43  1  0.32451325  0.17659569  0.88273878  1
  In  In44  1  0.34692065  0.50270337  0.37608987  1
  In  In45  1  0.34042858  0.48771567  0.87640758  1
  In  In46  1  0.32355174  0.82016139  0.38216798  1
  In  In47  1  0.33528437  0.84574971  0.88063750  1
  In  In48  1  0.67288780  0.16146174  0.37762931  1
  In  In49  1  0.66322173  0.15546140  0.88034835  1
  In  In50  1  0.65947223  0.50498548  0.37488306  1
  In  In51  1  0.66900624  0.49793367  0.88134569  1
  In  In52  1  0.68156822  0.84406678  0.36474405  1
  In  In53  1  0.67619308  0.82607252  0.88893529  1
  In  In54  1  0.14211495  0.00500385  0.12081404  1
  In  In55  1  0.15871206  -0.01471205  0.61768186  1
  In  In56  1  0.16583831  0.33348152  0.12517325  1
  In  In57  1  0.17682823  0.35074220  0.63287476  1
  In  In58  1  0.16956860  0.65226816  0.12484874  1
  In  In59  1  0.14998605  0.65732873  0.62769714  1
  In  In60  1  0.51340791  0.01276660  0.12595517  1
  In  In61  1  0.48807970  0.00890890  0.62158932  1
  In  In62  1  0.48932918  0.32175811  0.12172653  1
  In  In63  1  0.49686425  0.33290407  0.62359980  1
  In  In64  1  0.50721735  0.67183955  0.11986547  1
  In  In65  1  0.50776181  0.66360358  0.62394468  1
  In  In66  1  0.84484412  -0.01326832  0.13124630  1
  In  In67  1  0.84547517  0.00519029  0.61284812  1
  In  In68  1  0.83306674  0.34940148  0.12345438  1
  In  In69  1  0.83506572  0.33283438  0.61204730  1
  In  In70  1  0.83255717  0.66872178  0.12880442  1
  In  In71  1  0.83866580  0.67448598  0.61505081  1
  In  In72  1  0.67611283  0.65866862  0.75607823  1
  In  In73  1  0.16566303  0.83364930  -0.00040819  1
  In  In74  1  0.16948059  0.50628932  0.50771614  1
  In  In75  1  0.66731347  -0.00071443  0.74744228  1
  In  In76  1  0.33117008  0.65982151  0.25334761  1
  In  In77  1  0.16233443  0.16318039  0.49745049  1
  In  In78  1  0.32930076  0.66284591  0.74952711  1
  In  In79  1  0.83272316  0.16698481  0.00163812  1
  In  In80  1  0.66688209  0.33504719  0.24721029  1
  In  In81  1  0.00575268  0.34141959  0.74850007  1
  In  In82  1  0.32596049  0.00602842  0.75013680  1
  In  In83  1  0.33130159  0.00131925  0.24868628  1
  In  In84  1  0.66478334  0.33669301  0.75664042  1
  In  In85  1  0.50749776  0.83799980  0.49699671  1
  Cu  Cu86  1  0.33673441  0.65778307  0.00016645  1
  Cu  Cu87  1  0.83382316  0.83045336  0.25369913  1
  Cu  Cu88  1  0.66667687  -0.00366473  0.00690584  1
  Cu  Cu89  1  0.15382249  0.82943521  0.74656092  1
  Cu  Cu90  1  0.66386284  0.33432240  0.00634215  1
  Cu  Cu91  1  0.00622880  0.33994243  0.00097741  1
  Cu  Cu92  1  0.66873404  0.66460869  0.49412387  1
  Cu  Cu93  1  0.33299630  0.00612097  0.49685654  1
  Cu  Cu94  1  -0.00087139  0.32966573  0.49450380  1
  Cu  Cu95  1  0.49203092  0.17500332  0.75082224  1
  Cu  Cu96  1  0.66762990  0.67263797  0.00507624  1
  Cu  Cu97  1  0.16182093  0.49775276  0.24625736  1
  Cu  Cu98  1  -0.00340532  0.66968424  0.00570416  1
  Cu  Cu99  1  0.16563636  0.16947101  0.24613850  1
  Cu  Cu100  1  0.16706791  0.16783914  0.75169601  1
  Cu  Cu101  1  0.83811063  0.16545566  0.73962918  1
  Cu  Cu102  1  -0.00211635  0.66772950  0.49864879  1
  Cu  Cu103  1  0.67087438  0.00218473  0.49488371  1
  Cu  Cu104  1  0.33844178  0.33884193  0.49924968  1
  Cu  Cu105  1  0.49843407  0.49642198  0.24745335  1
  Cu  Cu106  1  0.84468722  0.83106015  0.74625466  1
  Cu  Cu107  1  0.66034600  0.33605554  0.49445635  1
  Cu  Cu108  1  0.15479422  0.83680027  0.25358742  1
  Cu  Cu109  1  0.83368156  0.16560560  0.25278093  1
  Cu  Cu110  1  0.33467552  0.33070081  0.00200857  1
  Cu  Cu111  1  0.50559502  0.83048248  0.24536656  1
  Cu  Cu112  1  0.33635401  0.00115408  0.00610997  1
  Cu  Cu113  1  0.50533951  0.83235270  0.76136834  1
  Cu  Cu114  1  0.83663579  0.50354751  0.24785117  1
  Se  Se115  1  0.07942913  0.08765760  0.04407695  1
  Se  Se116  1  0.07025288  0.06883178  0.54951743  1
  Se  Se117  1  0.08653204  0.42271250  0.05763629  1
  Se  Se118  1  0.07599513  0.40731686  0.55908868  1
  Se  Se119  1  0.08006254  0.74784383  0.06556468  1
  Se  Se120  1  0.08273075  0.74552996  0.55537311  1
  Se  Se121  1  0.41808671  0.08497198  0.06037769  1
  Se  Se122  1  0.41758316  0.09014400  0.54643740  1
  Se  Se123  1  0.42065271  0.41542358  0.05245899  1
  Se  Se124  1  0.41596463  0.42161239  0.55683218  1
  Se  Se125  1  0.41738889  0.74644296  0.04981553  1
  Se  Se126  1  0.41825541  0.75300967  0.56104162  1
  Se  Se127  1  0.74610521  0.07975266  0.06634841  1
  Se  Se128  1  0.75244897  0.08604737  0.55085668  1
  Se  Se129  1  0.75220400  0.42132413  0.04878203  1
  Se  Se130  1  0.74774365  0.41597802  0.54796612  1
  Se  Se131  1  0.75283034  0.75370982  0.05828575  1
  Se  Se132  1  0.75163256  0.75093159  0.54437594  1
  Se  Se133  1  0.24997224  0.24935138  0.05657285  1
  Se  Se134  1  0.25017592  0.26075962  0.55613839  1
  Se  Se135  1  0.24762967  0.57816190  0.05001273  1
  Se  Se136  1  0.26179291  0.59262863  0.56731081  1
  Se  Se137  1  0.25354658  0.92220946  0.06499289  1
  Se  Se138  1  0.25257772  0.91907636  0.54792516  1
  Se  Se139  1  0.58338664  0.24622918  0.05556014  1
  Se  Se140  1  0.57880331  0.25353208  0.55201837  1
  Se  Se141  1  0.58375590  0.58292207  0.05173098  1
  Se  Se142  1  0.58212317  0.58624232  0.54862397  1
  Se  Se143  1  0.58271836  0.91435086  0.06130297  1
  Se  Se144  1  0.59363073  0.92793505  0.56384479  1
  Se  Se145  1  0.92277160  0.25865537  0.06012998  1
  Se  Se146  1  0.91614352  0.24472541  0.54713278  1
  Se  Se147  1  0.91338675  0.58442061  0.05848262  1
  Se  Se148  1  0.91659338  0.58027130  0.55030394  1
  Se  Se149  1  0.92330538  0.92230102  0.05205601  1
  Se  Se150  1  0.90310166  0.89834639  0.55299686  1
  Se  Se151  1  0.07826939  0.25219521  0.43289099  1
  Se  Se152  1  0.08571642  0.25055462  0.94998341  1
  Se  Se153  1  0.07772813  0.58359894  0.43968844  1
  Se  Se154  1  0.08154539  0.58647617  0.95371600  1
  Se  Se155  1  0.09556737  0.89752255  0.44691971  1
  Se  Se156  1  0.07724969  0.91873930  0.93683743  1
  Se  Se157  1  0.41672121  0.25224152  0.44529087  1
  Se  Se158  1  0.42011649  0.24470762  0.95036145  1
  Se  Se159  1  0.40976970  0.59302662  0.44743088  1
  Se  Se160  1  0.41964513  0.57504994  0.94582266  1
  Se  Se161  1  0.41286979  0.92454456  0.43542662  1
  Se  Se162  1  0.41847418  0.91397539  0.95560617  1
  Se  Se163  1  0.74753349  0.24944788  0.44755401  1
  Se  Se164  1  0.74379174  0.26004553  0.93914173  1
  Se  Se165  1  0.75159397  0.57957091  0.44170946  1
  Se  Se166  1  0.74667025  0.59021591  0.94543439  1
  Se  Se167  1  0.75242507  0.91535367  0.44510360  1
  Se  Se168  1  0.75408817  0.91861625  0.95270403  1
  Se  Se169  1  0.25137450  0.07778534  0.43172666  1
  Se  Se170  1  0.25346649  0.07951583  0.94796709  1
  Se  Se171  1  0.25029954  0.41279604  0.44068437  1
  Se  Se172  1  0.25238520  0.41382968  0.94731241  1
  Se  Se173  1  0.25566791  0.73773848  0.45559093  1
  Se  Se174  1  0.25694357  0.74113478  0.93986878  1
  Se  Se175  1  0.58221331  0.08399477  0.44661765  1
  Se  Se176  1  0.58421689  0.08414364  0.95622648  1
  Se  Se177  1  0.57704848  0.42181925  0.44345876  1
  Se  Se178  1  0.58367588  0.41692081  0.94837708  1
  Se  Se179  1  0.59090285  0.74799499  0.43286630  1
  Se  Se180  1  0.57960814  0.75329175  0.95145675  1
  Se  Se181  1  0.92229281  0.08557964  0.44308293  1
  Se  Se182  1  0.91997996  0.08268239  0.93670887  1
  Se  Se183  1  0.91484116  0.41646315  0.44535132  1
  Se  Se184  1  0.91644881  0.42191834  0.95276812  1
  Se  Se185  1  0.91356531  0.74826442  0.44360953  1
  Se  Se186  1  0.91571704  0.75366267  0.94999692  1
  Se  Se187  1  0.25212003  0.25225786  0.29573974  1
  Se  Se188  1  0.25236938  0.24908249  0.80298915  1
  Se  Se189  1  0.23769584  0.57457435  0.31394553  1
  Se  Se190  1  0.24478999  0.58063186  0.81687362  1
  Se  Se191  1  0.24390711  0.91051649  0.31161083  1
  Se  Se192  1  0.23683435  0.90815465  0.80691091  1
  Se  Se193  1  0.58205639  0.24706703  0.31052071  1
  Se  Se194  1  0.57709220  0.24286818  0.81465153  1
  Se  Se195  1  0.58166663  0.58129439  0.29840952  1
  Se  Se196  1  0.57655010  0.57119401  0.80757951  1
  Se  Se197  1  0.58737015  0.91636649  0.29749254  1
  Se  Se198  1  0.58369659  0.91534973  0.81842575  1
  Se  Se199  1  0.91577225  0.25686578  0.29913706  1
  Se  Se200  1  0.91208360  0.24551233  0.80506500  1
  Se  Se201  1  0.92069202  0.58567352  0.30200570  1
  Se  Se202  1  0.91732914  0.58404612  0.80352281  1
  Se  Se203  1  0.91656365  0.91633379  0.30637376  1
  Se  Se204  1  0.92059432  0.91899980  0.80160308  1
  Se  Se205  1  0.08293264  0.08228655  0.29624667  1
  Se  Se206  1  0.08211262  0.08410252  0.80101883  1
  Se  Se207  1  0.07812984  0.41367137  0.29893197  1
  Se  Se208  1  0.08390181  0.42089386  0.82109184  1
  Se  Se209  1  0.07756498  0.74751840  0.30533649  1
  Se  Se210  1  0.07487234  0.74342289  0.79971600  1
  Se  Se211  1  0.42119436  0.08938594  0.30833849  1
  Se  Se212  1  0.42066078  0.08760313  0.81209119  1
  Se  Se213  1  0.41348884  0.41679249  0.30113909  1
  Se  Se214  1  0.41797240  0.41119905  0.80139403  1
  Se  Se215  1  0.42262142  0.75711263  0.30826232  1
  Se  Se216  1  0.41937079  0.75321018  0.81493626  1
  Se  Se217  1  0.75240460  0.08138359  0.30611227  1
  Se  Se218  1  0.75915192  0.09103311  0.80583704  1
  Se  Se219  1  0.75729030  0.42151291  0.30943142  1
  Se  Se220  1  0.76280120  0.42843224  0.80664177  1
  Se  Se221  1  0.74878933  0.74305153  0.30181456  1
  Se  Se222  1  0.76122168  0.75867985  0.81037186  1
  Se  Se223  1  0.24239590  0.08660344  0.18444893  1
  Se  Se224  1  0.24037645  0.09046939  0.68220327  1
  Se  Se225  1  0.24982954  0.41574789  0.19616400  1
  Se  Se226  1  0.25099515  0.42058615  0.71000119  1
  Se  Se227  1  0.23892050  0.75562221  0.19648649  1
  Se  Se228  1  0.24467932  0.75945215  0.68871601  1
  Se  Se229  1  0.58423815  0.07902527  0.20807612  1
  Se  Se230  1  0.57332551  0.09404275  0.69232624  1
  Se  Se231  1  0.58001891  0.42273456  0.18324056  1
  Se  Se232  1  0.58134924  0.42359379  0.69071109  1
  Se  Se233  1  0.58723114  0.74264558  0.19603590  1
  Se  Se234  1  0.58211026  0.75562643  0.69851600  1
  Se  Se235  1  0.91686769  0.08493838  0.19510710  1
  Se  Se236  1  0.92034381  0.07840726  0.69208941  1
  Se  Se237  1  0.91867356  0.41715158  0.19712220  1
  Se  Se238  1  0.90556593  0.41924352  0.68909027  1
  Se  Se239  1  0.91748208  0.74779048  0.19942593  1
  Se  Se240  1  0.92015281  0.74103578  0.69331251  1
  Se  Se241  1  0.07982704  0.25166298  0.19341645  1
  Se  Se242  1  0.08936513  0.24480852  0.68597606  1
  Se  Se243  1  0.08105185  0.58690400  0.19779239  1
  Se  Se244  1  0.09535823  0.56156426  0.69848168  1
  Se  Se245  1  0.07733927  0.92188272  0.19806774  1
  Se  Se246  1  0.07647817  0.91729624  0.69298817  1
  Se  Se247  1  0.42257283  0.24940183  0.20279967  1
  Se  Se248  1  0.41095444  0.25625902  0.69590237  1
  Se  Se249  1  0.41768091  0.57741748  0.18598132  1
  Se  Se250  1  0.42802830  0.57836883  0.69422542  1
  Se  Se251  1  0.41942442  0.90797781  0.18884295  1
  Se  Se252  1  0.42743825  0.91247861  0.69903281  1
  Se  Se253  1  0.75800476  0.24406696  0.18690876  1
  Se  Se254  1  0.75252285  0.24833995  0.68909895  1
  Se  Se255  1  0.74821480  0.58518462  0.19817634  1
  Se  Se256  1  0.75714100  0.57913123  0.68423885  1
  Se  Se257  1  0.75211729  0.91617307  0.19939519  1
  Se  Se258  1  0.75793312  0.90913623  0.68906723  1
