# generated using pymatgen
data_In86Cu29Se144
_symmetry_space_group_name_H-M   'P 1'
_cell_length_a   17.58721319
_cell_length_b   17.58821649
_cell_length_c   23.44689946
_cell_angle_alpha   89.98116367
_cell_angle_beta   90.00112527
_cell_angle_gamma   90.01127057
_symmetry_Int_Tables_number   1
_chemical_formula_structural   In86Cu29Se144
_chemical_formula_sum   'In86 Cu29 Se144'
_cell_volume   7252.77525506
_cell_formula_units_Z   1
loop_
 _symmetry_equiv_pos_site_id
 _symmetry_equiv_pos_as_xyz
  1  'x, y, z'
loop_
 _atom_site_type_symbol
 _atom_site_label
 _atom_site_symmetry_multiplicity
 _atom_site_fract_x
 _atom_site_fract_y
 _atom_site_fract_z
 _atom_site_occupancy
  In  In0  1  0.00601833  0.15667806  0.12365351  1
  In  In1  1  -0.00863122  0.16011576  0.61373046  1
  In  In2  1  -0.00197110  0.51728640  0.12289718  1
  In  In3  1  0.00057578  0.47778665  0.61866754  1
  In  In4  1  -0.00455873  0.83698986  0.10788186  1
  In  In5  1  -0.00041909  0.84575389  0.63422444  1
  In  In6  1  0.32622024  0.18028485  0.11856662  1
  In  In7  1  0.35013473  0.17723651  0.61681216  1
  In  In8  1  0.35538443  0.51001496  0.11475538  1
  In  In9  1  0.34217723  0.50075465  0.62889612  1
  In  In10  1  0.33622505  0.82500324  0.11955438  1
  In  In11  1  0.34546408  0.81691180  0.63674201  1
  In  In12  1  0.66834151  0.16853437  0.12961716  1
  In  In13  1  0.66494113  0.16530296  0.62465825  1
  In  In14  1  0.66489486  0.50558941  0.12473142  1
  In  In15  1  0.64536237  0.50731984  0.63786726  1
  In  In16  1  0.64564495  0.80613131  0.10429008  1
  In  In17  1  0.66365178  0.83035964  0.62483530  1
  In  In18  1  0.17133110  0.01045398  0.37787645  1
  In  In19  1  0.16769600  0.00175673  0.87880812  1
  In  In20  1  0.16755603  0.33349136  0.39027654  1
  In  In21  1  0.16710855  0.32762762  0.87059555  1
  In  In22  1  0.17731473  0.65531962  0.37856413  1
  In  In23  1  0.19364941  0.66766631  0.87856100  1
  In  In24  1  0.50514245  -0.00438226  0.38666823  1
  In  In25  1  0.50496824  -0.01803773  0.86894241  1
  In  In26  1  0.51298212  0.33572125  0.38981486  1
  In  In27  1  0.51982038  0.35918160  0.84957094  1
  In  In28  1  0.50182700  0.66560449  0.37512082  1
  In  In29  1  0.50187236  0.66943851  0.86596233  1
  In  In30  1  0.83182851  0.00248836  0.38405603  1
  In  In31  1  0.82582422  -0.00899811  0.86308433  1
  In  In32  1  0.81106170  0.33799382  0.38430422  1
  In  In33  1  0.82564645  0.34280151  0.87696919  1
  In  In34  1  0.83306201  0.68236288  0.37998531  1
  In  In35  1  0.81870571  0.67719134  0.87766308  1
  In  In36  1  -0.00770473  0.17897670  0.39453408  1
  In  In37  1  0.01579270  0.16337407  0.87334481  1
  In  In38  1  0.00779688  0.51079378  0.38040740  1
  In  In39  1  -0.00853467  0.48468620  0.87745558  1
  In  In40  1  -0.01446824  0.82445886  0.37595695  1
  In  In41  1  -0.00688259  0.84717074  0.88351234  1
  In  In42  1  0.33292456  0.16994312  0.38768484  1
  In  In43  1  0.32287746  0.17194878  0.87008770  1
  In  In44  1  0.33937641  0.50570242  0.37925026  1
  In  In45  1  0.37661757  0.53093290  0.82955112  1
  In  In46  1  0.34759909  0.82409813  0.37802584  1
  In  In47  1  0.35957711  0.79971776  0.90637599  1
  In  In48  1  0.65504721  0.18564704  0.40100111  1
  In  In49  1  0.67189978  0.16347428  0.86498574  1
  In  In50  1  0.65704323  0.49280938  0.37278000  1
  In  In51  1  0.65892044  0.50572221  0.87239679  1
  In  In52  1  0.66721738  0.83099221  0.37782028  1
  In  In53  1  0.66239081  0.83296642  0.86703264  1
  In  In54  1  0.15727725  0.00189845  0.10778922  1
  In  In55  1  0.15523581  -0.00195672  0.63359444  1
  In  In56  1  0.17691450  0.32295418  0.11700164  1
  In  In57  1  0.17149966  0.34575386  0.61086483  1
  In  In58  1  0.17068806  0.67871389  0.12144725  1
  In  In59  1  0.18365900  0.66329273  0.62922756  1
  In  In60  1  0.51218643  -0.01362536  0.12360707  1
  In  In61  1  0.50666232  0.00365343  0.62299835  1
  In  In62  1  0.49778146  0.34582267  0.12479750  1
  In  In63  1  0.50405222  0.33362096  0.63245752  1
  In  In64  1  0.50588332  0.66982491  0.12500815  1
  In  In65  1  0.50118997  0.66578343  0.62842950  1
  In  In66  1  0.83900990  -0.00637270  0.11962218  1
  In  In67  1  0.83414631  -0.00101545  0.62804380  1
  In  In68  1  0.80779855  0.33318867  0.12852176  1
  In  In69  1  0.82646544  0.31823034  0.61835805  1
  In  In70  1  0.82423407  0.65821411  0.11451276  1
  In  In71  1  0.80858706  0.65974265  0.62408921  1
  In  In72  1  -0.00490976  0.34337452  0.25965075  1
  In  In73  1  0.33296799  -0.00116473  0.24026469  1
  In  In74  1  0.83562208  0.16451547  -0.00321451  1
  In  In75  1  0.48673918  0.16467078  -0.00517675  1
  In  In76  1  0.33476846  -0.00686171  0.75131090  1
  In  In77  1  0.00090580  0.66718617  0.75555407  1
  In  In78  1  0.33771447  0.33896819  0.24804989  1
  In  In79  1  -0.00438875  0.67132887  0.25329324  1
  In  In80  1  0.66934172  -0.00682504  0.25417189  1
  In  In81  1  0.16572085  0.49319927  -0.00641061  1
  In  In82  1  -0.00470384  0.32083544  0.74405236  1
  In  In83  1  0.83224373  0.49832578  0.50341420  1
  In  In84  1  0.00020124  0.00011496  0.23961189  1
  In  In85  1  0.16594331  0.84300871  0.50863186  1
  Cu  Cu86  1  0.34187073  0.66233166  0.50706122  1
  Cu  Cu87  1  0.33922709  0.33993319  0.50475415  1
  Cu  Cu88  1  0.81752985  0.17310690  0.25621732  1
  Cu  Cu89  1  -0.00300855  -0.00232213  0.50496141  1
  Cu  Cu90  1  0.82521542  0.82921330  0.24597210  1
  Cu  Cu91  1  0.33326997  -0.00341750  0.50384161  1
  Cu  Cu92  1  0.16757159  0.49807551  0.74152437  1
  Cu  Cu93  1  0.00214568  0.66980067  0.50307793  1
  Cu  Cu94  1  0.17700514  0.82979960  0.24731554  1
  Cu  Cu95  1  0.16062331  0.16891330  0.25416274  1
  Cu  Cu96  1  0.65345446  0.34381600  -0.00066704  1
  Cu  Cu97  1  0.67320477  -0.00180208  0.50691164  1
  Cu  Cu98  1  0.16976627  0.83475974  0.76169047  1
  Cu  Cu99  1  0.50168844  0.16730155  0.26556769  1
  Cu  Cu100  1  0.50283795  0.16640481  0.74539883  1
  Cu  Cu101  1  -0.00546116  0.66294545  -0.00622253  1
  Cu  Cu102  1  0.66428424  0.66248155  -0.00488503  1
  Cu  Cu103  1  0.83585867  0.16178374  0.74351561  1
  Cu  Cu104  1  0.18348488  0.50440742  0.25080635  1
  Cu  Cu105  1  0.66831044  -0.00785580  -0.01009848  1
  Cu  Cu106  1  0.33458948  0.33662562  -0.01264832  1
  Cu  Cu107  1  0.82404059  0.49790022  0.75292123  1
  Cu  Cu108  1  0.50962243  0.50535194  0.24834940  1
  Cu  Cu109  1  0.82897402  0.83020889  0.74947399  1
  Cu  Cu110  1  0.32957765  -0.00032085  -0.00387738  1
  Cu  Cu111  1  0.66128149  0.66946293  0.50246421  1
  Cu  Cu112  1  0.82444812  0.49884067  0.24870873  1
  Cu  Cu113  1  0.16577522  0.16507775  0.74437697  1
  Cu  Cu114  1  -0.00671813  0.32911060  -0.00034433  1
  Se  Se115  1  0.08323886  0.09537066  0.04441616  1
  Se  Se116  1  0.08731989  0.07603923  0.55502406  1
  Se  Se117  1  0.07410624  0.40920293  0.06253915  1
  Se  Se118  1  0.08396954  0.41991061  0.54133019  1
  Se  Se119  1  0.07783113  0.74222118  0.05031938  1
  Se  Se120  1  0.08131220  0.74681910  0.56826141  1
  Se  Se121  1  0.40847241  0.07299851  0.06465293  1
  Se  Se122  1  0.42129498  0.08093143  0.55223223  1
  Se  Se123  1  0.41751397  0.41193791  0.04675020  1
  Se  Se124  1  0.42391409  0.41813879  0.56005397  1
  Se  Se125  1  0.42825748  0.75386577  0.05350300  1
  Se  Se126  1  0.42141618  0.75248224  0.55622660  1
  Se  Se127  1  0.73759678  0.07634662  0.05522082  1
  Se  Se128  1  0.75486529  0.08375477  0.55810668  1
  Se  Se129  1  0.74436260  0.41833588  0.05328993  1
  Se  Se130  1  0.73968009  0.42149824  0.56869937  1
  Se  Se131  1  0.75409278  0.74813527  0.04354147  1
  Se  Se132  1  0.74928259  0.75235494  0.55118991  1
  Se  Se133  1  0.25156551  0.25033871  0.03879442  1
  Se  Se134  1  0.25475185  0.25081645  0.55196541  1
  Se  Se135  1  0.25170564  0.58584081  0.05483324  1
  Se  Se136  1  0.25424336  0.57940616  0.55642226  1
  Se  Se137  1  0.25388788  0.91646151  0.05576350  1
  Se  Se138  1  0.26109003  0.92070318  0.57216340  1
  Se  Se139  1  0.58298820  0.25110192  0.05719291  1
  Se  Se140  1  0.57456425  0.24489753  0.56096941  1
  Se  Se141  1  0.58212992  0.58247691  0.05274193  1
  Se  Se142  1  0.58141226  0.58328880  0.55564851  1
  Se  Se143  1  0.58099424  0.91304654  0.04376728  1
  Se  Se144  1  0.58414711  0.91517566  0.55452575  1
  Se  Se145  1  0.91521911  0.25568411  0.06651113  1
  Se  Se146  1  0.93628914  0.27191238  0.55586125  1
  Se  Se147  1  0.91268654  0.57833187  0.04661663  1
  Se  Se148  1  0.92274987  0.59019368  0.56556997  1
  Se  Se149  1  0.92451312  0.93334359  0.04475965  1
  Se  Se150  1  0.91679974  0.91244189  0.55823799  1
  Se  Se151  1  0.10066511  0.23525123  0.45274921  1
  Se  Se152  1  0.08108966  0.25602555  0.94412990  1
  Se  Se153  1  0.08800938  0.58875203  0.45229080  1
  Se  Se154  1  0.07675442  0.58636029  0.93252402  1
  Se  Se155  1  0.07398254  0.92100346  0.43806162  1
  Se  Se156  1  0.09063770  0.91509091  0.94732285  1
  Se  Se157  1  0.41998642  0.25330569  0.45070120  1
  Se  Se158  1  0.42000539  0.26103707  0.92746376  1
  Se  Se159  1  0.42463552  0.58236931  0.44920455  1
  Se  Se160  1  0.40682815  0.58700920  0.92756490  1
  Se  Se161  1  0.41457044  0.91327014  0.44970496  1
  Se  Se162  1  0.42217984  0.92175537  0.94850940  1
  Se  Se163  1  0.76037621  0.24813581  0.46114630  1
  Se  Se164  1  0.73552194  0.25585361  0.94499327  1
  Se  Se165  1  0.74602410  0.59119813  0.44222305  1
  Se  Se166  1  0.74911983  0.57871178  0.94243645  1
  Se  Se167  1  0.74978280  0.91408913  0.44692384  1
  Se  Se168  1  0.75238240  0.91002743  0.93798041  1
  Se  Se169  1  0.24985912  0.08227221  0.45312952  1
  Se  Se170  1  0.25221587  0.08883551  0.94499808  1
  Se  Se171  1  0.25713754  0.42160269  0.44748864  1
  Se  Se172  1  0.25729098  0.41834395  0.92814774  1
  Se  Se173  1  0.25436698  0.74588686  0.45081810  1
  Se  Se174  1  0.23894068  0.75544041  0.95895316  1
  Se  Se175  1  0.58362871  0.07972385  0.45575597  1
  Se  Se176  1  0.58783518  0.08105107  0.93863778  1
  Se  Se177  1  0.59301993  0.42221632  0.45541878  1
  Se  Se178  1  0.57256211  0.42226413  0.94159156  1
  Se  Se179  1  0.58012195  0.75231161  0.44579371  1
  Se  Se180  1  0.58589617  0.74692906  0.93818423  1
  Se  Se181  1  0.91271564  0.08344883  0.45378689  1
  Se  Se182  1  0.91739761  0.07852763  0.93146660  1
  Se  Se183  1  0.92358291  0.41405457  0.43827274  1
  Se  Se184  1  0.90832560  0.41436451  0.95203653  1
  Se  Se185  1  0.91478958  0.75378034  0.45616784  1
  Se  Se186  1  0.91344087  0.74984505  0.94275697  1
  Se  Se187  1  0.24639577  0.24858348  0.30968115  1
  Se  Se188  1  0.24571398  0.25136567  0.79606623  1
  Se  Se189  1  0.26344838  0.58809221  0.30447561  1
  Se  Se190  1  0.24418616  0.58454147  0.79649102  1
  Se  Se191  1  0.24710878  0.91451461  0.31059871  1
  Se  Se192  1  0.25630159  0.90773326  0.82023065  1
  Se  Se193  1  0.58570186  0.25093012  0.31570516  1
  Se  Se194  1  0.58943507  0.24773346  0.79847993  1
  Se  Se195  1  0.58980877  0.58758365  0.30463743  1
  Se  Se196  1  0.56648410  0.56840529  0.79928648  1
  Se  Se197  1  0.57043879  0.90821200  0.30887060  1
  Se  Se198  1  0.59714625  0.92699369  0.79603262  1
  Se  Se199  1  0.90679345  0.24631412  0.31425389  1
  Se  Se200  1  0.90710366  0.24080477  0.81333644  1
  Se  Se201  1  0.90523418  0.57606305  0.31116866  1
  Se  Se202  1  0.90752276  0.57479559  0.81175523  1
  Se  Se203  1  0.90725333  0.91323251  0.30303585  1
  Se  Se204  1  0.91877331  0.91021312  0.79940041  1
  Se  Se205  1  0.07708413  0.09041774  0.31107981  1
  Se  Se206  1  0.09001167  0.08040731  0.80150218  1
  Se  Se207  1  0.10080070  0.42776460  0.31132474  1
  Se  Se208  1  0.08340708  0.42050992  0.80065610  1
  Se  Se209  1  0.09315358  0.75843268  0.31243374  1
  Se  Se210  1  0.08848236  0.75168927  0.81948541  1
  Se  Se211  1  0.41497714  0.08404448  0.31389298  1
  Se  Se212  1  0.42421842  0.08868639  0.81047314  1
  Se  Se213  1  0.43080830  0.42189566  0.30977892  1
  Se  Se214  1  0.39138973  0.39040238  0.80181941  1
  Se  Se215  1  0.41109765  0.73892330  0.30507828  1
  Se  Se216  1  0.41048612  0.76060802  0.80913794  1
  Se  Se217  1  0.74501819  0.08977302  0.31832408  1
  Se  Se218  1  0.74906157  0.07887499  0.79535381  1
  Se  Se219  1  0.74551406  0.41414660  0.30367623  1
  Se  Se220  1  0.74128146  0.41397038  0.80527195  1
  Se  Se221  1  0.74781246  0.74881991  0.30488665  1
  Se  Se222  1  0.74366129  0.74515269  0.79797287  1
  Se  Se223  1  0.23726399  0.09408634  0.18739941  1
  Se  Se224  1  0.25416294  0.08851395  0.68711381  1
  Se  Se225  1  0.24967067  0.42533915  0.18200054  1
  Se  Se226  1  0.24913494  0.41379309  0.68960590  1
  Se  Se227  1  0.25752082  0.74603822  0.19495536  1
  Se  Se228  1  0.24687091  0.75224271  0.70346530  1
  Se  Se229  1  0.57304248  0.08811730  0.19685740  1
  Se  Se230  1  0.58663900  0.08049408  0.69673851  1
  Se  Se231  1  0.58621910  0.41617686  0.19456750  1
  Se  Se232  1  0.56980645  0.42187903  0.70801777  1
  Se  Se233  1  0.59330895  0.74726157  0.19465150  1
  Se  Se234  1  0.59951713  0.73480789  0.69381918  1
  Se  Se235  1  0.89916916  0.09767556  0.19307311  1
  Se  Se236  1  0.92479960  0.08196553  0.69364872  1
  Se  Se237  1  0.91074376  0.42519148  0.18868963  1
  Se  Se238  1  0.90302376  0.41854285  0.69260392  1
  Se  Se239  1  0.91203573  0.75664165  0.18473235  1
  Se  Se240  1  0.90841202  0.74658751  0.68972742  1
  Se  Se241  1  0.08442242  0.25310199  0.19398495  1
  Se  Se242  1  0.09082184  0.24500401  0.68070996  1
  Se  Se243  1  0.09344583  0.58219872  0.19634348  1
  Se  Se244  1  0.07978003  0.57546661  0.68626814  1
  Se  Se245  1  0.09407720  0.90611321  0.18597359  1
  Se  Se246  1  0.08464313  0.91509780  0.70822974  1
  Se  Se247  1  0.42624116  0.23903015  0.19356492  1
  Se  Se248  1  0.41406554  0.24990806  0.69940762  1
  Se  Se249  1  0.42193788  0.58380343  0.19492040  1
  Se  Se250  1  0.40413395  0.59854116  0.69757438  1
  Se  Se251  1  0.42847363  0.90420111  0.19329173  1
  Se  Se252  1  0.43377090  0.90874745  0.69612167  1
  Se  Se253  1  0.73367411  0.25514802  0.20417599  1
  Se  Se254  1  0.75052699  0.24719557  0.69584799  1
  Se  Se255  1  0.75025774  0.58776207  0.19414072  1
  Se  Se256  1  0.74096346  0.58401132  0.70288066  1
  Se  Se257  1  0.74933160  0.90919103  0.18327476  1
  Se  Se258  1  0.74944597  0.91405580  0.69361699  1
