# generated using pymatgen
data_In86Cu29Se144
_symmetry_space_group_name_H-M   'P 1'
_cell_length_a   17.51974530
_cell_length_b   17.51945589
_cell_length_c   23.36867670
_cell_angle_alpha   90.01192184
_cell_angle_beta   89.99692912
_cell_angle_gamma   90.02228054
_symmetry_Int_Tables_number   1
_chemical_formula_structural   In86Cu29Se144
_chemical_formula_sum   'In86 Cu29 Se144'
_cell_volume   7172.69690783
_cell_formula_units_Z   1
loop_
 _symmetry_equiv_pos_site_id
 _symmetry_equiv_pos_as_xyz
  1  'x, y, z'
loop_
 _atom_site_type_symbol
 _atom_site_label
 _atom_site_symmetry_multiplicity
 _atom_site_fract_x
 _atom_site_fract_y
 _atom_site_fract_z
 _atom_site_occupancy
  In  In0  1  -0.01177294  0.16984324  0.12996887  1
  In  In1  1  0.01053461  0.17917738  0.61587306  1
  In  In2  1  0.00208739  0.50948674  0.12194065  1
  In  In3  1  0.00294611  0.50022318  0.62997577  1
  In  In4  1  0.00352500  0.83257706  0.12256128  1
  In  In5  1  0.00257226  0.82531067  0.63033553  1
  In  In6  1  0.34535419  0.15099976  0.14862157  1
  In  In7  1  0.34599360  0.18811216  0.59413904  1
  In  In8  1  0.33777387  0.49673795  0.14163969  1
  In  In9  1  0.35453429  0.51376230  0.59294713  1
  In  In10  1  0.32248698  0.84254425  0.13745469  1
  In  In11  1  0.31644950  0.80964715  0.59400446  1
  In  In12  1  0.67057243  0.16989649  0.12654868  1
  In  In13  1  0.66743874  0.16616124  0.62128390  1
  In  In14  1  0.66533612  0.48715274  0.12323622  1
  In  In15  1  0.65864466  0.50182643  0.63500647  1
  In  In16  1  0.66951516  0.82346284  0.12405449  1
  In  In17  1  0.65363321  0.82733334  0.62155933  1
  In  In18  1  0.17160404  0.00545832  0.37495058  1
  In  In19  1  0.15087649  -0.00288080  0.87641634  1
  In  In20  1  0.20926176  0.30614118  0.41466637  1
  In  In21  1  0.16975930  0.34959230  0.86951207  1
  In  In22  1  0.19942301  0.64763574  0.40498281  1
  In  In23  1  0.17507408  0.67762131  0.86645738  1
  In  In24  1  0.46569285  0.02183059  0.39636774  1
  In  In25  1  0.51118777  0.00655600  0.87530889  1
  In  In26  1  0.49802728  0.32910373  0.37617420  1
  In  In27  1  0.50949843  0.31278680  0.87120759  1
  In  In28  1  0.46755090  0.69264595  0.40910790  1
  In  In29  1  0.49219545  0.66129433  0.86124672  1
  In  In30  1  0.85829930  0.00419182  0.36586840  1
  In  In31  1  0.82926247  0.00312503  0.88739579  1
  In  In32  1  0.81062113  0.33078215  0.37064325  1
  In  In33  1  0.83201732  0.33234025  0.87326601  1
  In  In34  1  0.83137747  0.67244780  0.37640509  1
  In  In35  1  0.83441895  0.66446616  0.87212190  1
  In  In36  1  0.01013066  0.15390599  0.37985419  1
  In  In37  1  -0.01054568  0.16085671  0.87126170  1
  In  In38  1  0.01048908  0.50788221  0.37386213  1
  In  In39  1  -0.00696443  0.48749846  0.86217302  1
  In  In40  1  0.01802744  0.86113825  0.36048393  1
  In  In41  1  0.01058178  0.82652416  0.88128287  1
  In  In42  1  0.33639329  0.16944017  0.36942413  1
  In  In43  1  0.34591603  0.17351577  0.87485790  1
  In  In44  1  0.33702370  0.49511739  0.38655656  1
  In  In45  1  0.32272402  0.50500659  0.87026195  1
  In  In46  1  0.33267486  0.84048803  0.38196423  1
  In  In47  1  0.33579677  0.82276209  0.87540371  1
  In  In48  1  0.65005992  0.17966369  0.38060835  1
  In  In49  1  0.65687247  0.17668334  0.87806611  1
  In  In50  1  0.65047605  0.47874512  0.36810486  1
  In  In51  1  0.67325917  0.50827899  0.86379990  1
  In  In52  1  0.66096417  0.82667186  0.37248000  1
  In  In53  1  0.67198440  0.83950396  0.87371992  1
  In  In54  1  0.17829468  -0.01004297  0.14026316  1
  In  In55  1  0.18937355  0.00916160  0.60434515  1
  In  In56  1  0.17552871  0.32788207  0.13595687  1
  In  In57  1  0.16505638  0.33716907  0.61301871  1
  In  In58  1  0.16288595  0.67485135  0.13109671  1
  In  In59  1  0.17005861  0.66480311  0.61840604  1
  In  In60  1  0.48683331  0.00855341  0.13404898  1
  In  In61  1  0.48934418  0.00010259  0.60324028  1
  In  In62  1  0.51312476  0.31921326  0.14777709  1
  In  In63  1  0.49768571  0.33496072  0.61635066  1
  In  In64  1  0.49768358  0.65906266  0.13225597  1
  In  In65  1  0.49536915  0.66110682  0.62150619  1
  In  In66  1  0.83582611  0.00175888  0.12675526  1
  In  In67  1  0.82157372  0.00555711  0.62189944  1
  In  In68  1  0.82754426  0.31928659  0.11701700  1
  In  In69  1  0.83895077  0.32839742  0.62898626  1
  In  In70  1  0.84312959  0.66997946  0.11159434  1
  In  In71  1  0.83604935  0.66082026  0.63751413  1
  In  In72  1  0.65893016  0.00262589  0.25192955  1
  In  In73  1  0.66415760  -0.00350627  0.74501306  1
  In  In74  1  0.00968944  0.33024567  0.25430759  1
  In  In75  1  0.00816245  0.67114120  0.24910250  1
  In  In76  1  0.83223341  0.49579596  0.50083740  1
  In  In77  1  0.16080095  0.50316915  -0.00279431  1
  In  In78  1  0.50421961  0.49906543  -0.00185150  1
  In  In79  1  0.16199755  0.16199606  0.00512073  1
  In  In80  1  0.65943953  0.66365466  0.25579420  1
  In  In81  1  0.33588737  -0.00104734  0.73826699  1
  In  In82  1  0.00052004  -0.00257150  0.74856419  1
  In  In83  1  0.50188614  0.84118765  0.00170351  1
  In  In84  1  0.33633197  0.34430813  0.73023007  1
  In  In85  1  0.83718420  0.83946699  0.49840890  1
  Cu  Cu86  1  0.17234440  0.83318043  0.74072137  1
  Cu  Cu87  1  0.32777823  0.00387849  0.01203081  1
  Cu  Cu88  1  0.66939727  0.01094256  0.00362675  1
  Cu  Cu89  1  0.18028397  0.49366693  0.26921117  1
  Cu  Cu90  1  0.48811599  0.83762513  0.26660575  1
  Cu  Cu91  1  0.17077111  0.82261676  0.25919510  1
  Cu  Cu92  1  -0.00723052  0.33275901  0.50004106  1
  Cu  Cu93  1  0.32449544  0.67528013  0.00296292  1
  Cu  Cu94  1  0.49376368  0.50840441  0.26178494  1
  Cu  Cu95  1  0.00950391  0.67861985  0.50187398  1
  Cu  Cu96  1  0.65944019  0.32717936  0.49888350  1
  Cu  Cu97  1  0.16495046  0.51052021  0.74314963  1
  Cu  Cu98  1  0.17249609  0.18200823  0.73663772  1
  Cu  Cu99  1  0.83418000  0.82166823  0.75780592  1
  Cu  Cu100  1  0.83083992  0.49726943  0.24191890  1
  Cu  Cu101  1  0.66384798  0.65454861  0.50570181  1
  Cu  Cu102  1  0.82944721  0.49716652  0.75048078  1
  Cu  Cu103  1  0.67108604  0.00674996  0.49404654  1
  Cu  Cu104  1  -0.00279478  0.33223441  -0.00535296  1
  Cu  Cu105  1  0.83329967  0.17362765  0.74992470  1
  Cu  Cu106  1  0.67632457  0.67007761  -0.00940189  1
  Cu  Cu107  1  -0.00100933  -0.00667568  0.00463274  1
  Cu  Cu108  1  0.48885696  0.82092940  0.73758892  1
  Cu  Cu109  1  0.49441280  0.49321609  0.74234600  1
  Cu  Cu110  1  0.67244173  0.33036879  0.00295491  1
  Cu  Cu111  1  0.34824993  0.32516411  0.00841883  1
  Cu  Cu112  1  -0.00634632  0.66416298  -0.00453957  1
  Cu  Cu113  1  0.82909258  0.16595774  0.25022510  1
  Cu  Cu114  1  0.00628957  0.00774469  0.49507260  1
  Se  Se115  1  0.07741714  0.07149893  0.06864769  1
  Se  Se116  1  0.09003013  0.09158630  0.54912564  1
  Se  Se117  1  0.08113314  0.40345806  0.06064851  1
  Se  Se118  1  0.07295090  0.42245129  0.55114618  1
  Se  Se119  1  0.08077218  0.74138817  0.05378169  1
  Se  Se120  1  0.08984478  0.76312044  0.55514269  1
  Se  Se121  1  0.41284367  0.09044645  0.05942847  1
  Se  Se122  1  0.38745656  0.06654578  0.53916773  1
  Se  Se123  1  0.42075225  0.41426939  0.06674410  1
  Se  Se124  1  0.39168390  0.38487448  0.54807418  1
  Se  Se125  1  0.41325692  0.74887936  0.06293635  1
  Se  Se126  1  0.43642785  0.75311509  0.54573355  1
  Se  Se127  1  0.75572468  0.08906621  0.05850914  1
  Se  Se128  1  0.75349943  0.08982825  0.54815035  1
  Se  Se129  1  0.75542412  0.41805503  0.05210542  1
  Se  Se130  1  0.74007365  0.40887445  0.56073740  1
  Se  Se131  1  0.75277924  0.75440549  0.04887709  1
  Se  Se132  1  0.75206637  0.73922089  0.55860271  1
  Se  Se133  1  0.25873330  0.24751273  0.06298102  1
  Se  Se134  1  0.23902527  0.25597055  0.53812174  1
  Se  Se135  1  0.25466489  0.58416805  0.06310608  1
  Se  Se136  1  0.24945483  0.59192119  0.54163721  1
  Se  Se137  1  0.24542525  0.91359087  0.05823090  1
  Se  Se138  1  0.26058084  0.92017597  0.53481486  1
  Se  Se139  1  0.58381675  0.25647035  0.06111248  1
  Se  Se140  1  0.57756406  0.24190217  0.55251973  1
  Se  Se141  1  0.59455823  0.59564046  0.05674918  1
  Se  Se142  1  0.58026239  0.57052087  0.55636825  1
  Se  Se143  1  0.58937889  0.93154103  0.06640288  1
  Se  Se144  1  0.59264688  0.92021657  0.54901690  1
  Se  Se145  1  0.91959925  0.24457857  0.04933710  1
  Se  Se146  1  0.90928060  0.24761568  0.55166982  1
  Se  Se147  1  0.91576841  0.57351587  0.04628622  1
  Se  Se148  1  0.92096468  0.59522535  0.55572634  1
  Se  Se149  1  0.91236585  0.91225712  0.05730738  1
  Se  Se150  1  0.92797148  0.92910595  0.56134268  1
  Se  Se151  1  0.07767796  0.24896546  0.44847976  1
  Se  Se152  1  0.08483825  0.25643563  0.93615025  1
  Se  Se153  1  0.08144556  0.58218942  0.45299239  1
  Se  Se154  1  0.07588003  0.58973217  0.93084403  1
  Se  Se155  1  0.08814806  0.91924953  0.44644310  1
  Se  Se156  1  0.08736986  0.91290500  0.95308558  1
  Se  Se157  1  0.41003827  0.25417496  0.44565554  1
  Se  Se158  1  0.42821842  0.24472952  0.95017212  1
  Se  Se159  1  0.42457260  0.56935495  0.45921266  1
  Se  Se160  1  0.40579549  0.59272628  0.94375670  1
  Se  Se161  1  0.44611171  0.89139076  0.44500151  1
  Se  Se162  1  0.40718579  0.92948670  0.94209925  1
  Se  Se163  1  0.74931105  0.24773644  0.44920817  1
  Se  Se164  1  0.75234988  0.24700418  0.94481157  1
  Se  Se165  1  0.74151335  0.58101946  0.43701032  1
  Se  Se166  1  0.75347653  0.57722274  0.94173759  1
  Se  Se167  1  0.74980106  0.92490169  0.43280261  1
  Se  Se168  1  0.74350527  0.91671352  0.95168781  1
  Se  Se169  1  0.26312848  0.07854441  0.44327494  1
  Se  Se170  1  0.25472899  0.07852460  0.93868291  1
  Se  Se171  1  0.22580675  0.44410932  0.45095361  1
  Se  Se172  1  0.26471241  0.40806718  0.94941516  1
  Se  Se173  1  0.24685164  0.76788714  0.45708277  1
  Se  Se174  1  0.24320848  0.75669701  0.94724604  1
  Se  Se175  1  0.57742604  0.09000074  0.45054046  1
  Se  Se176  1  0.58075802  0.08893752  0.95011412  1
  Se  Se177  1  0.57648005  0.41532141  0.45029195  1
  Se  Se178  1  0.59327043  0.40870118  0.93736823  1
  Se  Se179  1  0.59436599  0.74825668  0.45147954  1
  Se  Se180  1  0.58080221  0.74263118  0.93686836  1
  Se  Se181  1  0.91187330  0.08547150  0.44864712  1
  Se  Se182  1  0.92153595  0.08355237  0.95092144  1
  Se  Se183  1  0.91738868  0.41035916  0.43355953  1
  Se  Se184  1  0.91677474  0.41786828  0.94162302  1
  Se  Se185  1  0.92986535  0.75368331  0.43652202  1
  Se  Se186  1  0.91259961  0.75188890  0.94348940  1
  Se  Se187  1  0.23703405  0.25274162  0.31440533  1
  Se  Se188  1  0.25368963  0.25378904  0.80381855  1
  Se  Se189  1  0.26059791  0.58739411  0.31511723  1
  Se  Se190  1  0.25327207  0.58987815  0.79682761  1
  Se  Se191  1  0.25172726  0.91520900  0.30694067  1
  Se  Se192  1  0.24404611  0.91579510  0.80712044  1
  Se  Se193  1  0.59181101  0.26528945  0.30363454  1
  Se  Se194  1  0.58257833  0.23779117  0.79490464  1
  Se  Se195  1  0.56744327  0.59182739  0.32480082  1
  Se  Se196  1  0.57786835  0.57903742  0.79628199  1
  Se  Se197  1  0.56999372  0.92293574  0.32008990  1
  Se  Se198  1  0.56662394  0.90278287  0.80208306  1
  Se  Se199  1  0.91107985  0.24435289  0.31255818  1
  Se  Se200  1  0.92129770  0.25341142  0.80235139  1
  Se  Se201  1  0.90817090  0.57669061  0.30437812  1
  Se  Se202  1  0.91605530  0.58342589  0.80014402  1
  Se  Se203  1  0.90839917  0.90436669  0.29510037  1
  Se  Se204  1  0.90892330  0.91340277  0.81345607  1
  Se  Se205  1  0.06713001  0.06130155  0.30656716  1
  Se  Se206  1  0.09616367  0.09721142  0.79976919  1
  Se  Se207  1  0.09775734  0.40969754  0.32194577  1
  Se  Se208  1  0.08793023  0.41725676  0.79337137  1
  Se  Se209  1  0.09691542  0.73977457  0.32358866  1
  Se  Se210  1  0.08529892  0.75813167  0.79960642  1
  Se  Se211  1  0.42233784  0.08448864  0.30334811  1
  Se  Se212  1  0.42642085  0.08704223  0.80228145  1
  Se  Se213  1  0.41336357  0.41745993  0.31020651  1
  Se  Se214  1  0.41985214  0.41713106  0.81108353  1
  Se  Se215  1  0.40891174  0.74381697  0.31464044  1
  Se  Se216  1  0.40399993  0.74461147  0.79643005  1
  Se  Se217  1  0.74925677  0.08997752  0.31521430  1
  Se  Se218  1  0.75535558  0.08546159  0.80792850  1
  Se  Se219  1  0.74475551  0.41729405  0.29526173  1
  Se  Se220  1  0.74657307  0.40952521  0.80140307  1
  Se  Se221  1  0.76000276  0.76002260  0.30108969  1
  Se  Se222  1  0.74074682  0.74494967  0.80608665  1
  Se  Se223  1  0.24779359  0.07907974  0.20979473  1
  Se  Se224  1  0.25664684  0.10250861  0.67993319  1
  Se  Se225  1  0.25324821  0.41140896  0.20656498  1
  Se  Se226  1  0.24533246  0.43799878  0.67649706  1
  Se  Se227  1  0.25430798  0.74158253  0.20238018  1
  Se  Se228  1  0.25537847  0.75230809  0.68554309  1
  Se  Se229  1  0.57175171  0.10138037  0.19833507  1
  Se  Se230  1  0.57055490  0.07712642  0.68233685  1
  Se  Se231  1  0.58023751  0.43029688  0.20354025  1
  Se  Se232  1  0.57777371  0.40523990  0.69438232  1
  Se  Se233  1  0.56892602  0.76397815  0.19917075  1
  Se  Se234  1  0.58295151  0.73985959  0.69331284  1
  Se  Se235  1  0.91463995  0.08165874  0.20071517  1
  Se  Se236  1  0.91268150  0.09064537  0.68887865  1
  Se  Se237  1  0.91847199  0.41682878  0.18750102  1
  Se  Se238  1  0.91646462  0.41749791  0.69619869  1
  Se  Se239  1  0.90817698  0.75297577  0.19217932  1
  Se  Se240  1  0.92252883  0.74670046  0.70188015  1
  Se  Se241  1  0.09441368  0.23099255  0.19760464  1
  Se  Se242  1  0.08286908  0.26362158  0.69010680  1
  Se  Se243  1  0.09926580  0.56618299  0.20006015  1
  Se  Se244  1  0.08014114  0.59622391  0.69270910  1
  Se  Se245  1  0.08706738  0.90099561  0.19950967  1
  Se  Se246  1  0.10014849  0.92451662  0.68255494  1
  Se  Se247  1  0.39344794  0.27218680  0.20020888  1
  Se  Se248  1  0.42012127  0.23562513  0.68563003  1
  Se  Se249  1  0.41203300  0.59244454  0.20657921  1
  Se  Se250  1  0.40985471  0.57313542  0.68674080  1
  Se  Se251  1  0.41423210  0.91934610  0.20364930  1
  Se  Se252  1  0.41607367  0.90485758  0.67551055  1
  Se  Se253  1  0.74923900  0.25458855  0.19828252  1
  Se  Se254  1  0.74612348  0.24862774  0.69354586  1
  Se  Se255  1  0.75289592  0.58584565  0.18551715  1
  Se  Se256  1  0.74381293  0.58411125  0.70199825  1
  Se  Se257  1  0.74949840  0.91053611  0.19403804  1
  Se  Se258  1  0.75944438  0.90023392  0.69062450  1
