# generated using pymatgen
data_In86Cu29Se144
_symmetry_space_group_name_H-M   'P 1'
_cell_length_a   17.58781414
_cell_length_b   17.58905118
_cell_length_c   23.44912249
_cell_angle_alpha   89.99601043
_cell_angle_beta   89.99779750
_cell_angle_gamma   90.00867166
_symmetry_Int_Tables_number   1
_chemical_formula_structural   In86Cu29Se144
_chemical_formula_sum   'In86 Cu29 Se144'
_cell_volume   7254.05541916
_cell_formula_units_Z   1
loop_
 _symmetry_equiv_pos_site_id
 _symmetry_equiv_pos_as_xyz
  1  'x, y, z'
loop_
 _atom_site_type_symbol
 _atom_site_label
 _atom_site_symmetry_multiplicity
 _atom_site_fract_x
 _atom_site_fract_y
 _atom_site_fract_z
 _atom_site_occupancy
  In  In0  1  -0.00712444  0.16186636  0.13162550  1
  In  In1  1  0.00161621  0.16507133  0.62067112  1
  In  In2  1  0.00417052  0.50635261  0.11254973  1
  In  In3  1  0.00098779  0.47502675  0.63407267  1
  In  In4  1  0.00038866  0.84032728  0.13214205  1
  In  In5  1  0.02590050  0.86417004  0.59623377  1
  In  In6  1  0.32695081  0.15768476  0.12925273  1
  In  In7  1  0.32330783  0.15406758  0.62127514  1
  In  In8  1  0.33914696  0.51174448  0.10575529  1
  In  In9  1  0.34366338  0.50795848  0.62735878  1
  In  In10  1  0.33640647  0.83652103  0.12733068  1
  In  In11  1  0.33800775  0.83412746  0.62553573  1
  In  In12  1  0.67154805  0.16529519  0.13634409  1
  In  In13  1  0.65988556  0.16610488  0.62385298  1
  In  In14  1  0.65789939  0.48821353  0.11688395  1
  In  In15  1  0.66200061  0.49952671  0.63107357  1
  In  In16  1  0.65786802  0.84840480  0.12536812  1
  In  In17  1  0.67988458  0.84822882  0.61075724  1
  In  In18  1  0.16769762  -0.00668453  0.38353287  1
  In  In19  1  0.16900049  0.00480411  0.85718920  1
  In  In20  1  0.16520921  0.32988006  0.38647811  1
  In  In21  1  0.17210841  0.34419627  0.86525749  1
  In  In22  1  0.16586204  0.66841617  0.38415654  1
  In  In23  1  0.16945039  0.65461773  0.87137740  1
  In  In24  1  0.49982524  -0.00009337  0.37740685  1
  In  In25  1  0.49656054  -0.00450023  0.86145260  1
  In  In26  1  0.51227558  0.32494520  0.38693285  1
  In  In27  1  0.52640034  0.34260972  0.86453341  1
  In  In28  1  0.49372571  0.66970810  0.38232978  1
  In  In29  1  0.49199636  0.67190084  0.88329554  1
  In  In30  1  0.82737260  0.00436842  0.38147881  1
  In  In31  1  0.83524093  0.00817999  0.86278802  1
  In  In32  1  0.82369100  0.32086125  0.37149327  1
  In  In33  1  0.82815315  0.34019760  0.86592955  1
  In  In34  1  0.84336068  0.67410307  0.37672716  1
  In  In35  1  0.82074373  0.66534538  0.87538691  1
  In  In36  1  0.02210502  0.12878712  0.41186058  1
  In  In37  1  0.00161737  0.16812443  0.85489126  1
  In  In38  1  0.00640131  0.50668048  0.37693549  1
  In  In39  1  0.00012599  0.49487457  0.86921453  1
  In  In40  1  -0.03247872  0.87762609  0.42415674  1
  In  In41  1  -0.00057610  0.84684508  0.86717162  1
  In  In42  1  0.34768230  0.15663438  0.38811766  1
  In  In43  1  0.34523925  0.16036425  0.85803744  1
  In  In44  1  0.33438081  0.49824927  0.38425560  1
  In  In45  1  0.32881837  0.50910310  0.87920893  1
  In  In46  1  0.32193863  0.84431260  0.38563899  1
  In  In47  1  0.34365496  0.84132464  0.86447650  1
  In  In48  1  0.66702557  0.16695297  0.37926578  1
  In  In49  1  0.66377782  0.17710777  0.85882526  1
  In  In50  1  0.67291469  0.48165133  0.37366148  1
  In  In51  1  0.67015620  0.48656442  0.89130736  1
  In  In52  1  0.65423329  0.83694761  0.38098323  1
  In  In53  1  0.65841654  0.82576586  0.87158925  1
  In  In54  1  0.16737151  -0.00217846  0.14001122  1
  In  In55  1  0.16602222  0.01103377  0.62488164  1
  In  In56  1  0.15735009  0.33805860  0.12324862  1
  In  In57  1  0.15444481  0.31890725  0.61702510  1
  In  In58  1  0.17350641  0.66507481  0.12074928  1
  In  In59  1  0.18088743  0.67607742  0.62247758  1
  In  In60  1  0.50815880  -0.00135510  0.13021739  1
  In  In61  1  0.50316648  0.00267651  0.62426560  1
  In  In62  1  0.50602468  0.34014625  0.12239340  1
  In  In63  1  0.50474851  0.34088957  0.62265021  1
  In  In64  1  0.49489000  0.67069206  0.11684321  1
  In  In65  1  0.49637782  0.66095399  0.62360995  1
  In  In66  1  0.82756100  0.00067705  0.13983239  1
  In  In67  1  0.83502447  0.00261949  0.61570104  1
  In  In68  1  0.82560336  0.32902944  0.12141348  1
  In  In69  1  0.84884140  0.32067603  0.64264309  1
  In  In70  1  0.84438250  0.66223975  0.12327092  1
  In  In71  1  0.82801961  0.67432851  0.62426391  1
  In  In72  1  0.66243107  0.66578662  0.74952502  1
  In  In73  1  0.82618059  0.83101185  0.00254123  1
  In  In74  1  0.82830423  0.16832602  -0.00883927  1
  In  In75  1  0.17289893  0.82734960  0.00021760  1
  In  In76  1  0.83305353  0.49936079  0.50101007  1
  In  In77  1  0.50271404  0.17372199  -0.00806728  1
  In  In78  1  -0.00736358  0.32412712  0.25287561  1
  In  In79  1  0.32723102  0.32602272  0.74472088  1
  In  In80  1  0.17003517  0.17003498  -0.00881206  1
  In  In81  1  0.33730338  0.32892558  0.24867584  1
  In  In82  1  -0.00007442  0.67493197  0.74849882  1
  In  In83  1  0.00123595  0.67705039  0.25275393  1
  In  In84  1  0.33296091  0.67026848  0.24149128  1
  In  In85  1  0.66806038  0.67109558  0.25545055  1
  Cu  Cu86  1  0.66202105  -0.00113284  -0.00200455  1
  Cu  Cu87  1  0.50742070  0.49097566  0.25009888  1
  Cu  Cu88  1  0.50724633  0.16259610  0.25921048  1
  Cu  Cu89  1  0.82640478  0.16734283  0.74090535  1
  Cu  Cu90  1  -0.00263208  0.66231471  -0.00705625  1
  Cu  Cu91  1  0.49369298  0.84246233  0.25322668  1
  Cu  Cu92  1  0.65858200  0.00639200  0.49971913  1
  Cu  Cu93  1  0.84006519  0.15942061  0.25981054  1
  Cu  Cu94  1  0.33211376  0.33738533  -0.00810491  1
  Cu  Cu95  1  0.17602372  0.83869138  0.73911921  1
  Cu  Cu96  1  0.15348770  0.84215791  0.26356042  1
  Cu  Cu97  1  0.16600166  0.49839901  0.74888316  1
  Cu  Cu98  1  0.33775610  0.66151644  0.50372594  1
  Cu  Cu99  1  0.00675006  0.65633848  0.50487930  1
  Cu  Cu100  1  0.00549621  0.00229644  0.00135985  1
  Cu  Cu101  1  0.50779298  0.83556276  0.74467634  1
  Cu  Cu102  1  0.66843284  0.33441433  0.50501213  1
  Cu  Cu103  1  0.33155146  0.33830964  0.50730974  1
  Cu  Cu104  1  0.16942203  0.15689899  0.26406098  1
  Cu  Cu105  1  0.34359984  -0.00394381  -0.00726919  1
  Cu  Cu106  1  0.49966704  0.50262717  0.75346702  1
  Cu  Cu107  1  0.84182584  0.84232417  0.73753473  1
  Cu  Cu108  1  0.82876997  0.49467746  0.24418358  1
  Cu  Cu109  1  -0.00201023  0.34021373  -0.00702814  1
  Cu  Cu110  1  0.33533226  -0.00348856  0.50513771  1
  Cu  Cu111  1  -0.00402748  0.33204714  0.50407124  1
  Cu  Cu112  1  0.66193160  0.66455019  0.50336314  1
  Cu  Cu113  1  0.66008153  0.66120086  -0.00020501  1
  Cu  Cu114  1  0.17286219  0.49764912  0.24918636  1
  Se  Se115  1  0.08517066  0.08177286  0.06077919  1
  Se  Se116  1  0.07523763  0.07591163  0.55062381  1
  Se  Se117  1  0.08582188  0.41740889  0.04785289  1
  Se  Se118  1  0.08138377  0.41794008  0.55222278  1
  Se  Se119  1  0.06890072  0.74475630  0.05784641  1
  Se  Se120  1  0.08995620  0.74492942  0.55162284  1
  Se  Se121  1  0.41395741  0.08200786  0.05538501  1
  Se  Se122  1  0.41857199  0.08410248  0.55397204  1
  Se  Se123  1  0.41756137  0.41026870  0.05127534  1
  Se  Se124  1  0.41872983  0.42248579  0.55560010  1
  Se  Se125  1  0.39284301  0.74078178  0.05766740  1
  Se  Se126  1  0.41858749  0.74886164  0.55557032  1
  Se  Se127  1  0.74638200  0.07550525  0.05829703  1
  Se  Se128  1  0.74481770  0.08684194  0.55262636  1
  Se  Se129  1  0.75930296  0.42143708  0.05448092  1
  Se  Se130  1  0.75116495  0.41072978  0.56621592  1
  Se  Se131  1  0.73723357  0.74115897  0.06398322  1
  Se  Se132  1  0.75261983  0.74816733  0.54778687  1
  Se  Se133  1  0.25801333  0.25783164  0.05727955  1
  Se  Se134  1  0.24970099  0.24654698  0.55249565  1
  Se  Se135  1  0.23822224  0.58151099  0.04669877  1
  Se  Se136  1  0.25286710  0.58017221  0.55704059  1
  Se  Se137  1  0.25336914  0.93126403  0.05721510  1
  Se  Se138  1  0.25051022  0.91878538  0.56092131  1
  Se  Se139  1  0.59579999  0.24980323  0.05943393  1
  Se  Se140  1  0.58010128  0.25187902  0.55355163  1
  Se  Se141  1  0.57686954  0.58046793  0.05468202  1
  Se  Se142  1  0.58422146  0.57807945  0.55752055  1
  Se  Se143  1  0.57574142  0.91881535  0.05054538  1
  Se  Se144  1  0.57709812  0.91619930  0.54986131  1
  Se  Se145  1  0.92742572  0.25190349  0.05398097  1
  Se  Se146  1  0.91034834  0.25186827  0.55687181  1
  Se  Se147  1  0.91194232  0.58158827  0.04638166  1
  Se  Se148  1  0.92409704  0.58165455  0.56629734  1
  Se  Se149  1  0.91910395  0.92683311  0.05896416  1
  Se  Se150  1  0.90665428  0.91089693  0.54320163  1
  Se  Se151  1  0.08600187  0.24839703  0.45698063  1
  Se  Se152  1  0.07467408  0.25615859  0.93311733  1
  Se  Se153  1  0.08999345  0.57477442  0.45038373  1
  Se  Se154  1  0.08016727  0.58089175  0.93902836  1
  Se  Se155  1  0.10330949  0.90365802  0.45839827  1
  Se  Se156  1  0.08610411  0.92477607  0.94074441  1
  Se  Se157  1  0.41558597  0.25630602  0.45244387  1
  Se  Se158  1  0.40801263  0.25700639  0.93064065  1
  Se  Se159  1  0.42164165  0.57800704  0.45012549  1
  Se  Se160  1  0.42198428  0.57541511  0.94725125  1
  Se  Se161  1  0.41931093  0.91608254  0.44868215  1
  Se  Se162  1  0.42592421  0.91492646  0.93975181  1
  Se  Se163  1  0.74939124  0.25044896  0.45023103  1
  Se  Se164  1  0.73556514  0.25879493  0.93816738  1
  Se  Se165  1  0.74319344  0.58964916  0.43813680  1
  Se  Se166  1  0.75060005  0.58417529  0.94962906  1
  Se  Se167  1  0.73967685  0.91926501  0.44772779  1
  Se  Se168  1  0.74752210  0.92480190  0.93689543  1
  Se  Se169  1  0.25202960  0.08073287  0.45041935  1
  Se  Se170  1  0.26118876  0.07590553  0.93480577  1
  Se  Se171  1  0.24747812  0.41839318  0.45035209  1
  Se  Se172  1  0.24378097  0.41858388  0.94273852  1
  Se  Se173  1  0.25471138  0.74552929  0.45071220  1
  Se  Se174  1  0.25800315  0.74762379  0.93236382  1
  Se  Se175  1  0.57550088  0.09021404  0.44625082  1
  Se  Se176  1  0.59062135  0.07955946  0.93342316  1
  Se  Se177  1  0.58833808  0.42053333  0.45131322  1
  Se  Se178  1  0.56925691  0.41625797  0.95233008  1
  Se  Se179  1  0.57832964  0.74918813  0.45039277  1
  Se  Se180  1  0.58370178  0.75279614  0.94857589  1
  Se  Se181  1  0.89557654  0.09233905  0.45636993  1
  Se  Se182  1  0.92820633  0.07962091  0.93789389  1
  Se  Se183  1  0.92063042  0.40855347  0.43667487  1
  Se  Se184  1  0.91216695  0.41703161  0.93820146  1
  Se  Se185  1  0.92098387  0.73953166  0.45430224  1
  Se  Se186  1  0.92260024  0.75040131  0.93676916  1
  Se  Se187  1  0.24944467  0.24471391  0.31577351  1
  Se  Se188  1  0.23438842  0.23538494  0.80362176  1
  Se  Se189  1  0.24890354  0.58036323  0.30870744  1
  Se  Se190  1  0.25291356  0.58070779  0.79876047  1
  Se  Se191  1  0.25053771  0.91923796  0.30726470  1
  Se  Se192  1  0.25792942  0.92012577  0.79625813  1
  Se  Se193  1  0.58653113  0.25330009  0.30782839  1
  Se  Se194  1  0.54998214  0.22792911  0.80057683  1
  Se  Se195  1  0.57727783  0.57675001  0.31262667  1
  Se  Se196  1  0.58063973  0.57997530  0.81639725  1
  Se  Se197  1  0.58257718  0.91877957  0.30566181  1
  Se  Se198  1  0.59284013  0.91507726  0.79992455  1
  Se  Se199  1  0.92433800  0.23097761  0.32204774  1
  Se  Se200  1  0.90593347  0.25089992  0.79887464  1
  Se  Se201  1  0.90919089  0.57372242  0.30440791  1
  Se  Se202  1  0.90767100  0.58525309  0.80664514  1
  Se  Se203  1  0.92060142  0.91608898  0.32492178  1
  Se  Se204  1  0.92077702  0.92513118  0.79603566  1
  Se  Se205  1  0.08133800  0.07966236  0.31709116  1
  Se  Se206  1  0.07136389  0.07072387  0.79341417  1
  Se  Se207  1  0.09072393  0.41832539  0.30677480  1
  Se  Se208  1  0.07940336  0.41396995  0.79645362  1
  Se  Se209  1  0.07934846  0.75939459  0.32288642  1
  Se  Se210  1  0.09767856  0.76253999  0.80743147  1
  Se  Se211  1  0.41606491  0.08304807  0.30700456  1
  Se  Se212  1  0.42038435  0.07709462  0.78939077  1
  Se  Se213  1  0.42328805  0.41796284  0.31208816  1
  Se  Se214  1  0.41449146  0.41796750  0.80835024  1
  Se  Se215  1  0.41478415  0.75733639  0.30976368  1
  Se  Se216  1  0.42884658  0.75156621  0.80206506  1
  Se  Se217  1  0.74603748  0.08327040  0.30787049  1
  Se  Se218  1  0.74539035  0.08492034  0.79759821  1
  Se  Se219  1  0.75245468  0.40815857  0.29857244  1
  Se  Se220  1  0.72604405  0.41263443  0.80677215  1
  Se  Se221  1  0.75758247  0.76143906  0.31290847  1
  Se  Se222  1  0.76230494  0.76282943  0.80026184  1
  Se  Se223  1  0.25428107  0.08025068  0.20540960  1
  Se  Se224  1  0.24505478  0.08723374  0.69955981  1
  Se  Se225  1  0.25215233  0.42365124  0.18561085  1
  Se  Se226  1  0.24213925  0.41910569  0.68376166  1
  Se  Se227  1  0.23003070  0.76467714  0.19592000  1
  Se  Se228  1  0.26065559  0.74730172  0.69812463  1
  Se  Se229  1  0.58825080  0.07999287  0.20103877  1
  Se  Se230  1  0.59769585  0.06918841  0.69337973  1
  Se  Se231  1  0.59044094  0.40932747  0.19729345  1
  Se  Se232  1  0.58080146  0.41741546  0.70083059  1
  Se  Se233  1  0.57009297  0.75480595  0.19443952  1
  Se  Se234  1  0.58810552  0.75856544  0.68205257  1
  Se  Se235  1  0.92189171  0.07750955  0.20353119  1
  Se  Se236  1  0.91215248  0.08495823  0.68863908  1
  Se  Se237  1  0.92021179  0.42361214  0.18682150  1
  Se  Se238  1  0.90496615  0.42631653  0.70673046  1
  Se  Se239  1  0.90233164  0.76207377  0.19565950  1
  Se  Se240  1  0.92377448  0.76409883  0.67956790  1
  Se  Se241  1  0.09639352  0.23734420  0.19696247  1
  Se  Se242  1  0.06709848  0.25919832  0.69189498  1
  Se  Se243  1  0.08937336  0.57962752  0.19307828  1
  Se  Se244  1  0.08737963  0.58205574  0.68797980  1
  Se  Se245  1  0.07329694  0.92345511  0.20451354  1
  Se  Se246  1  0.08425253  0.91588260  0.68957107  1
  Se  Se247  1  0.43051651  0.23712808  0.18993733  1
  Se  Se248  1  0.41860270  0.24431326  0.68269365  1
  Se  Se249  1  0.42574772  0.57050641  0.19105887  1
  Se  Se250  1  0.41853999  0.58910769  0.70216412  1
  Se  Se251  1  0.41282045  0.92308661  0.19552203  1
  Se  Se252  1  0.42091485  0.91746995  0.69401506  1
  Se  Se253  1  0.76467256  0.24416088  0.19960713  1
  Se  Se254  1  0.73770454  0.25342712  0.69551834  1
  Se  Se255  1  0.75076611  0.58076619  0.18891780  1
  Se  Se256  1  0.76065102  0.57873378  0.69476876  1
  Se  Se257  1  0.74572580  0.90947721  0.19838401  1
  Se  Se258  1  0.75211665  0.92252340  0.68923200  1
