# generated using pymatgen
data_In86Cu29Se144
_symmetry_space_group_name_H-M   'P 1'
_cell_length_a   17.58916695
_cell_length_b   17.59010739
_cell_length_c   23.45230387
_cell_angle_alpha   89.97451131
_cell_angle_beta   90.02343228
_cell_angle_gamma   90.02118345
_symmetry_Int_Tables_number   1
_chemical_formula_structural   In86Cu29Se144
_chemical_formula_sum   'In86 Cu29 Se144'
_cell_volume   7256.03160634
_cell_formula_units_Z   1
loop_
 _symmetry_equiv_pos_site_id
 _symmetry_equiv_pos_as_xyz
  1  'x, y, z'
loop_
 _atom_site_type_symbol
 _atom_site_label
 _atom_site_symmetry_multiplicity
 _atom_site_fract_x
 _atom_site_fract_y
 _atom_site_fract_z
 _atom_site_occupancy
  In  In0  1  -0.01509241  0.16744223  0.11897307  1
  In  In1  1  0.00324874  0.16265508  0.63695760  1
  In  In2  1  0.00647278  0.48162623  0.12359199  1
  In  In3  1  0.00105141  0.50533250  0.62874602  1
  In  In4  1  0.01425102  0.82740244  0.12314849  1
  In  In5  1  0.00203869  0.83122995  0.62589995  1
  In  In6  1  0.35026226  0.15599741  0.14667286  1
  In  In7  1  0.32233149  0.16627032  0.62559283  1
  In  In8  1  0.33120625  0.50197955  0.13440798  1
  In  In9  1  0.34567304  0.50367433  0.61446409  1
  In  In10  1  0.32652199  0.84098529  0.13602022  1
  In  In11  1  0.32386929  0.83652523  0.61964019  1
  In  In12  1  0.67715124  0.16087167  0.13108194  1
  In  In13  1  0.67254590  0.16830604  0.62724124  1
  In  In14  1  0.65272175  0.50380167  0.12983658  1
  In  In15  1  0.66778315  0.49704555  0.61998779  1
  In  In16  1  0.67078430  0.84297754  0.13060255  1
  In  In17  1  0.65432614  0.81908173  0.61365040  1
  In  In18  1  0.16289788  -0.00856342  0.37173335  1
  In  In19  1  0.15879623  -0.01422177  0.87304655  1
  In  In20  1  0.18055483  0.33524997  0.37989687  1
  In  In21  1  0.17156814  0.34986903  0.87300321  1
  In  In22  1  0.17962443  0.65935815  0.38737890  1
  In  In23  1  0.16905143  0.66920670  0.87020033  1
  In  In24  1  0.48036059  -0.03060656  0.34541715  1
  In  In25  1  0.49426937  0.00988665  0.87290447  1
  In  In26  1  0.50149778  0.33939072  0.37625691  1
  In  In27  1  0.50944232  0.32500572  0.87017090  1
  In  In28  1  0.48570114  0.68208234  0.38346537  1
  In  In29  1  0.49966763  0.66715044  0.86104208  1
  In  In30  1  0.82629693  -0.00179595  0.36928479  1
  In  In31  1  0.84122336  -0.00131561  0.87728300  1
  In  In32  1  0.82148753  0.34478188  0.38571208  1
  In  In33  1  0.83552837  0.33409467  0.87126539  1
  In  In34  1  0.83213467  0.66376939  0.38994610  1
  In  In35  1  0.83348446  0.66540060  0.85863467  1
  In  In36  1  0.01082327  0.16083688  0.37258864  1
  In  In37  1  -0.00838612  0.15620541  0.87151270  1
  In  In38  1  -0.00110906  0.50146655  0.38887264  1
  In  In39  1  0.03055415  0.52069917  0.84468250  1
  In  In40  1  -0.00528945  0.83713407  0.38478120  1
  In  In41  1  0.00255141  0.84276520  0.86746074  1
  In  In42  1  0.34434537  0.15964190  0.35970733  1
  In  In43  1  0.34932297  0.16079462  0.87544825  1
  In  In44  1  0.32953296  0.50605406  0.38427339  1
  In  In45  1  0.31879746  0.50231964  0.87305787  1
  In  In46  1  0.33647580  0.83102546  0.37632928  1
  In  In47  1  0.32450569  0.82003640  0.86654092  1
  In  In48  1  0.65357580  0.16666623  0.36158600  1
  In  In49  1  0.66424435  0.18268128  0.87708934  1
  In  In50  1  0.66140897  0.48618477  0.39123642  1
  In  In51  1  0.66920093  0.49991743  0.86268155  1
  In  In52  1  0.65811161  0.84327063  0.38453605  1
  In  In53  1  0.67635511  0.83436213  0.86947973  1
  In  In54  1  0.17516866  -0.01288983  0.13158826  1
  In  In55  1  0.17960596  -0.01201319  0.63167858  1
  In  In56  1  0.17209492  0.34232044  0.12231352  1
  In  In57  1  0.15921236  0.33401958  0.62833715  1
  In  In58  1  0.17270960  0.67190380  0.11496966  1
  In  In59  1  0.16423460  0.66621260  0.62873167  1
  In  In60  1  0.50441603  -0.00550447  0.13747924  1
  In  In61  1  0.48791916  -0.01726360  0.61110928  1
  In  In62  1  0.51666120  0.30935186  0.16070099  1
  In  In63  1  0.50835353  0.34989605  0.61011120  1
  In  In64  1  0.49326826  0.65634260  0.12881354  1
  In  In65  1  0.49777433  0.66795422  0.62509304  1
  In  In66  1  0.82225619  0.01775764  0.13252503  1
  In  In67  1  0.84599409  0.00225131  0.62422378  1
  In  In68  1  0.84138703  0.32275714  0.12442508  1
  In  In69  1  0.82071094  0.34572154  0.62837295  1
  In  In70  1  0.83178846  0.67072802  0.12330877  1
  In  In71  1  0.83335285  0.66301240  0.62400486  1
  In  In72  1  0.66629412  -0.00173093  0.74714303  1
  In  In73  1  0.17117743  0.16675093  0.49553288  1
  In  In74  1  0.84254953  0.84257993  -0.00787956  1
  In  In75  1  0.48853094  0.49632323  0.00524572  1
  In  In76  1  0.00503196  0.66634844  0.25094295  1
  In  In77  1  0.65585973  0.67403267  0.26103800  1
  In  In78  1  0.49684282  0.16225887  0.48775264  1
  In  In79  1  0.84185226  0.49642347  -0.00428334  1
  In  In80  1  0.16982577  0.16777921  0.00202573  1
  In  In81  1  0.33833523  0.33493192  0.74467604  1
  In  In82  1  0.83266207  0.16673329  0.49555104  1
  In  In83  1  0.49619126  0.83882028  0.01105841  1
  In  In84  1  0.50535554  0.16516543  0.01214073  1
  In  In85  1  0.00218746  0.32813082  0.24916280  1
  Cu  Cu86  1  0.66826808  0.67649611  -0.01007926  1
  Cu  Cu87  1  0.49351045  0.49990663  0.25946338  1
  Cu  Cu88  1  0.00889148  -0.00534724  0.50445487  1
  Cu  Cu89  1  0.17005620  0.16158032  0.75541826  1
  Cu  Cu90  1  0.66753374  0.65946484  0.50219143  1
  Cu  Cu91  1  0.00816244  0.65932859  -0.00795613  1
  Cu  Cu92  1  0.32706126  -0.01094978  0.00367684  1
  Cu  Cu93  1  0.50054242  0.16513055  0.74514142  1
  Cu  Cu94  1  0.50255061  0.49949008  0.74046247  1
  Cu  Cu95  1  0.82057318  0.50211246  0.26014251  1
  Cu  Cu96  1  0.16912113  0.50405791  0.25784245  1
  Cu  Cu97  1  0.00457478  0.33718510  -0.00858780  1
  Cu  Cu98  1  0.83142260  0.49334185  0.74257740  1
  Cu  Cu99  1  -0.00642815  0.33566861  0.50960793  1
  Cu  Cu100  1  0.83478872  0.16966864  0.74992100  1
  Cu  Cu101  1  0.33532787  0.33652538  0.00797186  1
  Cu  Cu102  1  0.00232931  0.66865358  0.50883420  1
  Cu  Cu103  1  0.67331637  0.33730505  -0.00047882  1
  Cu  Cu104  1  0.16960761  0.82741542  0.25345164  1
  Cu  Cu105  1  0.66651215  -0.00691868  0.49227316  1
  Cu  Cu106  1  0.82847597  0.82881732  0.74260655  1
  Cu  Cu107  1  0.00004069  -0.00174768  -0.00255249  1
  Cu  Cu108  1  0.16713981  0.83433303  0.74733646  1
  Cu  Cu109  1  0.83471660  0.84210784  0.25781495  1
  Cu  Cu110  1  0.16508109  0.15821466  0.24952951  1
  Cu  Cu111  1  0.33285560  0.67442198  0.50575781  1
  Cu  Cu112  1  0.83513625  0.17169254  0.25231672  1
  Cu  Cu113  1  0.49410612  0.83233597  0.73908145  1
  Cu  Cu114  1  0.32277567  0.66394295  -0.00258713  1
  Se  Se115  1  0.08092938  0.07529504  0.06130956  1
  Se  Se116  1  0.08282562  0.08182290  0.56176781  1
  Se  Se117  1  0.08892425  0.41558186  0.04758353  1
  Se  Se118  1  0.08081435  0.41779993  0.55872911  1
  Se  Se119  1  0.08351993  0.74750795  0.04671879  1
  Se  Se120  1  0.08872235  0.75371947  0.55648889  1
  Se  Se121  1  0.40874001  0.06942741  0.06198355  1
  Se  Se122  1  0.40374897  0.08146176  0.55344441  1
  Se  Se123  1  0.41824483  0.40413515  0.07403850  1
  Se  Se124  1  0.41593969  0.41587602  0.54189414  1
  Se  Se125  1  0.40520202  0.73937724  0.06084019  1
  Se  Se126  1  0.41965206  0.75650271  0.55685133  1
  Se  Se127  1  0.75577345  0.09403477  0.05367119  1
  Se  Se128  1  0.74263873  0.07269100  0.55555314  1
  Se  Se129  1  0.74610224  0.42025442  0.06311929  1
  Se  Se130  1  0.74458411  0.41001513  0.54970918  1
  Se  Se131  1  0.74489997  0.75229700  0.05362795  1
  Se  Se132  1  0.75261471  0.74622557  0.55199471  1
  Se  Se133  1  0.26427798  0.24572626  0.06615473  1
  Se  Se134  1  0.25462215  0.26209812  0.55596655  1
  Se  Se135  1  0.25223930  0.57436037  0.05560467  1
  Se  Se136  1  0.25019108  0.58822233  0.55708627  1
  Se  Se137  1  0.24579957  0.90506718  0.05562344  1
  Se  Se138  1  0.25149691  0.92646173  0.54969134  1
  Se  Se139  1  0.58993296  0.26707262  0.06446890  1
  Se  Se140  1  0.58908879  0.24494228  0.55413850  1
  Se  Se141  1  0.59021990  0.59529832  0.05177476  1
  Se  Se142  1  0.57949096  0.58297985  0.55646780  1
  Se  Se143  1  0.59524747  0.93202008  0.05814309  1
  Se  Se144  1  0.58193265  0.91172038  0.54568954  1
  Se  Se145  1  0.91954518  0.25667170  0.04520075  1
  Se  Se146  1  0.91878149  0.24728976  0.56521875  1
  Se  Se147  1  0.92896772  0.58994920  0.06027612  1
  Se  Se148  1  0.91626862  0.58046344  0.55483945  1
  Se  Se149  1  0.92208305  0.92290287  0.06562339  1
  Se  Se150  1  0.91875211  0.91518135  0.55466585  1
  Se  Se151  1  0.07150367  0.26035199  0.44393580  1
  Se  Se152  1  0.08411404  0.25193681  0.93523250  1
  Se  Se153  1  0.08331274  0.58661521  0.45209520  1
  Se  Se154  1  0.08902549  0.57680435  0.93707778  1
  Se  Se155  1  0.09026147  0.91295048  0.44908175  1
  Se  Se156  1  0.08061625  0.90986647  0.94812214  1
  Se  Se157  1  0.40130732  0.25389904  0.43677961  1
  Se  Se158  1  0.41700124  0.25902750  0.94761375  1
  Se  Se159  1  0.41472184  0.58988314  0.45180855  1
  Se  Se160  1  0.41404754  0.59221009  0.93966606  1
  Se  Se161  1  0.42610946  0.91763290  0.43797884  1
  Se  Se162  1  0.41045575  0.91886769  0.93896981  1
  Se  Se163  1  0.73227181  0.24860094  0.44142096  1
  Se  Se164  1  0.75439628  0.25531787  0.94556268  1
  Se  Se165  1  0.75075599  0.57340089  0.45202573  1
  Se  Se166  1  0.74750584  0.58866549  0.93765914  1
  Se  Se167  1  0.76053165  0.91445211  0.44633540  1
  Se  Se168  1  0.73787395  0.92916641  0.94350763  1
  Se  Se169  1  0.25779223  0.07917622  0.43341471  1
  Se  Se170  1  0.25763467  0.07609594  0.94077948  1
  Se  Se171  1  0.23026333  0.43506117  0.44905100  1
  Se  Se172  1  0.25489976  0.41702626  0.95028947  1
  Se  Se173  1  0.25047683  0.75757258  0.45067280  1
  Se  Se174  1  0.24571068  0.75214694  0.94492083  1
  Se  Se175  1  0.58672149  0.07035899  0.43192674  1
  Se  Se176  1  0.58902458  0.08144273  0.94193632  1
  Se  Se177  1  0.56231763  0.41969730  0.45739152  1
  Se  Se178  1  0.58945657  0.41595674  0.94167438  1
  Se  Se179  1  0.58747753  0.74649917  0.44876523  1
  Se  Se180  1  0.58007936  0.75414100  0.93706441  1
  Se  Se181  1  0.92869314  0.07478529  0.44262592  1
  Se  Se182  1  0.91505723  0.08334203  0.94993652  1
  Se  Se183  1  0.91233100  0.41712952  0.45315450  1
  Se  Se184  1  0.93344524  0.42157600  0.92923856  1
  Se  Se185  1  0.91758667  0.74939696  0.45297020  1
  Se  Se186  1  0.92095872  0.73833520  0.93578052  1
  Se  Se187  1  0.24066192  0.24243256  0.30721761  1
  Se  Se188  1  0.25380900  0.24444417  0.81294496  1
  Se  Se189  1  0.25271850  0.58836190  0.30791105  1
  Se  Se190  1  0.25504538  0.58972212  0.80178505  1
  Se  Se191  1  0.25141928  0.91302993  0.30498036  1
  Se  Se192  1  0.25089658  0.91719171  0.80305597  1
  Se  Se193  1  0.57694322  0.26108405  0.30054722  1
  Se  Se194  1  0.58625032  0.24798692  0.79615790  1
  Se  Se195  1  0.57612960  0.57826643  0.32164488  1
  Se  Se196  1  0.58499134  0.58316268  0.79722085  1
  Se  Se197  1  0.60176505  0.91446643  0.29874485  1
  Se  Se198  1  0.57121326  0.90978444  0.80608100  1
  Se  Se199  1  0.90979274  0.25004583  0.31742141  1
  Se  Se200  1  0.91995459  0.24980313  0.80428003  1
  Se  Se201  1  0.91060118  0.57875994  0.31205705  1
  Se  Se202  1  0.91454356  0.58092523  0.79267512  1
  Se  Se203  1  0.92475392  0.92014993  0.30853301  1
  Se  Se204  1  0.90496222  0.91277521  0.80172033  1
  Se  Se205  1  0.08039086  0.07563766  0.30080756  1
  Se  Se206  1  0.08469434  0.07938846  0.80732592  1
  Se  Se207  1  0.08257565  0.42365974  0.31138587  1
  Se  Se208  1  0.08992534  0.40605675  0.79363928  1
  Se  Se209  1  0.08927420  0.75127020  0.31663596  1
  Se  Se210  1  0.08296526  0.75381031  0.80309405  1
  Se  Se211  1  0.43264435  0.08826844  0.29127893  1
  Se  Se212  1  0.41581983  0.08218170  0.79684615  1
  Se  Se213  1  0.40848360  0.42032079  0.31352424  1
  Se  Se214  1  0.42701777  0.42444033  0.81084897  1
  Se  Se215  1  0.41756165  0.75230000  0.30301604  1
  Se  Se216  1  0.41327899  0.74820402  0.79597348  1
  Se  Se217  1  0.74963302  0.08629969  0.30154737  1
  Se  Se218  1  0.75186115  0.08962775  0.81016475  1
  Se  Se219  1  0.73981329  0.41615496  0.31081032  1
  Se  Se220  1  0.75033150  0.41113300  0.80035099  1
  Se  Se221  1  0.75951610  0.75406826  0.31548364  1
  Se  Se222  1  0.74281139  0.74818592  0.79653548  1
  Se  Se223  1  0.25192827  0.07376667  0.20072529  1
  Se  Se224  1  0.25273324  0.08234350  0.69957507  1
  Se  Se225  1  0.24449436  0.41691736  0.20075605  1
  Se  Se226  1  0.25104121  0.42574161  0.68726665  1
  Se  Se227  1  0.24567832  0.74307309  0.19496627  1
  Se  Se228  1  0.25115940  0.75259545  0.69376198  1
  Se  Se229  1  0.56201548  0.11160560  0.18884672  1
  Se  Se230  1  0.57231492  0.07963299  0.68258793  1
  Se  Se231  1  0.58548236  0.42478999  0.20697767  1
  Se  Se232  1  0.58495569  0.41223475  0.69175294  1
  Se  Se233  1  0.57538465  0.75657089  0.18868421  1
  Se  Se234  1  0.58449633  0.74857752  0.69532825  1
  Se  Se235  1  0.91940241  0.08891954  0.19860588  1
  Se  Se236  1  0.91590187  0.07923496  0.70196158  1
  Se  Se237  1  0.90482240  0.42594836  0.19747068  1
  Se  Se238  1  0.92022392  0.41161820  0.69327405  1
  Se  Se239  1  0.90777491  0.75856670  0.19434254  1
  Se  Se240  1  0.91584195  0.74778006  0.69294408  1
  Se  Se241  1  0.09124270  0.24011393  0.18552886  1
  Se  Se242  1  0.08993106  0.24635329  0.70106405  1
  Se  Se243  1  0.08903636  0.57336983  0.18905963  1
  Se  Se244  1  0.07284728  0.59501614  0.69833852  1
  Se  Se245  1  0.08458242  0.90855588  0.19860933  1
  Se  Se246  1  0.08100258  0.91848221  0.69608776  1
  Se  Se247  1  0.38701718  0.27580373  0.20245806  1
  Se  Se248  1  0.42758689  0.24786604  0.68160542  1
  Se  Se249  1  0.41459769  0.58401560  0.20384012  1
  Se  Se250  1  0.41470029  0.58227905  0.69337902  1
  Se  Se251  1  0.42167297  0.91000642  0.20093531  1
  Se  Se252  1  0.41050992  0.91845396  0.69103558  1
  Se  Se253  1  0.75435230  0.25473255  0.19649488  1
  Se  Se254  1  0.74952421  0.25052251  0.69713811  1
  Se  Se255  1  0.75152219  0.58571573  0.19564761  1
  Se  Se256  1  0.74770855  0.57963730  0.69156913  1
  Se  Se257  1  0.75263044  0.92179981  0.20002654  1
  Se  Se258  1  0.75020352  0.91009965  0.68213216  1
