# generated using pymatgen
data_In86Cu29Se144
_symmetry_space_group_name_H-M   'P 1'
_cell_length_a   17.55884725
_cell_length_b   17.55606785
_cell_length_c   23.40051034
_cell_angle_alpha   90.00999584
_cell_angle_beta   90.00990859
_cell_angle_gamma   90.01405062
_symmetry_Int_Tables_number   1
_chemical_formula_structural   In86Cu29Se144
_chemical_formula_sum   'In86 Cu29 Se144'
_cell_volume   7213.54182263
_cell_formula_units_Z   1
loop_
 _symmetry_equiv_pos_site_id
 _symmetry_equiv_pos_as_xyz
  1  'x, y, z'
loop_
 _atom_site_type_symbol
 _atom_site_label
 _atom_site_symmetry_multiplicity
 _atom_site_fract_x
 _atom_site_fract_y
 _atom_site_fract_z
 _atom_site_occupancy
  In  In0  1  0.00699506  0.17764524  0.12004701  1
  In  In1  1  -0.00247245  0.17511522  0.62572561  1
  In  In2  1  0.00157770  0.50780171  0.13549576  1
  In  In3  1  0.01283021  0.50355404  0.63134212  1
  In  In4  1  -0.01323367  0.81252453  0.12320661  1
  In  In5  1  -0.01174220  0.83056700  0.62708148  1
  In  In6  1  0.34555124  0.16397081  0.12619222  1
  In  In7  1  0.34671301  0.15140056  0.63448137  1
  In  In8  1  0.33124246  0.49927675  0.12755861  1
  In  In9  1  0.32709169  0.49882762  0.63323038  1
  In  In10  1  0.33096999  0.83383026  0.12453697  1
  In  In11  1  0.34962236  0.83323925  0.62630353  1
  In  In12  1  0.65729162  0.18061228  0.12392540  1
  In  In13  1  0.65224611  0.17618263  0.63120129  1
  In  In14  1  0.66636214  0.51087329  0.11864562  1
  In  In15  1  0.66026837  0.48374121  0.62830400  1
  In  In16  1  0.66680608  0.81954186  0.12131362  1
  In  In17  1  0.66966619  0.83513792  0.62628009  1
  In  In18  1  0.18430622  -0.01667506  0.36568220  1
  In  In19  1  0.17585857  -0.01996407  0.88154933  1
  In  In20  1  0.17354960  0.35417441  0.35551767  1
  In  In21  1  0.17753571  0.32984799  0.88400649  1
  In  In22  1  0.17070661  0.67421794  0.33906771  1
  In  In23  1  0.16223663  0.67445590  0.88542070  1
  In  In24  1  0.49470883  0.00596000  0.38039461  1
  In  In25  1  0.49876782  -0.00342231  0.88279465  1
  In  In26  1  0.49842995  0.32795327  0.36916778  1
  In  In27  1  0.49269029  0.33486038  0.87795042  1
  In  In28  1  0.51010967  0.67710660  0.36378438  1
  In  In29  1  0.50486549  0.66878600  0.89518862  1
  In  In30  1  0.81451947  -0.00682154  0.37491483  1
  In  In31  1  0.81977176  0.00159539  0.87587757  1
  In  In32  1  0.84440449  0.34959681  0.35312205  1
  In  In33  1  0.82865755  0.35317406  0.88313206  1
  In  In34  1  0.84423951  0.68754729  0.34407872  1
  In  In35  1  0.83109132  0.65212897  0.89225904  1
  In  In36  1  -0.00133404  0.17155323  0.37139365  1
  In  In37  1  0.00384745  0.17185670  0.87792369  1
  In  In38  1  0.00367435  0.52814692  0.33645326  1
  In  In39  1  -0.00882651  0.51293866  0.88869832  1
  In  In40  1  -0.00694275  0.82078816  0.36483766  1
  In  In41  1  0.00806785  0.81729906  0.88327085  1
  In  In42  1  0.34410502  0.17566165  0.37037586  1
  In  In43  1  0.34423291  0.17325861  0.87416656  1
  In  In44  1  0.33770023  0.50746345  0.35247174  1
  In  In45  1  0.34210758  0.48505873  0.89346211  1
  In  In46  1  0.33735625  0.84547615  0.35391271  1
  In  In47  1  0.33607260  0.83610461  0.88754086  1
  In  In48  1  0.65503801  0.16359697  0.37304230  1
  In  In49  1  0.64886419  0.15392772  0.87082780  1
  In  In50  1  0.67532273  0.50528018  0.35617962  1
  In  In51  1  0.66754421  0.50093190  0.88347154  1
  In  In52  1  0.66464341  0.83107203  0.38007842  1
  In  In53  1  0.65649459  0.83470485  0.89545695  1
  In  In54  1  0.19318725  -0.00944065  0.12734199  1
  In  In55  1  0.17207588  0.00886869  0.62843967  1
  In  In56  1  0.15555302  0.35307724  0.14385067  1
  In  In57  1  0.17302431  0.34926331  0.62622473  1
  In  In58  1  0.16828444  0.66986900  0.13454254  1
  In  In59  1  0.15845671  0.65083773  0.62866439  1
  In  In60  1  0.47189925  -0.01503321  0.09933365  1
  In  In61  1  0.49800192  -0.00200858  0.62823822  1
  In  In62  1  0.49647303  0.33519181  0.11924854  1
  In  In63  1  0.51207604  0.32422385  0.63427918  1
  In  In64  1  0.50280265  0.65949021  0.12039647  1
  In  In65  1  0.49253948  0.67467840  0.62061006  1
  In  In66  1  0.83662600  -0.01872050  0.12391639  1
  In  In67  1  0.83540922  -0.02226548  0.62578910  1
  In  In68  1  0.81118283  0.37145607  0.14867814  1
  In  In69  1  0.82938123  0.32210438  0.62488624  1
  In  In70  1  0.83373497  0.66710897  0.13000318  1
  In  In71  1  0.83154807  0.67987143  0.62943838  1
  In  In72  1  0.17304974  0.16819799  0.00100069  1
  In  In73  1  0.83437356  0.16894569  0.00019497  1
  In  In74  1  0.50255186  0.50188302  0.50001802  1
  In  In75  1  0.00145834  0.00007867  0.74520346  1
  In  In76  1  0.65866979  -0.00229137  0.23971952  1
  In  In77  1  0.66996241  0.66536298  0.76680613  1
  In  In78  1  0.16855115  0.50620440  0.47911939  1
  In  In79  1  0.00038300  0.33524970  0.75027667  1
  In  In80  1  0.16636235  0.82553430  0.48830284  1
  In  In81  1  0.33418260  0.66389856  0.75568573  1
  In  In82  1  0.81070388  0.16166170  0.49628540  1
  In  In83  1  0.16945975  0.16543668  0.50546815  1
  In  In84  1  0.00624572  0.00342540  0.24928449  1
  In  In85  1  0.83528401  0.51057163  0.48622886  1
  Cu  Cu86  1  -0.00830687  0.66788471  0.49109344  1
  Cu  Cu87  1  0.81720260  0.17126645  0.75274327  1
  Cu  Cu88  1  0.17453930  0.82697758  0.75903007  1
  Cu  Cu89  1  0.33449022  0.66913137  0.49108811  1
  Cu  Cu90  1  0.50177177  0.16557102  0.24711150  1
  Cu  Cu91  1  0.49699823  0.16587134  0.75448969  1
  Cu  Cu92  1  0.32786679  0.33990613  0.00772973  1
  Cu  Cu93  1  0.66672704  0.33392314  0.49538785  1
  Cu  Cu94  1  0.16497521  0.50353371  0.75929510  1
  Cu  Cu95  1  0.34565332  0.32694197  0.49819524  1
  Cu  Cu96  1  0.82831564  0.50506791  0.75873581  1
  Cu  Cu97  1  0.65676118  -0.00764420  0.50361541  1
  Cu  Cu98  1  -0.00668437  0.34925970  0.01542566  1
  Cu  Cu99  1  0.66372040  0.33545085  0.00178117  1
  Cu  Cu100  1  0.00400615  0.66294138  0.01018769  1
  Cu  Cu101  1  0.49833862  0.83159987  0.23809458  1
  Cu  Cu102  1  0.50451694  0.49904825  0.23932571  1
  Cu  Cu103  1  0.66886099  0.67520495  0.49638025  1
  Cu  Cu104  1  0.18083023  0.16272535  0.75759927  1
  Cu  Cu105  1  0.17754050  0.16910227  0.24355889  1
  Cu  Cu106  1  0.83825242  0.82903021  0.75606440  1
  Cu  Cu107  1  -0.00094888  0.33560834  0.48510955  1
  Cu  Cu108  1  0.32748617  0.66905735  0.00939893  1
  Cu  Cu109  1  -0.01102933  -0.00991502  0.49606371  1
  Cu  Cu110  1  0.66897517  -0.00072552  0.00212249  1
  Cu  Cu111  1  0.00637343  -0.01081301  0.00471653  1
  Cu  Cu112  1  0.50591769  0.83521159  0.75798679  1
  Cu  Cu113  1  0.83438026  0.17085538  0.24205542  1
  Cu  Cu114  1  0.33563275  -0.00533156  0.49972926  1
  Se  Se115  1  0.08391414  0.07390275  0.06164686  1
  Se  Se116  1  0.06728889  0.07132922  0.55729428  1
  Se  Se117  1  0.08674448  0.42621102  0.06311021  1
  Se  Se118  1  0.07888161  0.41535335  0.54961854  1
  Se  Se119  1  0.08971888  0.74957333  0.05872414  1
  Se  Se120  1  0.07760308  0.73898554  0.55538581  1
  Se  Se121  1  0.41526949  0.09737783  0.04353876  1
  Se  Se122  1  0.41693379  0.07909854  0.55436472  1
  Se  Se123  1  0.41771064  0.42585700  0.05299898  1
  Se  Se124  1  0.41323331  0.41397106  0.56273724  1
  Se  Se125  1  0.41785689  0.74931720  0.05821334  1
  Se  Se126  1  0.41385822  0.75221669  0.54699779  1
  Se  Se127  1  0.74802419  0.07836262  0.06421275  1
  Se  Se128  1  0.73863859  0.07150669  0.56705190  1
  Se  Se129  1  0.74897876  0.41700852  0.05454182  1
  Se  Se130  1  0.75185242  0.41359302  0.55189462  1
  Se  Se131  1  0.76722073  0.75707605  0.05677274  1
  Se  Se132  1  0.75187298  0.75332023  0.55517765  1
  Se  Se133  1  0.24757936  0.25943891  0.06924794  1
  Se  Se134  1  0.26170167  0.25665262  0.56351441  1
  Se  Se135  1  0.24544199  0.58431124  0.06223146  1
  Se  Se136  1  0.25699641  0.58849498  0.55342288  1
  Se  Se137  1  0.26354744  0.92087033  0.04794648  1
  Se  Se138  1  0.24966938  0.91620077  0.55741657  1
  Se  Se139  1  0.57673774  0.24964483  0.04785390  1
  Se  Se140  1  0.58357912  0.25445028  0.55168772  1
  Se  Se141  1  0.59940845  0.60087594  0.04435101  1
  Se  Se142  1  0.59655005  0.59179583  0.56088896  1
  Se  Se143  1  0.58890466  0.91480482  0.05746178  1
  Se  Se144  1  0.57619801  0.90891229  0.55979274  1
  Se  Se145  1  0.90810039  0.26422094  0.06629095  1
  Se  Se146  1  0.92009448  0.25490679  0.54602231  1
  Se  Se147  1  0.91751905  0.58105380  0.06161656  1
  Se  Se148  1  0.92368503  0.58760304  0.56036053  1
  Se  Se149  1  0.91727244  0.90603503  0.05169597  1
  Se  Se150  1  0.91177346  0.90281353  0.54930833  1
  Se  Se151  1  0.09185748  0.25718104  0.43479875  1
  Se  Se152  1  0.06893584  0.26440819  0.95250822  1
  Se  Se153  1  0.07637343  0.59903479  0.42434200  1
  Se  Se154  1  0.08830263  0.58234534  0.95347156  1
  Se  Se155  1  0.07497727  0.92240281  0.43298420  1
  Se  Se156  1  0.08772756  0.90660874  0.94963775  1
  Se  Se157  1  0.42948452  0.24419253  0.44626138  1
  Se  Se158  1  0.40926251  0.25676441  0.95169220  1
  Se  Se159  1  0.41325891  0.58485340  0.43329084  1
  Se  Se160  1  0.41125770  0.58694971  0.95513306  1
  Se  Se161  1  0.40922506  0.91122313  0.43831890  1
  Se  Se162  1  0.43702242  0.89835261  0.95190842  1
  Se  Se163  1  0.74902586  0.26338907  0.42882600  1
  Se  Se164  1  0.74011675  0.25203229  0.93797123  1
  Se  Se165  1  0.74348770  0.59988717  0.43013471  1
  Se  Se166  1  0.73111872  0.58966330  0.95922603  1
  Se  Se167  1  0.74540098  0.91408591  0.45145076  1
  Se  Se168  1  0.75658733  0.91693490  0.95225623  1
  Se  Se169  1  0.25477104  0.07647526  0.43996617  1
  Se  Se170  1  0.25969266  0.07760291  0.94079741  1
  Se  Se171  1  0.26988315  0.41089255  0.43537775  1
  Se  Se172  1  0.23837154  0.42119440  0.95804751  1
  Se  Se173  1  0.25418961  0.73986571  0.42399806  1
  Se  Se174  1  0.24837842  0.75418460  0.95267694  1
  Se  Se175  1  0.58383099  0.08327151  0.44899918  1
  Se  Se176  1  0.58233402  0.08202857  0.95209047  1
  Se  Se177  1  0.59353660  0.42024843  0.43477114  1
  Se  Se178  1  0.57867009  0.41652896  0.94675734  1
  Se  Se179  1  0.57484922  0.75129087  0.44698125  1
  Se  Se180  1  0.60199289  0.73225329  0.96477708  1
  Se  Se181  1  0.91490764  0.07836250  0.43887759  1
  Se  Se182  1  0.92871255  0.07368754  0.94432358  1
  Se  Se183  1  0.93294707  0.42701539  0.42598851  1
  Se  Se184  1  0.90967781  0.42695756  0.95644732  1
  Se  Se185  1  0.90670547  0.74727231  0.43629075  1
  Se  Se186  1  0.92015845  0.74150557  0.95128592  1
  Se  Se187  1  0.25621039  0.25339820  0.30251643  1
  Se  Se188  1  0.25468012  0.25529452  0.80826073  1
  Se  Se189  1  0.23275218  0.56101553  0.28786143  1
  Se  Se190  1  0.24795255  0.57890859  0.82023246  1
  Se  Se191  1  0.24055586  0.90624203  0.28389167  1
  Se  Se192  1  0.26046993  0.91002802  0.80718010  1
  Se  Se193  1  0.58564722  0.24880056  0.29961478  1
  Se  Se194  1  0.57800898  0.25212317  0.80819909  1
  Se  Se195  1  0.58291740  0.58595268  0.29523279  1
  Se  Se196  1  0.56930633  0.57896308  0.81620974  1
  Se  Se197  1  0.57155910  0.91285608  0.30656604  1
  Se  Se198  1  0.58880744  0.91346942  0.81597961  1
  Se  Se199  1  0.92230412  0.24726016  0.29709348  1
  Se  Se200  1  0.90525787  0.24693469  0.81155208  1
  Se  Se201  1  0.87615505  0.56312484  0.28813415  1
  Se  Se202  1  0.91160419  0.58552605  0.81223348  1
  Se  Se203  1  0.90528589  0.91942624  0.30493812  1
  Se  Se204  1  0.91836165  0.91511705  0.81397057  1
  Se  Se205  1  0.10111053  0.09182139  0.31030297  1
  Se  Se206  1  0.09206428  0.08486256  0.81252763  1
  Se  Se207  1  0.06942652  0.41109240  0.29115721  1
  Se  Se208  1  0.08370400  0.42053534  0.81840368  1
  Se  Se209  1  0.07927580  0.76506173  0.28785867  1
  Se  Se210  1  0.08545487  0.74519588  0.80552425  1
  Se  Se211  1  0.41931449  0.08289823  0.30387150  1
  Se  Se212  1  0.41929137  0.07863657  0.80982279  1
  Se  Se213  1  0.42588231  0.41499661  0.29763598  1
  Se  Se214  1  0.40253720  0.41292769  0.81059343  1
  Se  Se215  1  0.41679780  0.74767053  0.29539680  1
  Se  Se216  1  0.42745920  0.75048272  0.81554515  1
  Se  Se217  1  0.75315730  0.09005279  0.30101659  1
  Se  Se218  1  0.74155687  0.07927296  0.80269142  1
  Se  Se219  1  0.73900067  0.40554258  0.29078264  1
  Se  Se220  1  0.74397286  0.42004472  0.80783775  1
  Se  Se221  1  0.72693506  0.75121452  0.30131819  1
  Se  Se222  1  0.75863782  0.75808235  0.82353777  1
  Se  Se223  1  0.26132942  0.08325746  0.19648336  1
  Se  Se224  1  0.25753088  0.07386476  0.70327189  1
  Se  Se225  1  0.26927144  0.40467504  0.20034248  1
  Se  Se226  1  0.24843905  0.41878254  0.70572738  1
  Se  Se227  1  0.25594951  0.75390085  0.19886518  1
  Se  Se228  1  0.24622459  0.75024717  0.68830979  1
  Se  Se229  1  0.56760289  0.08313559  0.17925813  1
  Se  Se230  1  0.57943115  0.08301260  0.69752215  1
  Se  Se231  1  0.58632781  0.41842445  0.18331006  1
  Se  Se232  1  0.57923771  0.41843504  0.70281126  1
  Se  Se233  1  0.58295576  0.74383052  0.19278931  1
  Se  Se234  1  0.58039765  0.74985327  0.69747195  1
  Se  Se235  1  0.91242587  0.08840974  0.18413263  1
  Se  Se236  1  0.90260605  0.09361755  0.69111888  1
  Se  Se237  1  0.94042866  0.39668510  0.19531958  1
  Se  Se238  1  0.90581694  0.42593497  0.69153581  1
  Se  Se239  1  0.91573509  0.74411276  0.20432277  1
  Se  Se240  1  0.92132984  0.74580473  0.70311573  1
  Se  Se241  1  0.08254342  0.24627138  0.19930403  1
  Se  Se242  1  0.09859205  0.24164724  0.69468884  1
  Se  Se243  1  0.08108858  0.59224241  0.20464821  1
  Se  Se244  1  0.07884263  0.58672605  0.70870735  1
  Se  Se245  1  0.07958275  0.91641699  0.17873645  1
  Se  Se246  1  0.09583726  0.90379661  0.69146160  1
  Se  Se247  1  0.42061922  0.25386959  0.19504380  1
  Se  Se248  1  0.41529122  0.25031051  0.69837017  1
  Se  Se249  1  0.41730696  0.58542426  0.19320954  1
  Se  Se250  1  0.42819852  0.57916145  0.69308583  1
  Se  Se251  1  0.41768784  0.92276237  0.19103880  1
  Se  Se252  1  0.41981207  0.91330287  0.70127619  1
  Se  Se253  1  0.74544829  0.25205085  0.19407638  1
  Se  Se254  1  0.74032896  0.25891171  0.69795936  1
  Se  Se255  1  0.76031658  0.56808466  0.19481772  1
  Se  Se256  1  0.74997824  0.57987575  0.69238146  1
  Se  Se257  1  0.75640842  0.90138031  0.19659747  1
  Se  Se258  1  0.75274122  0.90923056  0.70140257  1
