# generated using pymatgen
data_In86Cu29Se144
_symmetry_space_group_name_H-M   'P 1'
_cell_length_a   17.54962908
_cell_length_b   17.54825173
_cell_length_c   23.40354853
_cell_angle_alpha   89.99958950
_cell_angle_beta   90.01482731
_cell_angle_gamma   90.00399885
_symmetry_Int_Tables_number   1
_chemical_formula_structural   In86Cu29Se144
_chemical_formula_sum   'In86 Cu29 Se144'
_cell_volume   7207.48079322
_cell_formula_units_Z   1
loop_
 _symmetry_equiv_pos_site_id
 _symmetry_equiv_pos_as_xyz
  1  'x, y, z'
loop_
 _atom_site_type_symbol
 _atom_site_label
 _atom_site_symmetry_multiplicity
 _atom_site_fract_x
 _atom_site_fract_y
 _atom_site_fract_z
 _atom_site_occupancy
  In  In0  1  0.00537779  0.16348617  0.12406749  1
  In  In1  1  -0.01272499  0.15214250  0.62256050  1
  In  In2  1  -0.01061410  0.49395309  0.11336771  1
  In  In3  1  0.00091524  0.52018184  0.62700887  1
  In  In4  1  0.00525211  0.82302418  0.11900708  1
  In  In5  1  0.00097873  0.83719167  0.63882650  1
  In  In6  1  0.33989502  0.16817065  0.11808802  1
  In  In7  1  0.32508587  0.16202654  0.62415107  1
  In  In8  1  0.32111434  0.50117642  0.12154537  1
  In  In9  1  0.34632421  0.50195611  0.62365307  1
  In  In10  1  0.32732098  0.82261332  0.09828022  1
  In  In11  1  0.32416893  0.83997741  0.63850080  1
  In  In12  1  0.66859090  0.17816852  0.12019718  1
  In  In13  1  0.69458850  0.14602220  0.65784341  1
  In  In14  1  0.66350983  0.48150043  0.11877014  1
  In  In15  1  0.66484558  0.50175154  0.62413576  1
  In  In16  1  0.66430557  0.84830882  0.11583336  1
  In  In17  1  0.69234685  0.82476580  0.65156732  1
  In  In18  1  0.15992492  0.00333097  0.38975220  1
  In  In19  1  0.17166182  -0.00259738  0.86792935  1
  In  In20  1  0.15081401  0.32779339  0.36639313  1
  In  In21  1  0.16866589  0.32910958  0.88730489  1
  In  In22  1  0.17792800  0.67493607  0.38622695  1
  In  In23  1  0.17132115  0.67063323  0.86882404  1
  In  In24  1  0.50994235  -0.00142074  0.38103384  1
  In  In25  1  0.48884112  0.00464105  0.86539071  1
  In  In26  1  0.51243431  0.33793358  0.36880645  1
  In  In27  1  0.50281416  0.31304307  0.87311177  1
  In  In28  1  0.48179747  0.64846766  0.38502133  1
  In  In29  1  0.51022248  0.67975017  0.86909176  1
  In  In30  1  0.83399605  -0.00114971  0.39335924  1
  In  In31  1  0.83761282  -0.00917217  0.84637989  1
  In  In32  1  0.83601834  0.33392332  0.37859836  1
  In  In33  1  0.83083391  0.33984713  0.87509616  1
  In  In34  1  0.83582227  0.66624630  0.39165910  1
  In  In35  1  0.83328136  0.66753597  0.86196021  1
  In  In36  1  -0.00685369  0.17432834  0.38904819  1
  In  In37  1  0.00603190  0.16539216  0.87522836  1
  In  In38  1  0.00046815  0.48903002  0.37751456  1
  In  In39  1  -0.00323418  0.50395114  0.87898318  1
  In  In40  1  0.00167263  0.83253670  0.39009274  1
  In  In41  1  0.03068383  0.85247101  0.83386364  1
  In  In42  1  0.31778794  0.16539513  0.37596296  1
  In  In43  1  0.33927072  0.15611808  0.88008336  1
  In  In44  1  0.34705222  0.50148280  0.38077830  1
  In  In45  1  0.32390731  0.50284963  0.88110753  1
  In  In46  1  0.31925618  0.81331433  0.38400506  1
  In  In47  1  0.32564731  0.83407970  0.86795191  1
  In  In48  1  0.66728183  0.17731622  0.37834840  1
  In  In49  1  0.64655011  0.14780217  0.84637417  1
  In  In50  1  0.67633798  0.48758907  0.38842627  1
  In  In51  1  0.67699216  0.51273814  0.86881038  1
  In  In52  1  0.66687387  0.84583797  0.38586668  1
  In  In53  1  0.66733341  0.82522794  0.86077530  1
  In  In54  1  0.16674527  0.00604474  0.10995705  1
  In  In55  1  0.16191850  -0.00557586  0.63568552  1
  In  In56  1  0.16686950  0.33383871  0.12363447  1
  In  In57  1  0.17708974  0.32391337  0.61982260  1
  In  In58  1  0.17245254  0.66446844  0.10542342  1
  In  In59  1  0.15821797  0.68479365  0.64915651  1
  In  In60  1  0.49164861  -0.01119265  0.10670784  1
  In  In61  1  0.51473944  0.00164179  0.64134771  1
  In  In62  1  0.51116506  0.32215390  0.12850783  1
  In  In63  1  0.50550207  0.34584455  0.62170986  1
  In  In64  1  0.48136396  0.66830044  0.11171899  1
  In  In65  1  0.50748841  0.66431151  0.63496276  1
  In  In66  1  0.83821803  0.00715093  0.12210639  1
  In  In67  1  0.84334275  0.00128391  0.63741764  1
  In  In68  1  0.81690741  0.33738044  0.13103712  1
  In  In69  1  0.81961469  0.32308437  0.61578547  1
  In  In70  1  0.85256791  0.66227009  0.12062082  1
  In  In71  1  0.83455197  0.66979501  0.62716854  1
  In  In72  1  0.83471104  0.82289005  -0.02221634  1
  In  In73  1  0.33486583  0.00230273  0.25035875  1
  In  In74  1  0.16430176  0.50574494  0.50487796  1
  In  In75  1  0.33008266  0.66037799  0.24908114  1
  In  In76  1  0.50512356  0.17152108  0.50669748  1
  In  In77  1  0.66665096  0.66222090  0.25062270  1
  In  In78  1  -0.00545614  0.32849629  0.75005757  1
  In  In79  1  0.00489829  0.66066991  0.24900091  1
  In  In80  1  0.50346622  0.49921907  -0.00213508  1
  In  In81  1  0.66668118  0.02224374  0.25667018  1
  In  In82  1  0.83351358  0.16807961  -0.00673148  1
  In  In83  1  0.33802735  0.33463195  0.75167826  1
  In  In84  1  -0.00118049  0.01152297  0.24476572  1
  In  In85  1  0.49986815  0.83221410  0.51102657  1
  Cu  Cu86  1  0.32521613  -0.00083795  -0.01023037  1
  Cu  Cu87  1  0.16364791  0.17715680  0.24935262  1
  Cu  Cu88  1  0.00733542  -0.00576005  0.51326638  1
  Cu  Cu89  1  0.33141325  0.33019527  0.00183210  1
  Cu  Cu90  1  -0.00390248  0.67617715  0.51161701  1
  Cu  Cu91  1  0.66883942  0.32930304  -0.00435104  1
  Cu  Cu92  1  0.82887435  0.84384981  0.25883523  1
  Cu  Cu93  1  0.68075279  -0.00252488  0.51807341  1
  Cu  Cu94  1  0.67579970  0.66682652  -0.00972209  1
  Cu  Cu95  1  0.49635248  0.82965728  0.24015045  1
  Cu  Cu96  1  0.82749585  0.49301570  0.25167636  1
  Cu  Cu97  1  0.16547192  0.16078266  0.75113700  1
  Cu  Cu98  1  0.49513085  0.83693202  0.75214127  1
  Cu  Cu99  1  0.33042229  -0.00886082  0.50970032  1
  Cu  Cu100  1  0.00101647  0.33656331  -0.00050016  1
  Cu  Cu101  1  0.50238427  0.50473112  0.75285862  1
  Cu  Cu102  1  0.66583974  0.33454432  0.50244733  1
  Cu  Cu103  1  0.65730072  0.00270484  -0.01662517  1
  Cu  Cu104  1  -0.00125925  -0.01179514  -0.01242661  1
  Cu  Cu105  1  0.66103706  0.66929832  0.51270448  1
  Cu  Cu106  1  0.33207527  0.33205963  0.49632385  1
  Cu  Cu107  1  0.16995968  0.83513988  0.24910951  1
  Cu  Cu108  1  0.16393125  0.50189329  0.75295109  1
  Cu  Cu109  1  0.16476942  0.49276652  0.24522597  1
  Cu  Cu110  1  0.00850830  0.66917745  -0.01263142  1
  Cu  Cu111  1  0.50472136  0.48957820  0.25368624  1
  Cu  Cu112  1  -0.00310765  0.33203942  0.49987910  1
  Cu  Cu113  1  0.49995184  0.16919789  0.24369836  1
  Cu  Cu114  1  0.83151597  0.49576820  0.74365526  1
  Se  Se115  1  0.06911975  0.07883534  0.04663570  1
  Se  Se116  1  0.09058826  0.08291086  0.56198123  1
  Se  Se117  1  0.08769364  0.41932772  0.05239012  1
  Se  Se118  1  0.07482759  0.41102797  0.56430337  1
  Se  Se119  1  0.08780909  0.75470462  0.04394682  1
  Se  Se120  1  0.08105370  0.75131362  0.56826458  1
  Se  Se121  1  0.41068776  0.08058415  0.04553322  1
  Se  Se122  1  0.42033431  0.07038329  0.56175051  1
  Se  Se123  1  0.41611931  0.40902004  0.06114311  1
  Se  Se124  1  0.41438689  0.41454791  0.54994205  1
  Se  Se125  1  0.43745020  0.76710243  0.03960655  1
  Se  Se126  1  0.40938352  0.74748661  0.57144138  1
  Se  Se127  1  0.73908909  0.07317915  0.05099620  1
  Se  Se128  1  0.75930873  0.08794453  0.56822526  1
  Se  Se129  1  0.75313207  0.41345033  0.04738190  1
  Se  Se130  1  0.74970478  0.42293290  0.55258526  1
  Se  Se131  1  0.75284251  0.74726573  0.05781602  1
  Se  Se132  1  0.74524703  0.75468466  0.56191484  1
  Se  Se133  1  0.24644714  0.24665756  0.05482390  1
  Se  Se134  1  0.25349915  0.24310633  0.54725889  1
  Se  Se135  1  0.27974231  0.60076551  0.04797513  1
  Se  Se136  1  0.24101351  0.58996761  0.57603425  1
  Se  Se137  1  0.23992431  0.91536843  0.04238494  1
  Se  Se138  1  0.24421051  0.91301676  0.56243439  1
  Se  Se139  1  0.58166742  0.24820344  0.04762445  1
  Se  Se140  1  0.59967373  0.25020992  0.56837954  1
  Se  Se141  1  0.59563444  0.59286286  0.05719133  1
  Se  Se142  1  0.57377264  0.58189796  0.55669081  1
  Se  Se143  1  0.58205154  0.91358628  0.03867308  1
  Se  Se144  1  0.59560971  0.91451999  0.57133774  1
  Se  Se145  1  0.91789474  0.25701585  0.05955994  1
  Se  Se146  1  0.91627389  0.24619836  0.55426416  1
  Se  Se147  1  0.92163030  0.58738982  0.04168573  1
  Se  Se148  1  0.91100834  0.58499788  0.55421446  1
  Se  Se149  1  0.91585964  0.91491251  0.05185756  1
  Se  Se150  1  0.91886738  0.91548102  0.56542113  1
  Se  Se151  1  0.08969966  0.25301324  0.45060324  1
  Se  Se152  1  0.07952671  0.24503616  0.95027266  1
  Se  Se153  1  0.07030888  0.59567762  0.44399562  1
  Se  Se154  1  0.09410042  0.57986286  0.94034407  1
  Se  Se155  1  0.08967930  0.91028903  0.45710696  1
  Se  Se156  1  0.08013776  0.90935203  0.92967980  1
  Se  Se157  1  0.41593185  0.25230881  0.43746429  1
  Se  Se158  1  0.41458931  0.24857317  0.94753695  1
  Se  Se159  1  0.38819961  0.59589288  0.45911901  1
  Se  Se160  1  0.42117859  0.59185987  0.93735465  1
  Se  Se161  1  0.41021403  0.91824785  0.44252987  1
  Se  Se162  1  0.41076671  0.91959358  0.93576179  1
  Se  Se163  1  0.75147163  0.25117800  0.44928379  1
  Se  Se164  1  0.73691122  0.24409220  0.93075038  1
  Se  Se165  1  0.74276177  0.58758945  0.45349048  1
  Se  Se166  1  0.76300766  0.58615317  0.94112907  1
  Se  Se167  1  0.75528651  0.91019548  0.46007000  1
  Se  Se168  1  0.74774071  0.92706264  0.92840225  1
  Se  Se169  1  0.25513435  0.08020218  0.45258357  1
  Se  Se170  1  0.23887805  0.08614994  0.94263379  1
  Se  Se171  1  0.24650352  0.41288600  0.43900542  1
  Se  Se172  1  0.24924631  0.41802617  0.95260174  1
  Se  Se173  1  0.24505219  0.74992934  0.46521445  1
  Se  Se174  1  0.24600984  0.75437935  0.94048452  1
  Se  Se175  1  0.59987984  0.07269544  0.45222465  1
  Se  Se176  1  0.57621835  0.08942590  0.93328989  1
  Se  Se177  1  0.57612017  0.41497059  0.45077503  1
  Se  Se178  1  0.59133148  0.41266838  0.93464640  1
  Se  Se179  1  0.58256840  0.74065433  0.44202769  1
  Se  Se180  1  0.59403344  0.75474843  0.94229257  1
  Se  Se181  1  0.92488045  0.07829593  0.45667713  1
  Se  Se182  1  0.91157941  0.06618011  0.93169113  1
  Se  Se183  1  0.91418360  0.42014995  0.45036083  1
  Se  Se184  1  0.91512902  0.41606435  0.94566785  1
  Se  Se185  1  0.91069263  0.75846090  0.45723223  1
  Se  Se186  1  0.93717216  0.74872023  0.92090301  1
  Se  Se187  1  0.25140219  0.25471276  0.30378073  1
  Se  Se188  1  0.24245438  0.24681350  0.80934707  1
  Se  Se189  1  0.23753787  0.57390732  0.31234842  1
  Se  Se190  1  0.25591793  0.58002647  0.80249806  1
  Se  Se191  1  0.24587281  0.91249203  0.31406510  1
  Se  Se192  1  0.24152406  0.91015056  0.79464527  1
  Se  Se193  1  0.58647600  0.24559588  0.30092440  1
  Se  Se194  1  0.59454426  0.26816694  0.79527805  1
  Se  Se195  1  0.57784429  0.57524639  0.31541174  1
  Se  Se196  1  0.58865404  0.59029338  0.80210143  1
  Se  Se197  1  0.57856051  0.90883018  0.30278398  1
  Se  Se198  1  0.58150872  0.91968441  0.80401232  1
  Se  Se199  1  0.92954577  0.25803099  0.31345107  1
  Se  Se200  1  0.90571117  0.23882815  0.81034382  1
  Se  Se201  1  0.90525478  0.57936812  0.31036351  1
  Se  Se202  1  0.91568486  0.57220341  0.80181428  1
  Se  Se203  1  0.91848466  0.91798289  0.31452760  1
  Se  Se204  1  0.89925250  0.88382878  0.78732146  1
  Se  Se205  1  0.09087191  0.09056846  0.31168035  1
  Se  Se206  1  0.07845804  0.08034550  0.80354904  1
  Se  Se207  1  0.07436562  0.41767565  0.29828499  1
  Se  Se208  1  0.09054183  0.41361191  0.81071766  1
  Se  Se209  1  0.08970950  0.75618213  0.31104125  1
  Se  Se210  1  0.07401243  0.72239418  0.79399092  1
  Se  Se211  1  0.42897294  0.08940109  0.31197675  1
  Se  Se212  1  0.41235217  0.09514485  0.79764538  1
  Se  Se213  1  0.41394781  0.41416976  0.30683506  1
  Se  Se214  1  0.42529153  0.42411226  0.81572297  1
  Se  Se215  1  0.42174753  0.75358408  0.30964321  1
  Se  Se216  1  0.41436014  0.74921954  0.80298369  1
  Se  Se217  1  0.76844317  0.09343041  0.31779572  1
  Se  Se218  1  0.75325834  0.08274518  0.78747378  1
  Se  Se219  1  0.74612781  0.41287528  0.30883140  1
  Se  Se220  1  0.75022214  0.41813767  0.80274867  1
  Se  Se221  1  0.75164807  0.75698089  0.31476736  1
  Se  Se222  1  0.75779910  0.75406995  0.79189422  1
  Se  Se223  1  0.23980424  0.08829380  0.19036095  1
  Se  Se224  1  0.25304133  0.08085873  0.69825500  1
  Se  Se225  1  0.25381852  0.41366065  0.19456136  1
  Se  Se226  1  0.24259784  0.42220648  0.69128991  1
  Se  Se227  1  0.24670882  0.75601091  0.18567594  1
  Se  Se228  1  0.25485369  0.75486711  0.71358921  1
  Se  Se229  1  0.57056678  0.08191704  0.18147188  1
  Se  Se230  1  0.56776013  0.10782991  0.70569439  1
  Se  Se231  1  0.58913723  0.41082475  0.19755738  1
  Se  Se232  1  0.58255932  0.42172174  0.69709525  1
  Se  Se233  1  0.58115498  0.75197502  0.18315710  1
  Se  Se234  1  0.58351535  0.75252156  0.70363676  1
  Se  Se235  1  0.89969164  0.10316921  0.19491963  1
  Se  Se236  1  0.92975002  0.08017129  0.70689588  1
  Se  Se237  1  0.91311194  0.42038832  0.19055084  1
  Se  Se238  1  0.91452276  0.41939707  0.68330077  1
  Se  Se239  1  0.90986280  0.76227391  0.19779075  1
  Se  Se240  1  0.90078987  0.76065074  0.70046557  1
  Se  Se241  1  0.07877216  0.25363018  0.19225034  1
  Se  Se242  1  0.09019519  0.24341054  0.68951894  1
  Se  Se243  1  0.09347392  0.57923439  0.18194181  1
  Se  Se244  1  0.07489846  0.58791395  0.70797263  1
  Se  Se245  1  0.08909297  0.91330875  0.18809351  1
  Se  Se246  1  0.09116606  0.90785358  0.70997021  1
  Se  Se247  1  0.41259353  0.25048546  0.19280003  1
  Se  Se248  1  0.42026701  0.24930347  0.68443161  1
  Se  Se249  1  0.42854193  0.57283374  0.19087038  1
  Se  Se250  1  0.41492373  0.58353317  0.70005728  1
  Se  Se251  1  0.41118633  0.90675716  0.18310576  1
  Se  Se252  1  0.41598364  0.92435045  0.70014984  1
  Se  Se253  1  0.74684260  0.24313152  0.19757668  1
  Se  Se254  1  0.75066283  0.26786318  0.70304576  1
  Se  Se255  1  0.75751259  0.57713639  0.18589407  1
  Se  Se256  1  0.74855403  0.58360929  0.69303076  1
  Se  Se257  1  0.75261552  0.92044404  0.19397560  1
  Se  Se258  1  0.72903265  0.95092098  0.70064495  1
