# generated using pymatgen
data_In86Cu29Se144
_symmetry_space_group_name_H-M   'P 1'
_cell_length_a   17.57421337
_cell_length_b   17.57167952
_cell_length_c   23.43047182
_cell_angle_alpha   90.01137978
_cell_angle_beta   89.98772553
_cell_angle_gamma   89.98148686
_symmetry_Int_Tables_number   1
_chemical_formula_structural   In86Cu29Se144
_chemical_formula_sum   'In86 Cu29 Se144'
_cell_volume   7235.52688717
_cell_formula_units_Z   1
loop_
 _symmetry_equiv_pos_site_id
 _symmetry_equiv_pos_as_xyz
  1  'x, y, z'
loop_
 _atom_site_type_symbol
 _atom_site_label
 _atom_site_symmetry_multiplicity
 _atom_site_fract_x
 _atom_site_fract_y
 _atom_site_fract_z
 _atom_site_occupancy
  In  In0  1  -0.00495685  0.15897396  0.11202922  1
  In  In1  1  -0.00836826  0.15664868  0.62874072  1
  In  In2  1  -0.01455663  0.51102735  0.12265475  1
  In  In3  1  0.00976238  0.51275820  0.61137792  1
  In  In4  1  -0.00432200  0.81895217  0.10176912  1
  In  In5  1  -0.00890571  0.84336683  0.63618820  1
  In  In6  1  0.33357136  0.16780800  0.12483836  1
  In  In7  1  0.31897714  0.15989372  0.62410578  1
  In  In8  1  0.32501768  0.48821500  0.13483999  1
  In  In9  1  0.33940182  0.51578339  0.60744740  1
  In  In10  1  0.33110567  0.83986883  0.12010795  1
  In  In11  1  0.33747995  0.82913058  0.62462318  1
  In  In12  1  0.66691630  0.16531092  0.13316345  1
  In  In13  1  0.68937131  0.15523470  0.64006589  1
  In  In14  1  0.67599474  0.48867289  0.13659112  1
  In  In15  1  0.66471963  0.49615748  0.61881319  1
  In  In16  1  0.67481033  0.82892263  0.13436756  1
  In  In17  1  0.67537781  0.84301164  0.61797911  1
  In  In18  1  0.18420317  0.00336593  0.38589235  1
  In  In19  1  0.15777738  0.00062699  0.86413410  1
  In  In20  1  0.17540817  0.32436454  0.37942163  1
  In  In21  1  0.15326985  0.33457115  0.87417874  1
  In  In22  1  0.15575553  0.65572831  0.38350818  1
  In  In23  1  0.17155194  0.67297112  0.86098400  1
  In  In24  1  0.50620316  -0.02120443  0.38868563  1
  In  In25  1  0.50844831  0.00224747  0.86221718  1
  In  In26  1  0.50796444  0.35061327  0.36157517  1
  In  In27  1  0.50500207  0.31866854  0.87378362  1
  In  In28  1  0.52013155  0.64371124  0.39353753  1
  In  In29  1  0.49488162  0.67749952  0.87060679  1
  In  In30  1  0.82276721  0.01220414  0.38435697  1
  In  In31  1  0.83369596  0.00191565  0.87405472  1
  In  In32  1  0.81983669  0.34390982  0.38363337  1
  In  In33  1  0.82570491  0.34133169  0.87893956  1
  In  In34  1  0.82565666  0.67787897  0.38954167  1
  In  In35  1  0.84733499  0.66054548  0.88352066  1
  In  In36  1  0.00275368  0.16203141  0.38759671  1
  In  In37  1  0.00743545  0.15862421  0.87518902  1
  In  In38  1  -0.00569059  0.51165260  0.39721774  1
  In  In39  1  -0.01230916  0.49047428  0.86868031  1
  In  In40  1  -0.01037376  0.81496248  0.38095055  1
  In  In41  1  -0.00209536  0.83412454  0.87027995  1
  In  In42  1  0.32057090  0.16658746  0.38363501  1
  In  In43  1  0.32317566  0.14977080  0.86242014  1
  In  In44  1  0.35450096  0.48644216  0.39357459  1
  In  In45  1  0.31929508  0.50278911  0.86753700  1
  In  In46  1  0.34814068  0.83725055  0.38715198  1
  In  In47  1  0.32213716  0.82643692  0.86041374  1
  In  In48  1  0.67012758  0.17747922  0.37295025  1
  In  In49  1  0.68239067  0.18130766  0.85556730  1
  In  In50  1  0.66418344  0.50164834  0.37414178  1
  In  In51  1  0.68515204  0.50850612  0.87216394  1
  In  In52  1  0.67237705  0.83145364  0.37766806  1
  In  In53  1  0.67369733  0.84865916  0.87214847  1
  In  In54  1  0.15976354  -0.00895062  0.11062446  1
  In  In55  1  0.16005035  0.01305991  0.63986039  1
  In  In56  1  0.17222250  0.32778497  0.12591762  1
  In  In57  1  0.16489141  0.33343493  0.61768274  1
  In  In58  1  0.15806136  0.67122438  0.12269402  1
  In  In59  1  0.17213895  0.66626665  0.62861841  1
  In  In60  1  0.49959350  0.00940435  0.12891599  1
  In  In61  1  0.50733523  -0.00836802  0.62626993  1
  In  In62  1  0.50210403  0.33313306  0.14308632  1
  In  In63  1  0.50660652  0.34843475  0.61970318  1
  In  In64  1  0.50628328  0.67984136  0.12980332  1
  In  In65  1  0.48507475  0.66511370  0.60877134  1
  In  In66  1  0.82858942  -0.00434410  0.12145911  1
  In  In67  1  0.83950804  0.00077233  0.63083877  1
  In  In68  1  0.82623443  0.32566332  0.11914118  1
  In  In69  1  0.82600632  0.32473741  0.62215432  1
  In  In70  1  0.83216507  0.66086865  0.11495101  1
  In  In71  1  0.84761668  0.67898995  0.61043321  1
  In  In72  1  0.66658745  0.66969382  0.74207822  1
  In  In73  1  0.34557629  0.65803881  0.26429374  1
  In  In74  1  0.50237904  0.83674034  -0.00079185  1
  In  In75  1  0.50132919  0.16244739  0.00544975  1
  In  In76  1  -0.00074241  -0.00384451  0.24963583  1
  In  In77  1  0.33950533  0.33737545  0.74578929  1
  In  In78  1  0.16385265  0.83889829  0.50512099  1
  In  In79  1  0.00081082  0.33177692  0.25581964  1
  In  In80  1  0.15401843  0.49860542  0.00091867  1
  In  In81  1  0.34341426  0.00599384  0.25633279  1
  In  In82  1  -0.00535766  0.66435816  0.24782750  1
  In  In83  1  -0.00656579  0.32835981  0.74421376  1
  In  In84  1  0.50276995  0.17580984  0.50296157  1
  In  In85  1  0.50287917  0.49659697  0.01189273  1
  Cu  Cu86  1  0.00429940  -0.00026325  -0.01043685  1
  Cu  Cu87  1  0.33488147  0.33574785  0.50062192  1
  Cu  Cu88  1  0.82672108  0.17241454  0.25412066  1
  Cu  Cu89  1  0.50136921  0.16448823  0.25614813  1
  Cu  Cu90  1  0.67278822  0.00644280  -0.00040095  1
  Cu  Cu91  1  0.00090768  0.32726500  0.50494308  1
  Cu  Cu92  1  0.32459229  0.31782641  0.00227171  1
  Cu  Cu93  1  0.32007265  -0.01112214  -0.01419481  1
  Cu  Cu94  1  0.32836694  0.65926059  -0.01043683  1
  Cu  Cu95  1  0.82884054  0.50207680  0.25388273  1
  Cu  Cu96  1  0.17157499  0.83291985  0.24511579  1
  Cu  Cu97  1  0.16410306  0.83874138  0.74551400  1
  Cu  Cu98  1  0.67965489  0.66977135  0.00276331  1
  Cu  Cu99  1  0.67030615  0.33900391  -0.00159865  1
  Cu  Cu100  1  0.49934191  0.50502189  0.73949112  1
  Cu  Cu101  1  0.16952585  0.50958784  0.73672228  1
  Cu  Cu102  1  -0.00820215  0.32799165  -0.00543467  1
  Cu  Cu103  1  0.66221234  0.66583718  0.50146631  1
  Cu  Cu104  1  0.83451722  0.50078851  0.74564785  1
  Cu  Cu105  1  0.82740187  0.83581086  0.25232000  1
  Cu  Cu106  1  0.51685154  0.83261852  0.25737573  1
  Cu  Cu107  1  0.67436296  -0.00149306  0.50613806  1
  Cu  Cu108  1  -0.00141542  -0.00429997  0.50956670  1
  Cu  Cu109  1  0.17160715  0.16502991  0.25272278  1
  Cu  Cu110  1  0.67012896  0.32918500  0.49732327  1
  Cu  Cu111  1  0.50577333  0.16928152  0.74285094  1
  Cu  Cu112  1  0.16734211  0.48704985  0.25588701  1
  Cu  Cu113  1  0.83405795  0.83243372  0.74872472  1
  Cu  Cu114  1  0.49307642  0.82735640  0.74343863  1
  Se  Se115  1  0.08657680  0.08468797  0.04568005  1
  Se  Se116  1  0.08197742  0.08159203  0.55934493  1
  Se  Se117  1  0.06788237  0.40476685  0.06381470  1
  Se  Se118  1  0.08649100  0.41720983  0.54856486  1
  Se  Se119  1  0.09745654  0.74884305  0.04319544  1
  Se  Se120  1  0.07626500  0.75433577  0.56826929  1
  Se  Se121  1  0.40013678  0.06490662  0.05278556  1
  Se  Se122  1  0.41769605  0.08225655  0.56149179  1
  Se  Se123  1  0.40597596  0.39991244  0.06194654  1
  Se  Se124  1  0.42223401  0.42081817  0.54778196  1
  Se  Se125  1  0.40787760  0.73890505  0.05306102  1
  Se  Se126  1  0.41344964  0.76075099  0.54488476  1
  Se  Se127  1  0.74847626  0.09013875  0.05922840  1
  Se  Se128  1  0.75664197  0.08252536  0.55831983  1
  Se  Se129  1  0.75132771  0.42207939  0.05493195  1
  Se  Se130  1  0.75141466  0.41383900  0.55239557  1
  Se  Se131  1  0.75400523  0.76082558  0.05615460  1
  Se  Se132  1  0.74776936  0.75183966  0.54966772  1
  Se  Se133  1  0.24061703  0.23669161  0.05489659  1
  Se  Se134  1  0.25272807  0.25074162  0.55227160  1
  Se  Se135  1  0.25655301  0.58119561  0.05900014  1
  Se  Se136  1  0.23431274  0.58230035  0.55041012  1
  Se  Se137  1  0.24493066  0.90485377  0.04570538  1
  Se  Se138  1  0.24679081  0.92760312  0.56905039  1
  Se  Se139  1  0.58626204  0.26297392  0.06145833  1
  Se  Se140  1  0.59987910  0.25141722  0.56662351  1
  Se  Se141  1  0.59486398  0.59342594  0.06339916  1
  Se  Se142  1  0.57958092  0.57904136  0.55165817  1
  Se  Se143  1  0.58945294  0.92703413  0.06115785  1
  Se  Se144  1  0.58216024  0.91487525  0.54895513  1
  Se  Se145  1  0.90870867  0.24483702  0.04980492  1
  Se  Se146  1  0.91741706  0.24489858  0.55783480  1
  Se  Se147  1  0.93612271  0.60463948  0.04866318  1
  Se  Se148  1  0.89928867  0.56706509  0.55098576  1
  Se  Se149  1  0.92032106  0.92533030  0.05117172  1
  Se  Se150  1  0.91204948  0.91263901  0.55767385  1
  Se  Se151  1  0.08834937  0.24779358  0.44985212  1
  Se  Se152  1  0.08270073  0.24954550  0.94612502  1
  Se  Se153  1  0.07506935  0.59648573  0.46251853  1
  Se  Se154  1  0.08197005  0.58228944  0.92734717  1
  Se  Se155  1  0.07198930  0.92332544  0.43730752  1
  Se  Se156  1  0.08685965  0.91491964  0.93798537  1
  Se  Se157  1  0.41765595  0.26235074  0.43642952  1
  Se  Se158  1  0.40667889  0.24416077  0.93930309  1
  Se  Se159  1  0.40504624  0.59843271  0.45194316  1
  Se  Se160  1  0.41640283  0.57934951  0.93852908  1
  Se  Se161  1  0.39144172  0.94635718  0.45184700  1
  Se  Se162  1  0.41426689  0.91814606  0.93100302  1
  Se  Se163  1  0.75537802  0.24212666  0.44926193  1
  Se  Se164  1  0.74400254  0.24924871  0.94285933  1
  Se  Se165  1  0.74485542  0.58099741  0.44725806  1
  Se  Se166  1  0.75765551  0.58030885  0.95067936  1
  Se  Se167  1  0.75434522  0.91373265  0.44891466  1
  Se  Se168  1  0.75313844  0.91852592  0.94828485  1
  Se  Se169  1  0.24687054  0.09069045  0.45910326  1
  Se  Se170  1  0.24207627  0.08141892  0.93789728  1
  Se  Se171  1  0.24649703  0.41704819  0.44861675  1
  Se  Se172  1  0.25452552  0.40863641  0.94326007  1
  Se  Se173  1  0.24990165  0.74907058  0.44095291  1
  Se  Se174  1  0.25091102  0.74709413  0.93772737  1
  Se  Se175  1  0.59305382  0.08042747  0.44510121  1
  Se  Se176  1  0.58898529  0.08151893  0.93857730  1
  Se  Se177  1  0.58609928  0.41163325  0.44379229  1
  Se  Se178  1  0.58663154  0.41593447  0.93775579  1
  Se  Se179  1  0.58361821  0.75581493  0.44810454  1
  Se  Se180  1  0.59495115  0.74359860  0.94047288  1
  Se  Se181  1  0.91732121  0.08044232  0.45293807  1
  Se  Se182  1  0.91611132  0.08522540  0.94360627  1
  Se  Se183  1  0.91676125  0.40985827  0.45142020  1
  Se  Se184  1  0.91238985  0.41998149  0.94810392  1
  Se  Se185  1  0.92106353  0.74118463  0.45871310  1
  Se  Se186  1  0.90763651  0.76642541  0.94240929  1
  Se  Se187  1  0.25556933  0.24786906  0.30437365  1
  Se  Se188  1  0.24359569  0.25511490  0.80522583  1
  Se  Se189  1  0.24128705  0.57432867  0.31414667  1
  Se  Se190  1  0.25538020  0.58837201  0.79271736  1
  Se  Se191  1  0.24910601  0.90923097  0.30967488  1
  Se  Se192  1  0.25030535  0.92239132  0.79712835  1
  Se  Se193  1  0.58615435  0.25354566  0.30154884  1
  Se  Se194  1  0.58492681  0.25836444  0.79380368  1
  Se  Se195  1  0.57632382  0.57974399  0.30598253  1
  Se  Se196  1  0.57783089  0.57950144  0.80707280  1
  Se  Se197  1  0.59255714  0.92271112  0.30982392  1
  Se  Se198  1  0.58065204  0.90548630  0.79750984  1
  Se  Se199  1  0.91167388  0.24362757  0.31716394  1
  Se  Se200  1  0.91094864  0.24841366  0.81477046  1
  Se  Se201  1  0.90983591  0.57965139  0.31519470  1
  Se  Se202  1  0.91414368  0.58351929  0.80199161  1
  Se  Se203  1  0.91022164  0.91099825  0.31456304  1
  Se  Se204  1  0.91453358  0.91912607  0.80240126  1
  Se  Se205  1  0.09279441  0.08353825  0.31224087  1
  Se  Se206  1  0.08317009  0.09156741  0.79634973  1
  Se  Se207  1  0.08063212  0.42346678  0.32127957  1
  Se  Se208  1  0.09084841  0.42636498  0.79726887  1
  Se  Se209  1  0.09082454  0.75384959  0.30653283  1
  Se  Se210  1  0.08122224  0.75357041  0.79810375  1
  Se  Se211  1  0.42864360  0.08933566  0.32341036  1
  Se  Se212  1  0.42278384  0.08623974  0.79710004  1
  Se  Se213  1  0.40754286  0.42466007  0.30325124  1
  Se  Se214  1  0.42837337  0.42634973  0.81056531  1
  Se  Se215  1  0.43330894  0.75651027  0.31710722  1
  Se  Se216  1  0.41084030  0.74245958  0.79549556  1
  Se  Se217  1  0.74688858  0.08397849  0.30597400  1
  Se  Se218  1  0.72747123  0.05949929  0.80850984  1
  Se  Se219  1  0.74716440  0.41556418  0.30437583  1
  Se  Se220  1  0.75160240  0.41915405  0.80026467  1
  Se  Se221  1  0.75310675  0.74595275  0.30735960  1
  Se  Se222  1  0.75482313  0.74980138  0.80991607  1
  Se  Se223  1  0.24212134  0.07764204  0.18991888  1
  Se  Se224  1  0.25260713  0.09018335  0.70554764  1
  Se  Se225  1  0.24826713  0.40116373  0.20361226  1
  Se  Se226  1  0.25208446  0.42551726  0.68242422  1
  Se  Se227  1  0.25538648  0.74744629  0.19278522  1
  Se  Se228  1  0.25007444  0.75457228  0.69575898  1
  Se  Se229  1  0.58294995  0.08148666  0.20115176  1
  Se  Se230  1  0.58622380  0.07841403  0.69496367  1
  Se  Se231  1  0.57673593  0.42815091  0.20282284  1
  Se  Se232  1  0.58760096  0.41912678  0.69588552  1
  Se  Se233  1  0.59383463  0.74508735  0.20348489  1
  Se  Se234  1  0.57561133  0.75329870  0.67957754  1
  Se  Se235  1  0.91056807  0.09329726  0.19423775  1
  Se  Se236  1  0.90914808  0.08850976  0.70378047  1
  Se  Se237  1  0.91038154  0.42187060  0.19414957  1
  Se  Se238  1  0.91512229  0.42548593  0.68262489  1
  Se  Se239  1  0.91186900  0.76173520  0.18856788  1
  Se  Se240  1  0.91355333  0.74372192  0.69692536  1
  Se  Se241  1  0.08341918  0.23602739  0.19218123  1
  Se  Se242  1  0.09227596  0.24439239  0.68983733  1
  Se  Se243  1  0.09246584  0.56964341  0.19363776  1
  Se  Se244  1  0.07574078  0.58944422  0.69256848  1
  Se  Se245  1  0.08399168  0.90375440  0.18522698  1
  Se  Se246  1  0.07516073  0.92530520  0.70335528  1
  Se  Se247  1  0.41396169  0.24040036  0.19946045  1
  Se  Se248  1  0.42543830  0.24707081  0.68194896  1
  Se  Se249  1  0.42310314  0.57745900  0.18841563  1
  Se  Se250  1  0.41535673  0.58591911  0.68736545  1
  Se  Se251  1  0.42750689  0.90509478  0.19560781  1
  Se  Se252  1  0.41426863  0.91838798  0.69387289  1
  Se  Se253  1  0.74755532  0.25672742  0.19778568  1
  Se  Se254  1  0.75653107  0.25436971  0.70386556  1
  Se  Se255  1  0.75709414  0.58852307  0.19322675  1
  Se  Se256  1  0.75767657  0.58258259  0.68331589  1
  Se  Se257  1  0.74945167  0.92465185  0.19921453  1
  Se  Se258  1  0.74998138  0.91486968  0.69587125  1
