# generated using pymatgen
data_In86Cu29Se144
_symmetry_space_group_name_H-M   'P 1'
_cell_length_a   17.59135431
_cell_length_b   17.58591359
_cell_length_c   23.45196976
_cell_angle_alpha   90.00879600
_cell_angle_beta   90.00556854
_cell_angle_gamma   90.04074563
_symmetry_Int_Tables_number   1
_chemical_formula_structural   In86Cu29Se144
_chemical_formula_sum   'In86 Cu29 Se144'
_cell_volume   7255.10027495
_cell_formula_units_Z   1
loop_
 _symmetry_equiv_pos_site_id
 _symmetry_equiv_pos_as_xyz
  1  'x, y, z'
loop_
 _atom_site_type_symbol
 _atom_site_label
 _atom_site_symmetry_multiplicity
 _atom_site_fract_x
 _atom_site_fract_y
 _atom_site_fract_z
 _atom_site_occupancy
  In  In0  1  0.00477523  0.16988515  0.12145118  1
  In  In1  1  0.00189654  0.15513393  0.62875047  1
  In  In2  1  -0.00119709  0.49702279  0.13019672  1
  In  In3  1  0.00448620  0.50457051  0.63326459  1
  In  In4  1  -0.00343691  0.83288823  0.13377674  1
  In  In5  1  0.01250390  0.82361227  0.62516180  1
  In  In6  1  0.33016772  0.18647410  0.12457646  1
  In  In7  1  0.32414794  0.16817041  0.61860315  1
  In  In8  1  0.33406523  0.49348954  0.12163706  1
  In  In9  1  0.33827533  0.48769993  0.62532892  1
  In  In10  1  0.31809883  0.82948882  0.12808364  1
  In  In11  1  0.33825773  0.84465280  0.61468761  1
  In  In12  1  0.67182689  0.15462801  0.12759372  1
  In  In13  1  0.66879558  0.18244616  0.62827511  1
  In  In14  1  0.67822693  0.51666058  0.11157348  1
  In  In15  1  0.65167658  0.50463991  0.62640413  1
  In  In16  1  0.67218139  0.82822138  0.13702787  1
  In  In17  1  0.65854842  0.83806230  0.61976693  1
  In  In18  1  0.15594939  0.00664602  0.37884797  1
  In  In19  1  0.17782636  0.02509655  0.85321924  1
  In  In20  1  0.16998722  0.33076773  0.37107669  1
  In  In21  1  0.18298427  0.31940461  0.89300791  1
  In  In22  1  0.16800704  0.66551132  0.37221494  1
  In  In23  1  0.15558614  0.66107481  0.87497561  1
  In  In24  1  0.50131591  -0.00324337  0.38039383  1
  In  In25  1  0.49764528  0.01681640  0.86742347  1
  In  In26  1  0.48776819  0.34689591  0.38737895  1
  In  In27  1  0.50866726  0.33814273  0.86753200  1
  In  In28  1  0.49542957  0.66558902  0.37373176  1
  In  In29  1  0.49775529  0.65952575  0.87964315  1
  In  In30  1  0.83466657  0.00266445  0.36623285  1
  In  In31  1  0.84854006  -0.00396852  0.87671353  1
  In  In32  1  0.83979859  0.32850611  0.36707140  1
  In  In33  1  0.82132748  0.34308233  0.88592226  1
  In  In34  1  0.83970512  0.66665467  0.35961310  1
  In  In35  1  0.84231178  0.62924588  0.87946902  1
  In  In36  1  0.01329197  0.17295137  0.36740634  1
  In  In37  1  0.00683456  0.16265105  0.87976648  1
  In  In38  1  0.00680090  0.50335885  0.36024570  1
  In  In39  1  -0.00334014  0.50362223  0.88019589  1
  In  In40  1  0.00058981  0.83355439  0.37231661  1
  In  In41  1  0.00547915  0.83500833  0.86847756  1
  In  In42  1  0.32622466  0.17858043  0.38449438  1
  In  In43  1  0.32777328  0.17185426  0.86282683  1
  In  In44  1  0.33411521  0.50128299  0.37005839  1
  In  In45  1  0.35039417  0.47725444  0.89500668  1
  In  In46  1  0.33886025  0.82346008  0.38314395  1
  In  In47  1  0.31944419  0.83741081  0.87151409  1
  In  In48  1  0.66577966  0.15940640  0.37251571  1
  In  In49  1  0.65793908  0.18185900  0.87749250  1
  In  In50  1  0.65637750  0.49787020  0.36977544  1
  In  In51  1  0.68297732  0.48563890  0.89451451  1
  In  In52  1  0.65619667  0.82430355  0.36785057  1
  In  In53  1  0.66117976  0.82599776  0.87427474  1
  In  In54  1  0.15595456  -0.00282142  0.12317781  1
  In  In55  1  0.16832264  0.00283480  0.62092098  1
  In  In56  1  0.16987666  0.33112455  0.11926421  1
  In  In57  1  0.18493013  0.32679035  0.62970486  1
  In  In58  1  0.17739661  0.65614961  0.13640404  1
  In  In59  1  0.15174999  0.67144253  0.62050237  1
  In  In60  1  0.50765694  0.01171329  0.13039435  1
  In  In61  1  0.48216564  -0.00448340  0.61612880  1
  In  In62  1  0.47739041  0.34752330  0.12857673  1
  In  In63  1  0.49502706  0.33549044  0.61967836  1
  In  In64  1  0.51215095  0.64856343  0.13866223  1
  In  In65  1  0.49598453  0.66439092  0.61361349  1
  In  In66  1  0.83538508  0.00182929  0.12815069  1
  In  In67  1  0.84017288  0.00611691  0.62852213  1
  In  In68  1  0.85291593  0.35147609  0.11746378  1
  In  In69  1  0.83531072  0.32386695  0.63449453  1
  In  In70  1  0.83558654  0.65479249  0.13791799  1
  In  In71  1  0.83906171  0.66813541  0.62688428  1
  In  In72  1  0.66908612  0.00589092  0.74037754  1
  In  In73  1  0.83073914  0.16674219  0.50452989  1
  In  In74  1  0.83281577  0.83471456  0.48735039  1
  In  In75  1  0.83068199  0.50035631  0.49936802  1
  In  In76  1  0.32517224  0.66842657  0.75274884  1
  In  In77  1  0.15827493  0.83177402  -0.00395611  1
  In  In78  1  0.49725494  0.82516857  -0.00031972  1
  In  In79  1  0.67057554  0.33589755  0.24323856  1
  In  In80  1  0.83866426  0.82537478  0.00849149  1
  In  In81  1  0.50019585  0.17005362  0.00251793  1
  In  In82  1  0.00496083  0.33397803  0.75364446  1
  In  In83  1  0.33322565  -0.00281989  0.25776584  1
  In  In84  1  0.67458029  0.65965530  0.75728257  1
  In  In85  1  0.17254381  0.49747200  0.49589616  1
  Cu  Cu86  1  0.84411390  0.82546349  0.75218284  1
  Cu  Cu87  1  0.50491892  0.17165207  0.25125648  1
  Cu  Cu88  1  0.33298426  0.65685448  0.00744507  1
  Cu  Cu89  1  0.00965699  0.33699142  0.49637591  1
  Cu  Cu90  1  0.33065599  0.66650506  0.49470471  1
  Cu  Cu91  1  -0.00203280  0.33572899  0.00142520  1
  Cu  Cu92  1  0.16038391  0.82770772  0.25298941  1
  Cu  Cu93  1  0.48863891  0.17438352  0.74353653  1
  Cu  Cu94  1  0.00189007  0.00030996  0.49934286  1
  Cu  Cu95  1  0.00839627  0.01202500  -0.00444453  1
  Cu  Cu96  1  0.66395789  0.32908003  0.00519254  1
  Cu  Cu97  1  0.66083163  0.33630400  0.50221557  1
  Cu  Cu98  1  0.83296424  0.83796986  0.25097798  1
  Cu  Cu99  1  0.49828212  0.49086331  0.75106623  1
  Cu  Cu100  1  0.16653282  0.84481522  0.74439776  1
  Cu  Cu101  1  0.16763074  0.49226057  0.24593138  1
  Cu  Cu102  1  0.16886150  0.50150137  0.75482080  1
  Cu  Cu103  1  0.32517415  0.00356540  0.49653126  1
  Cu  Cu104  1  0.84562078  0.16631511  0.24570760  1
  Cu  Cu105  1  0.83055082  0.17055597  0.75767154  1
  Cu  Cu106  1  0.16821809  0.16568758  0.24834281  1
  Cu  Cu107  1  0.49584536  0.83349302  0.25731912  1
  Cu  Cu108  1  0.65222517  -0.00027297  0.49852377  1
  Cu  Cu109  1  0.49989215  0.83260591  0.74163574  1
  Cu  Cu110  1  0.66206590  0.67003189  0.49314639  1
  Cu  Cu111  1  0.67485714  -0.00638308  0.00644484  1
  Cu  Cu112  1  0.33026934  0.00780323  -0.01132042  1
  Cu  Cu113  1  -0.00298624  0.66306277  0.00611601  1
  Cu  Cu114  1  0.49407178  0.50186151  0.25115474  1
  Se  Se115  1  0.09286958  0.08922885  0.05188123  1
  Se  Se116  1  0.08202677  0.08670591  0.55217626  1
  Se  Se117  1  0.07961987  0.41760224  0.05774856  1
  Se  Se118  1  0.08177792  0.41397406  0.56353695  1
  Se  Se119  1  0.07932952  0.74329593  0.06455172  1
  Se  Se120  1  0.08156834  0.75139407  0.54569519  1
  Se  Se121  1  0.40839590  0.07601150  0.05915274  1
  Se  Se122  1  0.41102411  0.08667766  0.54857301  1
  Se  Se123  1  0.40528587  0.40919699  0.04666983  1
  Se  Se124  1  0.42602956  0.42928184  0.55086896  1
  Se  Se125  1  0.40893158  0.74317741  0.06571308  1
  Se  Se126  1  0.41426761  0.75085505  0.54930593  1
  Se  Se127  1  0.75634157  0.08154023  0.05458741  1
  Se  Se128  1  0.73682670  0.07284080  0.56094178  1
  Se  Se129  1  0.75089933  0.41559649  0.05240923  1
  Se  Se130  1  0.74772227  0.40788844  0.56343396  1
  Se  Se131  1  0.74394433  0.73978994  0.06445793  1
  Se  Se132  1  0.74469275  0.74483562  0.55518879  1
  Se  Se133  1  0.25091681  0.24976369  0.04771621  1
  Se  Se134  1  0.24742495  0.25468743  0.54821203  1
  Se  Se135  1  0.24320327  0.57849908  0.05723231  1
  Se  Se136  1  0.25667551  0.58935431  0.56226947  1
  Se  Se137  1  0.25631964  0.92385824  0.05151050  1
  Se  Se138  1  0.24373775  0.91618310  0.54871401  1
  Se  Se139  1  0.58474414  0.25565508  0.07028439  1
  Se  Se140  1  0.58291593  0.24797527  0.55444262  1
  Se  Se141  1  0.56595736  0.57349035  0.05443399  1
  Se  Se142  1  0.58426814  0.58335006  0.54831240  1
  Se  Se143  1  0.58713550  0.91767505  0.06166335  1
  Se  Se144  1  0.57302502  0.91291110  0.55139809  1
  Se  Se145  1  0.91554968  0.24833362  0.05343002  1
  Se  Se146  1  0.92768103  0.25912989  0.55840086  1
  Se  Se147  1  0.91429092  0.58240909  0.06133350  1
  Se  Se148  1  0.92615744  0.58742261  0.55663451  1
  Se  Se149  1  0.93286495  0.92502293  0.05519294  1
  Se  Se150  1  0.91708643  0.92058493  0.55632595  1
  Se  Se151  1  0.08800158  0.25031658  0.44339635  1
  Se  Se152  1  0.08051790  0.24810973  0.95154240  1
  Se  Se153  1  0.07520311  0.58356256  0.44130188  1
  Se  Se154  1  0.08213804  0.58376344  0.95095375  1
  Se  Se155  1  0.07974152  0.91379035  0.44483459  1
  Se  Se156  1  0.08570593  0.93120602  0.93347298  1
  Se  Se157  1  0.43247191  0.23739674  0.44641378  1
  Se  Se158  1  0.41694491  0.25217151  0.93482894  1
  Se  Se159  1  0.41326958  0.58171013  0.44282655  1
  Se  Se160  1  0.42205633  0.58128477  0.95334841  1
  Se  Se161  1  0.41251039  0.91881218  0.44716730  1
  Se  Se162  1  0.41436349  0.92400465  0.93650355  1
  Se  Se163  1  0.74472986  0.25953175  0.44165568  1
  Se  Se164  1  0.74661598  0.24625268  0.95096927  1
  Se  Se165  1  0.74580536  0.59141906  0.43546979  1
  Se  Se166  1  0.74369218  0.59295494  0.95369458  1
  Se  Se167  1  0.73752757  0.92790946  0.43634481  1
  Se  Se168  1  0.74753713  0.91377644  0.94190515  1
  Se  Se169  1  0.24170544  0.08791513  0.44533583  1
  Se  Se170  1  0.24879830  0.09082703  0.93670822  1
  Se  Se171  1  0.26352530  0.40504606  0.44250916  1
  Se  Se172  1  0.22792861  0.43885890  0.94693419  1
  Se  Se173  1  0.24227591  0.74816962  0.44620862  1
  Se  Se174  1  0.25811862  0.73902330  0.94446508  1
  Se  Se175  1  0.57899762  0.09077848  0.44558211  1
  Se  Se176  1  0.59221459  0.07268147  0.94538986  1
  Se  Se177  1  0.58456297  0.42470249  0.44875343  1
  Se  Se178  1  0.57921702  0.40949413  0.94951807  1
  Se  Se179  1  0.57574966  0.75335892  0.44361425  1
  Se  Se180  1  0.59566793  0.73533182  0.94807977  1
  Se  Se181  1  0.92041916  0.08256132  0.44022338  1
  Se  Se182  1  0.91295901  0.08740614  0.94768535  1
  Se  Se183  1  0.92470174  0.41274120  0.43877977  1
  Se  Se184  1  0.91472241  0.42110000  0.94957884  1
  Se  Se185  1  0.92195473  0.73554441  0.43965015  1
  Se  Se186  1  0.92557220  0.74363697  0.93971611  1
  Se  Se187  1  0.25328489  0.24634820  0.30243693  1
  Se  Se188  1  0.24153392  0.26051609  0.80313745  1
  Se  Se189  1  0.24565997  0.57865837  0.30319284  1
  Se  Se190  1  0.25360254  0.57281868  0.81870356  1
  Se  Se191  1  0.24115413  0.90740346  0.31486768  1
  Se  Se192  1  0.25518276  0.92262267  0.79692663  1
  Se  Se193  1  0.58176435  0.25573180  0.31139212  1
  Se  Se194  1  0.58076858  0.24729857  0.79766475  1
  Se  Se195  1  0.57923183  0.58558591  0.30250824  1
  Se  Se196  1  0.57804997  0.57148837  0.81163308  1
  Se  Se197  1  0.58021733  0.92099562  0.30495349  1
  Se  Se198  1  0.57962931  0.91338864  0.80340577  1
  Se  Se199  1  0.92564774  0.25164737  0.29943069  1
  Se  Se200  1  0.90962259  0.25199387  0.81706148  1
  Se  Se201  1  0.91218661  0.57326576  0.29570065  1
  Se  Se202  1  0.93559779  0.59092760  0.80243084  1
  Se  Se203  1  0.92042436  0.91846578  0.30297669  1
  Se  Se204  1  0.92130170  0.91810165  0.80100005  1
  Se  Se205  1  0.08391006  0.07990610  0.29863828  1
  Se  Se206  1  0.06402548  0.07992983  0.79934477  1
  Se  Se207  1  0.08593043  0.40828239  0.30044263  1
  Se  Se208  1  0.09260470  0.41963118  0.81670012  1
  Se  Se209  1  0.07717428  0.74296893  0.30488657  1
  Se  Se210  1  0.09460323  0.75557675  0.80284246  1
  Se  Se211  1  0.42231310  0.09270697  0.31159911  1
  Se  Se212  1  0.41146733  0.08512815  0.79614265  1
  Se  Se213  1  0.41628638  0.41249011  0.30394790  1
  Se  Se214  1  0.41020442  0.41382738  0.80519528  1
  Se  Se215  1  0.41009689  0.74795599  0.30461859  1
  Se  Se216  1  0.42445638  0.75818936  0.80991314  1
  Se  Se217  1  0.75537329  0.09155676  0.30061711  1
  Se  Se218  1  0.74983681  0.08543511  0.81444912  1
  Se  Se219  1  0.75863118  0.42530941  0.30591464  1
  Se  Se220  1  0.74696213  0.42006042  0.81024461  1
  Se  Se221  1  0.74817139  0.75205024  0.30069709  1
  Se  Se222  1  0.76611556  0.75095674  0.81637360  1
  Se  Se223  1  0.24968666  0.08328781  0.18920099  1
  Se  Se224  1  0.25469791  0.07889425  0.69019960  1
  Se  Se225  1  0.25202645  0.41095989  0.19213667  1
  Se  Se226  1  0.25173197  0.42046086  0.69957788  1
  Se  Se227  1  0.25114503  0.74833208  0.20434122  1
  Se  Se228  1  0.24570668  0.75890450  0.68598879  1
  Se  Se229  1  0.58933240  0.08439403  0.20408265  1
  Se  Se230  1  0.57064285  0.09050315  0.68489846  1
  Se  Se231  1  0.57720496  0.42708354  0.18833556  1
  Se  Se232  1  0.58119950  0.41240550  0.69364594  1
  Se  Se233  1  0.57872958  0.75184424  0.20063163  1
  Se  Se234  1  0.58175662  0.74629179  0.69127277  1
  Se  Se235  1  0.92681078  0.08138336  0.19180089  1
  Se  Se236  1  0.91172913  0.08836168  0.70191537  1
  Se  Se237  1  0.91648371  0.41741464  0.20171266  1
  Se  Se238  1  0.90924830  0.42477576  0.69732030  1
  Se  Se239  1  0.91477263  0.74958381  0.20026920  1
  Se  Se240  1  0.92469067  0.74576883  0.69463773  1
  Se  Se241  1  0.08824947  0.24970622  0.19186055  1
  Se  Se242  1  0.09079698  0.24205961  0.69331386  1
  Se  Se243  1  0.08251918  0.58157492  0.19949304  1
  Se  Se244  1  0.09046407  0.58621864  0.69943752  1
  Se  Se245  1  0.08475962  0.91584113  0.19803039  1
  Se  Se246  1  0.07962104  0.92216820  0.68999220  1
  Se  Se247  1  0.41700163  0.25100107  0.19994738  1
  Se  Se248  1  0.40825408  0.25513927  0.68707270  1
  Se  Se249  1  0.40615875  0.58095821  0.19644582  1
  Se  Se250  1  0.42401190  0.58313434  0.69510616  1
  Se  Se251  1  0.42152397  0.91138271  0.18939723  1
  Se  Se252  1  0.41345680  0.91633621  0.69427141  1
  Se  Se253  1  0.76412396  0.24651723  0.18582310  1
  Se  Se254  1  0.74686361  0.25344242  0.70556988  1
  Se  Se255  1  0.73381153  0.58491615  0.19843517  1
  Se  Se256  1  0.75844353  0.57307453  0.69054075  1
  Se  Se257  1  0.75042511  0.92293997  0.19783946  1
  Se  Se258  1  0.76036205  0.90178320  0.69111159  1
