# generated using pymatgen
data_In86Cu29Se144
_symmetry_space_group_name_H-M   'P 1'
_cell_length_a   17.53005003
_cell_length_b   17.52898907
_cell_length_c   23.38448184
_cell_angle_alpha   89.99991340
_cell_angle_beta   89.99672435
_cell_angle_gamma   89.99385247
_symmetry_Int_Tables_number   1
_chemical_formula_structural   In86Cu29Se144
_chemical_formula_sum   'In86 Cu29 Se144'
_cell_volume   7185.67835985
_cell_formula_units_Z   1
loop_
 _symmetry_equiv_pos_site_id
 _symmetry_equiv_pos_as_xyz
  1  'x, y, z'
loop_
 _atom_site_type_symbol
 _atom_site_label
 _atom_site_symmetry_multiplicity
 _atom_site_fract_x
 _atom_site_fract_y
 _atom_site_fract_z
 _atom_site_occupancy
  In  In0  1  0.01569709  0.17478776  0.12974319  1
  In  In1  1  0.00570729  0.16934404  0.62482001  1
  In  In2  1  0.00021209  0.49797728  0.11700135  1
  In  In3  1  -0.01236796  0.51394050  0.63721498  1
  In  In4  1  -0.00361120  0.81978024  0.10158745  1
  In  In5  1  -0.02425298  0.84759867  0.65221919  1
  In  In6  1  0.33130705  0.15153962  0.13919271  1
  In  In7  1  0.32863655  0.16307767  0.61471295  1
  In  In8  1  0.33321212  0.49784905  0.12364279  1
  In  In9  1  0.32920044  0.49229143  0.62060600  1
  In  In10  1  0.33277760  0.83214523  0.11876468  1
  In  In11  1  0.34673932  0.84578687  0.62821787  1
  In  In12  1  0.65807834  0.18278688  0.12770015  1
  In  In13  1  0.65707742  0.16012165  0.61300352  1
  In  In14  1  0.67569960  0.50243263  0.11866067  1
  In  In15  1  0.66136374  0.49363605  0.61471641  1
  In  In16  1  0.66111758  0.82730205  0.11395301  1
  In  In17  1  0.68132559  0.83487119  0.63600578  1
  In  In18  1  0.18251340  -0.00077182  0.37320421  1
  In  In19  1  0.15575490  -0.01265524  0.86399285  1
  In  In20  1  0.15542257  0.32211041  0.35706025  1
  In  In21  1  0.16018536  0.34232589  0.87504645  1
  In  In22  1  0.17327700  0.65946278  0.37218297  1
  In  In23  1  0.14505421  0.68585292  0.91063607  1
  In  In24  1  0.49616646  0.00558431  0.37567243  1
  In  In25  1  0.50146084  -0.00048474  0.86878014  1
  In  In26  1  0.49169624  0.34008606  0.37874154  1
  In  In27  1  0.49061199  0.34232229  0.88377373  1
  In  In28  1  0.47972058  0.65906897  0.37337017  1
  In  In29  1  0.48827853  0.67754203  0.89307102  1
  In  In30  1  0.83167368  0.00420483  0.38940994  1
  In  In31  1  0.82163988  -0.02026600  0.85196603  1
  In  In32  1  0.84118606  0.32851557  0.38758793  1
  In  In33  1  0.84782041  0.33482900  0.87130246  1
  In  In34  1  0.83018895  0.67025333  0.38549145  1
  In  In35  1  0.84340079  0.66246412  0.88157452  1
  In  In36  1  -0.00773059  0.17743521  0.38811356  1
  In  In37  1  -0.00200674  0.16217097  0.86259019  1
  In  In38  1  0.00951507  0.49396344  0.37800479  1
  In  In39  1  -0.00022438  0.50134962  0.87873048  1
  In  In40  1  -0.00927363  0.83046644  0.37925321  1
  In  In41  1  -0.00059866  0.83071687  0.87537671  1
  In  In42  1  0.33002392  0.16553945  0.37363625  1
  In  In43  1  0.34904991  0.16387731  0.87774313  1
  In  In44  1  0.34342910  0.50339881  0.36746474  1
  In  In45  1  0.31468172  0.52205038  0.90252766  1
  In  In46  1  0.32476938  0.83116321  0.36511513  1
  In  In47  1  0.32776000  0.83500902  0.88158425  1
  In  In48  1  0.65916099  0.18090839  0.39843529  1
  In  In49  1  0.66151908  0.15378744  0.87073559  1
  In  In50  1  0.66830391  0.49142417  0.38654975  1
  In  In51  1  0.66118969  0.51124400  0.88105783  1
  In  In52  1  0.66795062  0.84511725  0.37909286  1
  In  In53  1  0.66134768  0.84579243  0.87340306  1
  In  In54  1  0.17975265  -0.00033884  0.12205681  1
  In  In55  1  0.16188309  0.00505788  0.63153632  1
  In  In56  1  0.15815353  0.33333221  0.14003447  1
  In  In57  1  0.17163886  0.32251468  0.62357009  1
  In  In58  1  0.18647270  0.68125130  0.10068759  1
  In  In59  1  0.15553561  0.65902991  0.62542181  1
  In  In60  1  0.48320155  -0.01309375  0.11150654  1
  In  In61  1  0.48969961  0.00583567  0.64013279  1
  In  In62  1  0.49475376  0.31710814  0.11977237  1
  In  In63  1  0.50533416  0.33277950  0.61019542  1
  In  In64  1  0.47318630  0.64842469  0.09903597  1
  In  In65  1  0.50503957  0.66989650  0.62565645  1
  In  In66  1  0.84182534  -0.00689743  0.12091337  1
  In  In67  1  0.83349967  -0.00250191  0.63022849  1
  In  In68  1  0.83945543  0.34801793  0.12556765  1
  In  In69  1  0.84058785  0.34580807  0.61379855  1
  In  In70  1  0.83854679  0.66402590  0.10790494  1
  In  In71  1  0.83725581  0.67592354  0.62342393  1
  In  In72  1  0.66080750  0.00586412  0.25888151  1
  In  In73  1  0.01483772  0.66364840  0.24054255  1
  In  In74  1  0.82516321  0.16098079  -0.00564468  1
  In  In75  1  0.66265146  0.33606724  0.25954351  1
  In  In76  1  0.50663174  0.82743606  0.50397742  1
  In  In77  1  0.32264731  0.67412811  0.76292928  1
  In  In78  1  0.65963803  0.66427490  0.23951028  1
  In  In79  1  0.17022177  0.49791307  0.49645625  1
  In  In80  1  0.01056126  0.00345661  0.24723455  1
  In  In81  1  0.16185178  0.83321536  0.49579349  1
  In  In82  1  0.16959296  0.16395010  0.00668286  1
  In  In83  1  0.32943940  0.33205918  0.74979089  1
  In  In84  1  0.67125131  0.67139945  0.75074136  1
  In  In85  1  0.66898275  0.32930459  0.73845371  1
  Cu  Cu86  1  0.33930483  0.00484409  0.50065802  1
  Cu  Cu87  1  0.67729586  0.67567845  -0.00541045  1
  Cu  Cu88  1  0.67326371  -0.00907103  0.50641846  1
  Cu  Cu89  1  0.17089778  0.16279119  0.74372024  1
  Cu  Cu90  1  0.00714871  0.34021968  0.50174248  1
  Cu  Cu91  1  -0.01179961  0.67555938  0.50896991  1
  Cu  Cu92  1  0.33666336  0.33470426  0.00622730  1
  Cu  Cu93  1  0.83400434  0.49835000  0.75139747  1
  Cu  Cu94  1  0.49084743  0.15567444  0.25046991  1
  Cu  Cu95  1  0.85209369  0.49731089  0.25059231  1
  Cu  Cu96  1  -0.00361775  -0.01107420  -0.01139777  1
  Cu  Cu97  1  0.66417175  0.66009660  0.50465881  1
  Cu  Cu98  1  0.00039218  0.00415829  0.51304936  1
  Cu  Cu99  1  0.49744412  0.50214203  0.24361070  1
  Cu  Cu100  1  0.16946411  0.83515391  0.23961782  1
  Cu  Cu101  1  0.33756425  0.33066147  0.49194446  1
  Cu  Cu102  1  0.17782198  0.50306379  0.24685462  1
  Cu  Cu103  1  0.14879166  0.50334085  0.75913896  1
  Cu  Cu104  1  0.66340625  0.00470617  -0.00970453  1
  Cu  Cu105  1  0.84026084  0.17386413  0.26268985  1
  Cu  Cu106  1  0.66408848  0.33612412  0.00023519  1
  Cu  Cu107  1  0.83213092  0.83236256  0.24783488  1
  Cu  Cu108  1  0.84123990  0.16416858  0.74378417  1
  Cu  Cu109  1  0.48190816  0.83001252  0.23903978  1
  Cu  Cu110  1  -0.00129226  0.33524406  0.00042954  1
  Cu  Cu111  1  0.17117215  0.82535579  0.75785959  1
  Cu  Cu112  1  0.50249418  0.16355732  0.74893425  1
  Cu  Cu113  1  0.48737857  0.50493932  0.75527055  1
  Cu  Cu114  1  0.33222861  0.00035445  -0.00153364  1
  Se  Se115  1  0.06899967  0.07019128  0.05651527  1
  Se  Se116  1  0.09294768  0.08809691  0.55517664  1
  Se  Se117  1  0.08819422  0.40556714  0.05812218  1
  Se  Se118  1  0.08074026  0.42177346  0.56644929  1
  Se  Se119  1  0.07903604  0.73510156  0.03642884  1
  Se  Se120  1  0.07225322  0.75662832  0.56547212  1
  Se  Se121  1  0.40724385  0.08989459  0.05428374  1
  Se  Se122  1  0.42679878  0.08106760  0.55613848  1
  Se  Se123  1  0.42469739  0.41650923  0.05688597  1
  Se  Se124  1  0.41278224  0.41717459  0.54985312  1
  Se  Se125  1  0.43315039  0.77248563  0.05037691  1
  Se  Se126  1  0.40520518  0.74294538  0.55788731  1
  Se  Se127  1  0.73679757  0.07767623  0.06322078  1
  Se  Se128  1  0.75619146  0.07867871  0.55638350  1
  Se  Se129  1  0.75508318  0.41528770  0.05022239  1
  Se  Se130  1  0.74198563  0.41070623  0.54775091  1
  Se  Se131  1  0.75974746  0.76082899  0.04763000  1
  Se  Se132  1  0.74296269  0.74963848  0.55713123  1
  Se  Se133  1  0.25582153  0.25470600  0.06795164  1
  Se  Se134  1  0.25010828  0.25148229  0.54672380  1
  Se  Se135  1  0.26120380  0.57764244  0.04661063  1
  Se  Se136  1  0.25546416  0.59409048  0.55556976  1
  Se  Se137  1  0.24632252  0.91366457  0.04776461  1
  Se  Se138  1  0.25473687  0.92221369  0.55706853  1
  Se  Se139  1  0.58181313  0.24476498  0.04622161  1
  Se  Se140  1  0.58242287  0.24645707  0.54361027  1
  Se  Se141  1  0.59756845  0.59304823  0.05358291  1
  Se  Se142  1  0.57315143  0.58171768  0.55345181  1
  Se  Se143  1  0.58455467  0.91988842  0.04842673  1
  Se  Se144  1  0.58749289  0.91972538  0.56820595  1
  Se  Se145  1  0.91924426  0.24795081  0.05764961  1
  Se  Se146  1  0.92564951  0.25290962  0.55388498  1
  Se  Se147  1  0.92257493  0.57896842  0.04579552  1
  Se  Se148  1  0.91084401  0.58004165  0.55626514  1
  Se  Se149  1  0.90794606  0.91148748  0.04361592  1
  Se  Se150  1  0.92049323  0.91328077  0.56195727  1
  Se  Se151  1  0.09107336  0.25933985  0.44623427  1
  Se  Se152  1  0.07450234  0.24680150  0.94254224  1
  Se  Se153  1  0.07432565  0.60030981  0.44740900  1
  Se  Se154  1  0.10478715  0.55281156  0.94672882  1
  Se  Se155  1  0.07255223  0.93060962  0.44054511  1
  Se  Se156  1  0.09201208  0.90985543  0.94495860  1
  Se  Se157  1  0.42032721  0.24127980  0.44347305  1
  Se  Se158  1  0.41764398  0.24952210  0.95174950  1
  Se  Se159  1  0.41569232  0.57514880  0.44837367  1
  Se  Se160  1  0.43520034  0.56852994  0.95437357  1
  Se  Se161  1  0.41004026  0.91299710  0.44217438  1
  Se  Se162  1  0.41797085  0.92222957  0.94204474  1
  Se  Se163  1  0.76246169  0.24642211  0.45735230  1
  Se  Se164  1  0.74019545  0.25847830  0.93382853  1
  Se  Se165  1  0.75150971  0.58065603  0.45042333  1
  Se  Se166  1  0.75566836  0.58065507  0.94818242  1
  Se  Se167  1  0.75708053  0.90755562  0.45372663  1
  Se  Se168  1  0.75370010  0.92355297  0.94137091  1
  Se  Se169  1  0.25109829  0.08324670  0.44788905  1
  Se  Se170  1  0.24894158  0.07678014  0.93643344  1
  Se  Se171  1  0.25412154  0.40971498  0.43181377  1
  Se  Se172  1  0.24641507  0.40688503  0.95079215  1
  Se  Se173  1  0.25846359  0.74127761  0.44372572  1
  Se  Se174  1  0.27971447  0.72458116  0.94560484  1
  Se  Se175  1  0.58725279  0.06919242  0.44858926  1
  Se  Se176  1  0.57363045  0.08783797  0.94443317  1
  Se  Se177  1  0.58711870  0.40329126  0.44871592  1
  Se  Se178  1  0.58167203  0.42248255  0.94781421  1
  Se  Se179  1  0.58928154  0.73729402  0.43621546  1
  Se  Se180  1  0.58880563  0.75936033  0.94661923  1
  Se  Se181  1  0.91656938  0.08658599  0.45578066  1
  Se  Se182  1  0.91611763  0.07439249  0.93295480  1
  Se  Se183  1  0.92210569  0.42431753  0.44966027  1
  Se  Se184  1  0.91370667  0.41721262  0.94820421  1
  Se  Se185  1  0.90728296  0.76018900  0.45354040  1
  Se  Se186  1  0.92447863  0.74716324  0.94843544  1
  Se  Se187  1  0.26550131  0.25999703  0.30286704  1
  Se  Se188  1  0.24264800  0.24001416  0.81342188  1
  Se  Se189  1  0.25810458  0.58858394  0.29990323  1
  Se  Se190  1  0.23368243  0.58061386  0.81833017  1
  Se  Se191  1  0.24980653  0.91884300  0.29517516  1
  Se  Se192  1  0.25654611  0.91366971  0.80339716  1
  Se  Se193  1  0.57448701  0.23492770  0.31089148  1
  Se  Se194  1  0.57416334  0.25361845  0.80829558  1
  Se  Se195  1  0.58199212  0.57287990  0.30866185  1
  Se  Se196  1  0.56999462  0.58893448  0.81012812  1
  Se  Se197  1  0.56652526  0.90141536  0.30496658  1
  Se  Se198  1  0.59860989  0.93537016  0.79960250  1
  Se  Se199  1  0.92413120  0.26065068  0.30980564  1
  Se  Se200  1  0.91924935  0.25266137  0.79657979  1
  Se  Se201  1  0.91971176  0.58864967  0.31099442  1
  Se  Se202  1  0.91628244  0.58053869  0.80600594  1
  Se  Se203  1  0.90821393  0.91846234  0.30708147  1
  Se  Se204  1  0.93884347  0.92440235  0.80172419  1
  Se  Se205  1  0.08353985  0.08982006  0.31923911  1
  Se  Se206  1  0.08437619  0.08032554  0.79654695  1
  Se  Se207  1  0.08433855  0.42699296  0.29748739  1
  Se  Se208  1  0.06966574  0.40927892  0.80396600  1
  Se  Se209  1  0.09131989  0.76236896  0.30846865  1
  Se  Se210  1  0.09353835  0.74265494  0.81572016  1
  Se  Se211  1  0.40762761  0.07292906  0.30360786  1
  Se  Se212  1  0.41429894  0.08288238  0.79990885  1
  Se  Se213  1  0.42076146  0.41431720  0.29890669  1
  Se  Se214  1  0.40432285  0.42928146  0.81498695  1
  Se  Se215  1  0.40935993  0.74461055  0.30027351  1
  Se  Se216  1  0.42699199  0.75985350  0.81008390  1
  Se  Se217  1  0.75226220  0.09673578  0.31821593  1
  Se  Se218  1  0.75126215  0.08894629  0.79784634  1
  Se  Se219  1  0.76364809  0.42503875  0.31000758  1
  Se  Se220  1  0.74689080  0.42118248  0.80863524  1
  Se  Se221  1  0.74847079  0.75419445  0.30660109  1
  Se  Se222  1  0.75927207  0.75515483  0.81479598  1
  Se  Se223  1  0.22229112  0.09270654  0.19959478  1
  Se  Se224  1  0.25986917  0.08301367  0.69327897  1
  Se  Se225  1  0.25854477  0.41334333  0.19684007  1
  Se  Se226  1  0.23409742  0.42901006  0.69646445  1
  Se  Se227  1  0.24953140  0.74720438  0.18781443  1
  Se  Se228  1  0.24528064  0.75534076  0.68560459  1
  Se  Se229  1  0.57406171  0.08298761  0.18678049  1
  Se  Se230  1  0.59170708  0.08572047  0.69629350  1
  Se  Se231  1  0.58190628  0.42084754  0.18711513  1
  Se  Se232  1  0.56792767  0.42571474  0.69302902  1
  Se  Se233  1  0.56573590  0.75090262  0.18175508  1
  Se  Se234  1  0.57302543  0.76253327  0.69702091  1
  Se  Se235  1  0.90839502  0.09258149  0.19318406  1
  Se  Se236  1  0.92735785  0.08071520  0.69289139  1
  Se  Se237  1  0.93232166  0.41465951  0.19591607  1
  Se  Se238  1  0.91401582  0.41180960  0.69715010  1
  Se  Se239  1  0.91356170  0.75312587  0.18814342  1
  Se  Se240  1  0.91482925  0.73506096  0.70556807  1
  Se  Se241  1  0.08295070  0.24553215  0.20974887  1
  Se  Se242  1  0.08728640  0.25252580  0.69718965  1
  Se  Se243  1  0.10495089  0.57996773  0.17811583  1
  Se  Se244  1  0.07572181  0.59334847  0.70415524  1
  Se  Se245  1  0.08003843  0.90309186  0.17927010  1
  Se  Se246  1  0.09273433  0.91153417  0.70053808  1
  Se  Se247  1  0.41646996  0.24769639  0.19748465  1
  Se  Se248  1  0.42384653  0.24845477  0.68759572  1
  Se  Se249  1  0.41630856  0.58771382  0.19070769  1
  Se  Se250  1  0.40850903  0.58456936  0.69240148  1
  Se  Se251  1  0.40364411  0.92388856  0.19222372  1
  Se  Se252  1  0.41762565  0.91430411  0.70782433  1
  Se  Se253  1  0.75884909  0.25029244  0.19689789  1
  Se  Se254  1  0.76054649  0.24114060  0.67991923  1
  Se  Se255  1  0.76872786  0.57845591  0.19176583  1
  Se  Se256  1  0.74998205  0.57279859  0.68865944  1
  Se  Se257  1  0.74774039  0.91465860  0.19225503  1
  Se  Se258  1  0.76370996  0.91180282  0.70519382  1
