# generated using pymatgen
data_In86Cu29Se144
_symmetry_space_group_name_H-M   'P 1'
_cell_length_a   17.59385565
_cell_length_b   17.59429657
_cell_length_c   23.45734436
_cell_angle_alpha   89.98658280
_cell_angle_beta   90.00575864
_cell_angle_gamma   89.99400317
_symmetry_Int_Tables_number   1
_chemical_formula_structural   In86Cu29Se144
_chemical_formula_sum   'In86 Cu29 Se144'
_cell_volume   7261.25618873
_cell_formula_units_Z   1
loop_
 _symmetry_equiv_pos_site_id
 _symmetry_equiv_pos_as_xyz
  1  'x, y, z'
loop_
 _atom_site_type_symbol
 _atom_site_label
 _atom_site_symmetry_multiplicity
 _atom_site_fract_x
 _atom_site_fract_y
 _atom_site_fract_z
 _atom_site_occupancy
  In  In0  1  0.00978273  0.16739726  0.12405563  1
  In  In1  1  0.00256173  0.16414088  0.63144564  1
  In  In2  1  0.01471184  0.48767258  0.13311476  1
  In  In3  1  -0.00039949  0.48320986  0.62551089  1
  In  In4  1  0.00265181  0.83771437  0.12966186  1
  In  In5  1  -0.00522342  0.84772695  0.62593897  1
  In  In6  1  0.30928154  0.14306787  0.10763125  1
  In  In7  1  0.34495706  0.16721422  0.62977694  1
  In  In8  1  0.32649635  0.51441058  0.12131464  1
  In  In9  1  0.32015745  0.48734255  0.60985566  1
  In  In10  1  0.33851999  0.82906884  0.12279610  1
  In  In11  1  0.33519979  0.82627363  0.62429870  1
  In  In12  1  0.65581956  0.14990957  0.11843082  1
  In  In13  1  0.65200732  0.15710342  0.62262571  1
  In  In14  1  0.67493251  0.50457208  0.13170063  1
  In  In15  1  0.65704795  0.51045707  0.62032087  1
  In  In16  1  0.65659971  0.84736603  0.13630160  1
  In  In17  1  0.66569690  0.83723478  0.61516686  1
  In  In18  1  0.16300670  -0.00055218  0.35377341  1
  In  In19  1  0.14806065  0.01812214  0.89829193  1
  In  In20  1  0.17481675  0.34428705  0.37177981  1
  In  In21  1  0.16936021  0.33324366  0.87486147  1
  In  In22  1  0.16110661  0.66014377  0.36524434  1
  In  In23  1  0.17915620  0.66399322  0.90076501  1
  In  In24  1  0.50227363  -0.00148150  0.37748456  1
  In  In25  1  0.50617241  -0.00080094  0.87683175  1
  In  In26  1  0.48193864  0.33227603  0.38977437  1
  In  In27  1  0.48456954  0.33493807  0.87180931  1
  In  In28  1  0.49906595  0.66647767  0.36786087  1
  In  In29  1  0.50103417  0.68044821  0.87756654  1
  In  In30  1  0.82330442  -0.00790324  0.36421842  1
  In  In31  1  0.84214518  0.00935883  0.86487472  1
  In  In32  1  0.84186706  0.32452409  0.37396131  1
  In  In33  1  0.83216680  0.30703486  0.87391186  1
  In  In34  1  0.84645048  0.68412629  0.37002384  1
  In  In35  1  0.82688082  0.66590016  0.87952063  1
  In  In36  1  0.00074485  0.16698901  0.35671189  1
  In  In37  1  -0.00055678  0.16447519  0.87520310  1
  In  In38  1  0.00945148  0.50828740  0.36903073  1
  In  In39  1  0.02341410  0.49260609  0.88052220  1
  In  In40  1  -0.00199900  0.83270016  0.36930976  1
  In  In41  1  0.00070762  0.85459029  0.88187690  1
  In  In42  1  0.34245958  0.16736843  0.37245046  1
  In  In43  1  0.32224620  0.18623499  0.89118622  1
  In  In44  1  0.32422732  0.49973669  0.37765794  1
  In  In45  1  0.32711586  0.48724497  0.87589204  1
  In  In46  1  0.34390829  0.84399768  0.36506934  1
  In  In47  1  0.33177667  0.83669524  0.88698357  1
  In  In48  1  0.65276678  0.15059090  0.36916372  1
  In  In49  1  0.67927156  0.15284033  0.88110474  1
  In  In50  1  0.64903833  0.50165783  0.37714677  1
  In  In51  1  0.66406366  0.51185148  0.87341027  1
  In  In52  1  0.66924636  0.83832699  0.37563006  1
  In  In53  1  0.64740089  0.85145131  0.87744981  1
  In  In54  1  0.17130336  0.00630857  0.12955890  1
  In  In55  1  0.15290189  -0.00786428  0.63075966  1
  In  In56  1  0.15589459  0.31624429  0.10484836  1
  In  In57  1  0.15848510  0.33657810  0.63165817  1
  In  In58  1  0.16995210  0.66544977  0.12328360  1
  In  In59  1  0.18311930  0.66314650  0.62424912  1
  In  In60  1  0.49946515  -0.00283789  0.12747767  1
  In  In61  1  0.50168657  -0.00115373  0.62036376  1
  In  In62  1  0.49411060  0.32223536  0.11873499  1
  In  In63  1  0.48843678  0.32634417  0.61937823  1
  In  In64  1  0.48097050  0.68729662  0.14130635  1
  In  In65  1  0.50140838  0.66937820  0.61208677  1
  In  In66  1  0.83489324  0.00266775  0.12519237  1
  In  In67  1  0.83539436  -0.00488187  0.62276137  1
  In  In68  1  0.85287465  0.32604174  0.12726248  1
  In  In69  1  0.84439351  0.33590609  0.62729579  1
  In  In70  1  0.83067412  0.67548810  0.13919032  1
  In  In71  1  0.82181921  0.66861323  0.62011502  1
  In  In72  1  0.83941249  0.84080076  0.01050705  1
  In  In73  1  0.66902743  0.32357598  0.74436727  1
  In  In74  1  0.82983629  0.50215617  0.50492261  1
  In  In75  1  0.49995728  0.50197755  -0.00172183  1
  In  In76  1  0.84260100  0.49216028  0.01152495  1
  In  In77  1  0.16909695  0.82846561  0.49897852  1
  In  In78  1  0.17530546  0.16955289  0.49493323  1
  In  In79  1  0.32606158  0.32711651  0.24438484  1
  In  In80  1  0.33619805  0.66902229  0.75621832  1
  In  In81  1  0.00302136  0.66942122  0.75857932  1
  In  In82  1  0.82921729  0.16040608  0.49836559  1
  In  In83  1  0.67004236  0.33339959  0.25621148  1
  In  In84  1  0.66781199  0.67137804  0.74088829  1
  In  In85  1  0.33133235  0.00507063  0.75801304  1
  Cu  Cu86  1  0.66408359  0.32459860  -0.00001979  1
  Cu  Cu87  1  0.65854253  0.67054201  0.00713428  1
  Cu  Cu88  1  0.83794275  0.15238014  0.75066246  1
  Cu  Cu89  1  0.16747370  0.49819822  0.24715636  1
  Cu  Cu90  1  0.50019952  0.16690156  0.75083785  1
  Cu  Cu91  1  0.84287278  0.48687917  0.75553711  1
  Cu  Cu92  1  0.16513612  0.16500886  0.76006291  1
  Cu  Cu93  1  0.83564149  0.83969866  0.25121993  1
  Cu  Cu94  1  0.17231494  0.82998588  0.24288004  1
  Cu  Cu95  1  0.34321159  -0.00440829  0.00477745  1
  Cu  Cu96  1  0.16095966  0.84053120  0.76414579  1
  Cu  Cu97  1  0.33696277  -0.00091089  0.49598417  1
  Cu  Cu98  1  -0.00331705  -0.00071284  0.49390116  1
  Cu  Cu99  1  0.49786293  0.49848812  0.24842399  1
  Cu  Cu100  1  0.67035031  0.67511355  0.49169069  1
  Cu  Cu101  1  0.33702072  0.66501007  0.49209594  1
  Cu  Cu102  1  0.82623161  0.83625257  0.74816392  1
  Cu  Cu103  1  0.83508476  0.17124252  0.24448830  1
  Cu  Cu104  1  0.48762939  0.50174003  0.74372783  1
  Cu  Cu105  1  0.50241305  0.83516467  0.25409867  1
  Cu  Cu106  1  0.66055811  0.32607110  0.49888901  1
  Cu  Cu107  1  0.16744330  0.49542678  0.74837685  1
  Cu  Cu108  1  0.83535792  0.50983755  0.25329761  1
  Cu  Cu109  1  -0.00063192  0.67085438  0.00940132  1
  Cu  Cu110  1  0.66591353  -0.00332221  0.00253647  1
  Cu  Cu111  1  0.00893186  0.66724625  0.49417693  1
  Cu  Cu112  1  0.00034822  0.32643425  -0.00267253  1
  Cu  Cu113  1  0.00963918  0.33713710  0.49774633  1
  Cu  Cu114  1  0.49939810  0.15726955  0.25088072  1
  Se  Se115  1  0.10524863  0.09805488  0.05691950  1
  Se  Se116  1  0.07787267  0.07843790  0.55367915  1
  Se  Se117  1  0.07786218  0.41844881  0.04765081  1
  Se  Se118  1  0.09011961  0.41902634  0.55289034  1
  Se  Se119  1  0.08281935  0.75456370  0.06011032  1
  Se  Se120  1  0.07816251  0.74462830  0.56547126  1
  Se  Se121  1  0.42529970  0.08364615  0.05526786  1
  Se  Se122  1  0.41255505  0.08203066  0.55581109  1
  Se  Se123  1  0.40885413  0.41532620  0.05797285  1
  Se  Se124  1  0.44076646  0.43968145  0.56034628  1
  Se  Se125  1  0.42208423  0.74739390  0.05334800  1
  Se  Se126  1  0.41157369  0.75192309  0.54864517  1
  Se  Se127  1  0.75242919  0.08015930  0.05248091  1
  Se  Se128  1  0.73779431  0.07116175  0.55481327  1
  Se  Se129  1  0.74245449  0.40232663  0.06344290  1
  Se  Se130  1  0.73962242  0.40414123  0.56118031  1
  Se  Se131  1  0.74243250  0.74981036  0.06427404  1
  Se  Se132  1  0.75364877  0.75405389  0.54805702  1
  Se  Se133  1  0.26803018  0.26013441  0.04954397  1
  Se  Se134  1  0.25323823  0.25354845  0.56584024  1
  Se  Se135  1  0.24524467  0.58589945  0.04775369  1
  Se  Se136  1  0.24858700  0.58580430  0.54548808  1
  Se  Se137  1  0.25555188  0.92084271  0.06091532  1
  Se  Se138  1  0.25384128  0.92612541  0.55988669  1
  Se  Se139  1  0.58027215  0.24267009  0.05200139  1
  Se  Se140  1  0.57868424  0.24586267  0.55490180  1
  Se  Se141  1  0.58303386  0.58711012  0.06677668  1
  Se  Se142  1  0.58780679  0.58868016  0.54383978  1
  Se  Se143  1  0.58190493  0.91401591  0.05549825  1
  Se  Se144  1  0.56539646  0.90202774  0.55224015  1
  Se  Se145  1  0.91862991  0.24326613  0.05167578  1
  Se  Se146  1  0.92774900  0.25323969  0.55400052  1
  Se  Se147  1  0.92072533  0.59096444  0.07088352  1
  Se  Se148  1  0.92922417  0.59138205  0.56124311  1
  Se  Se149  1  0.93623023  0.93477569  0.05611011  1
  Se  Se150  1  0.91573103  0.91621816  0.54858533  1
  Se  Se151  1  0.07695392  0.25139407  0.43530462  1
  Se  Se152  1  0.08524683  0.24766454  0.94189540  1
  Se  Se153  1  0.09005965  0.58191862  0.44427515  1
  Se  Se154  1  0.07877828  0.58373236  0.95575006  1
  Se  Se155  1  0.08611877  0.92411869  0.43836233  1
  Se  Se156  1  0.10049022  0.89955431  0.95293870  1
  Se  Se157  1  0.40135593  0.24571702  0.45360752  1
  Se  Se158  1  0.42361793  0.25726539  0.95112114  1
  Se  Se159  1  0.41864464  0.58150212  0.43831849  1
  Se  Se160  1  0.41136615  0.58859853  0.93501330  1
  Se  Se161  1  0.41803155  0.91196004  0.44542664  1
  Se  Se162  1  0.42590746  0.91686014  0.94753311  1
  Se  Se163  1  0.74022913  0.25241036  0.43666736  1
  Se  Se164  1  0.75342485  0.24173936  0.95190138  1
  Se  Se165  1  0.75090329  0.58802891  0.43526452  1
  Se  Se166  1  0.74333775  0.58551909  0.95445882  1
  Se  Se167  1  0.75290733  0.92181344  0.44286935  1
  Se  Se168  1  0.75144331  0.92155233  0.94141493  1
  Se  Se169  1  0.25045914  0.06804359  0.43509906  1
  Se  Se170  1  0.25967987  0.08053907  0.95281061  1
  Se  Se171  1  0.26209751  0.40269835  0.44672982  1
  Se  Se172  1  0.23725914  0.42363610  0.94643268  1
  Se  Se173  1  0.25618260  0.74654900  0.43258333  1
  Se  Se174  1  0.26197911  0.75215856  0.95998643  1
  Se  Se175  1  0.57271833  0.09061904  0.44732664  1
  Se  Se176  1  0.58458560  0.08252667  0.94810383  1
  Se  Se177  1  0.57907151  0.41372939  0.44795264  1
  Se  Se178  1  0.59419533  0.41103387  0.93776648  1
  Se  Se179  1  0.58134616  0.74996906  0.43773356  1
  Se  Se180  1  0.58492317  0.75543627  0.94861341  1
  Se  Se181  1  0.92283281  0.08254332  0.43373655  1
  Se  Se182  1  0.91687079  0.07909598  0.94136295  1
  Se  Se183  1  0.92147975  0.41544061  0.44308895  1
  Se  Se184  1  0.91740287  0.40776445  0.93669435  1
  Se  Se185  1  0.92514323  0.75457803  0.44761282  1
  Se  Se186  1  0.92001323  0.74372376  0.94459992  1
  Se  Se187  1  0.23914088  0.23782469  0.30732248  1
  Se  Se188  1  0.25297820  0.24958720  0.80562846  1
  Se  Se189  1  0.25180460  0.57906620  0.30136554  1
  Se  Se190  1  0.23676779  0.58300185  0.81084721  1
  Se  Se191  1  0.25496008  0.91590239  0.29491639  1
  Se  Se192  1  0.24082891  0.92183729  0.82152072  1
  Se  Se193  1  0.56658810  0.25146636  0.30983818  1
  Se  Se194  1  0.58271718  0.24401710  0.81365150  1
  Se  Se195  1  0.58407090  0.58150172  0.29890392  1
  Se  Se196  1  0.56958079  0.58258171  0.80222083  1
  Se  Se197  1  0.58557869  0.92019907  0.30530822  1
  Se  Se198  1  0.57977319  0.92433249  0.79862232  1
  Se  Se199  1  0.91737246  0.25878769  0.29443642  1
  Se  Se200  1  0.91830331  0.24262134  0.79930494  1
  Se  Se201  1  0.92247599  0.59101958  0.30464362  1
  Se  Se202  1  0.91246091  0.57362891  0.81679681  1
  Se  Se203  1  0.92357665  0.92322222  0.30107849  1
  Se  Se204  1  0.91649495  0.91162524  0.80164589  1
  Se  Se205  1  0.07814916  0.08169403  0.29036233  1
  Se  Se206  1  0.08412139  0.07662834  0.80887625  1
  Se  Se207  1  0.08422130  0.41600252  0.30243397  1
  Se  Se208  1  0.08411444  0.41177404  0.80099047  1
  Se  Se209  1  0.08588559  0.75419217  0.30174366  1
  Se  Se210  1  0.09190235  0.75015683  0.82395136  1
  Se  Se211  1  0.41547654  0.07646034  0.30543479  1
  Se  Se212  1  0.41658335  0.09835270  0.81707917  1
  Se  Se213  1  0.41886662  0.41541869  0.30671443  1
  Se  Se214  1  0.40885950  0.41768934  0.79935512  1
  Se  Se215  1  0.41434071  0.74741699  0.29888188  1
  Se  Se216  1  0.42269940  0.76890391  0.80750847  1
  Se  Se217  1  0.75180910  0.09112832  0.30065549  1
  Se  Se218  1  0.74332648  0.07735265  0.79870552  1
  Se  Se219  1  0.75906958  0.42827857  0.31588755  1
  Se  Se220  1  0.75121613  0.41649957  0.81253606  1
  Se  Se221  1  0.75206949  0.75533231  0.30414512  1
  Se  Se222  1  0.74958641  0.75744306  0.81194555  1
  Se  Se223  1  0.25250698  0.09092910  0.19904284  1
  Se  Se224  1  0.23882941  0.08848715  0.69063442  1
  Se  Se225  1  0.24149201  0.41833282  0.18279361  1
  Se  Se226  1  0.25316763  0.41758880  0.69374994  1
  Se  Se227  1  0.25577247  0.74487916  0.19291324  1
  Se  Se228  1  0.23798542  0.76265436  0.70015866  1
  Se  Se229  1  0.58591588  0.07700215  0.19889847  1
  Se  Se230  1  0.57685875  0.07913818  0.69735465  1
  Se  Se231  1  0.57621050  0.41537922  0.18972885  1
  Se  Se232  1  0.57998604  0.42303881  0.69195462  1
  Se  Se233  1  0.58776496  0.74954595  0.20215790  1
  Se  Se234  1  0.57176493  0.75754805  0.68755201  1
  Se  Se235  1  0.91784403  0.08858767  0.19116115  1
  Se  Se236  1  0.92082209  0.07354367  0.69285636  1
  Se  Se237  1  0.91122025  0.42402653  0.19675121  1
  Se  Se238  1  0.92609831  0.40564852  0.70260047  1
  Se  Se239  1  0.92170263  0.75593761  0.20081675  1
  Se  Se240  1  0.90815593  0.75032513  0.69229452  1
  Se  Se241  1  0.07668220  0.26789552  0.18907596  1
  Se  Se242  1  0.08461975  0.24550184  0.69948163  1
  Se  Se243  1  0.08519421  0.58633601  0.19603473  1
  Se  Se244  1  0.08831811  0.58096495  0.69047749  1
  Se  Se245  1  0.08812668  0.91895303  0.19690074  1
  Se  Se246  1  0.07639254  0.91418382  0.70441826  1
  Se  Se247  1  0.41979836  0.23604489  0.19032793  1
  Se  Se248  1  0.41782319  0.25418503  0.70113497  1
  Se  Se249  1  0.41095485  0.58058442  0.19795596  1
  Se  Se250  1  0.41374811  0.58548622  0.68344032  1
  Se  Se251  1  0.41842204  0.91233116  0.19541297  1
  Se  Se252  1  0.41269677  0.91502805  0.69307641  1
  Se  Se253  1  0.74749456  0.24663191  0.18595264  1
  Se  Se254  1  0.76189423  0.23289502  0.68449261  1
  Se  Se255  1  0.74622894  0.58922744  0.20380597  1
  Se  Se256  1  0.76261108  0.56704924  0.69385179  1
  Se  Se257  1  0.75349052  0.92362732  0.19705616  1
  Se  Se258  1  0.74668746  0.91359729  0.68892365  1
