# generated using pymatgen
data_In86Cu29Se144
_symmetry_space_group_name_H-M   'P 1'
_cell_length_a   17.57443289
_cell_length_b   17.57511831
_cell_length_c   23.42518877
_cell_angle_alpha   90.03122646
_cell_angle_beta   90.03426553
_cell_angle_gamma   90.00449848
_symmetry_Int_Tables_number   1
_chemical_formula_structural   In86Cu29Se144
_chemical_formula_sum   'In86 Cu29 Se144'
_cell_volume   7235.39978628
_cell_formula_units_Z   1
loop_
 _symmetry_equiv_pos_site_id
 _symmetry_equiv_pos_as_xyz
  1  'x, y, z'
loop_
 _atom_site_type_symbol
 _atom_site_label
 _atom_site_symmetry_multiplicity
 _atom_site_fract_x
 _atom_site_fract_y
 _atom_site_fract_z
 _atom_site_occupancy
  In  In0  1  -0.00916825  0.16831007  0.14111792  1
  In  In1  1  0.00151721  0.17441613  0.61842282  1
  In  In2  1  -0.00370191  0.49719736  0.12615330  1
  In  In3  1  -0.00453425  0.50038516  0.62380676  1
  In  In4  1  -0.00931427  0.83833723  0.14030225  1
  In  In5  1  -0.01645448  0.82940111  0.62593688  1
  In  In6  1  0.34066392  0.17034616  0.12809342  1
  In  In7  1  0.33018773  0.16219361  0.62349966  1
  In  In8  1  0.34106749  0.51362824  0.11780612  1
  In  In9  1  0.33130672  0.50256586  0.62340236  1
  In  In10  1  0.33585836  0.82477179  0.12219520  1
  In  In11  1  0.35398641  0.83675958  0.62797346  1
  In  In12  1  0.65656998  0.15957752  0.13271335  1
  In  In13  1  0.67032058  0.18064211  0.60865899  1
  In  In14  1  0.67380465  0.50449343  0.11704905  1
  In  In15  1  0.67272382  0.49778771  0.61713221  1
  In  In16  1  0.67201407  0.83353033  0.12461353  1
  In  In17  1  0.67001492  0.82827345  0.61553834  1
  In  In18  1  0.16480845  0.00685059  0.37629260  1
  In  In19  1  0.17451958  -0.01237521  0.87241483  1
  In  In20  1  0.15378643  0.34735073  0.38359483  1
  In  In21  1  0.16891802  0.35129532  0.87505058  1
  In  In22  1  0.14723952  0.66390801  0.37112901  1
  In  In23  1  0.14881581  0.66622190  0.87353141  1
  In  In24  1  0.52833591  -0.01157239  0.40474030  1
  In  In25  1  0.49642915  -0.00019880  0.86890358  1
  In  In26  1  0.52603641  0.32186897  0.40035048  1
  In  In27  1  0.51160549  0.33896755  0.86449170  1
  In  In28  1  0.51647264  0.65635281  0.38932545  1
  In  In29  1  0.51418081  0.65647329  0.87626985  1
  In  In30  1  0.83256182  -0.00736545  0.38164852  1
  In  In31  1  0.82249416  -0.01125658  0.87428200  1
  In  In32  1  0.84106296  0.33028337  0.38325697  1
  In  In33  1  0.84497627  0.34204759  0.85958856  1
  In  In34  1  0.84590410  0.65379806  0.39539782  1
  In  In35  1  0.82601506  0.66516247  0.86930685  1
  In  In36  1  -0.00080337  0.17113804  0.37708279  1
  In  In37  1  -0.01544381  0.17136312  0.87033345  1
  In  In38  1  -0.00114710  0.50421834  0.37454472  1
  In  In39  1  -0.00832889  0.49920850  0.87606443  1
  In  In40  1  -0.01123339  0.81558662  0.36030883  1
  In  In41  1  -0.00508313  0.81895847  0.86879215  1
  In  In42  1  0.33326315  0.15853264  0.38333565  1
  In  In43  1  0.35025061  0.16010276  0.86361493  1
  In  In44  1  0.34091950  0.48356774  0.37881010  1
  In  In45  1  0.33219786  0.50508392  0.87771358  1
  In  In46  1  0.34204680  0.84107864  0.37457440  1
  In  In47  1  0.34129104  0.84975453  0.86685765  1
  In  In48  1  0.70243969  0.14840548  0.42348668  1
  In  In49  1  0.65293957  0.16977831  0.86082090  1
  In  In50  1  0.69436429  0.48686168  0.41157231  1
  In  In51  1  0.66838801  0.50005750  0.86800356  1
  In  In52  1  0.66187610  0.83291298  0.38967698  1
  In  In53  1  0.68340526  0.81406473  0.88330820  1
  In  In54  1  0.15382464  -0.01385707  0.12695913  1
  In  In55  1  0.16746588  0.01646608  0.62135490  1
  In  In56  1  0.14804989  0.34022735  0.13111796  1
  In  In57  1  0.15815545  0.32590088  0.62103346  1
  In  In58  1  0.16326697  0.65837073  0.12502045  1
  In  In59  1  0.16198501  0.65292575  0.62488661  1
  In  In60  1  0.51554668  -0.00236721  0.13293259  1
  In  In61  1  0.50575927  -0.00799574  0.61580265  1
  In  In62  1  0.49525673  0.33321389  0.12504052  1
  In  In63  1  0.51195716  0.34013275  0.61348442  1
  In  In64  1  0.50414667  0.66900862  0.11760545  1
  In  In65  1  0.52899224  0.68239017  0.60034206  1
  In  In66  1  0.83834716  -0.01183865  0.13746637  1
  In  In67  1  0.81226067  -0.00843101  0.60063703  1
  In  In68  1  0.83668973  0.34201544  0.12627149  1
  In  In69  1  0.83226334  0.33882504  0.61666761  1
  In  In70  1  0.83600370  0.66566482  0.12489964  1
  In  In71  1  0.83604070  0.66608464  0.62294012  1
  In  In72  1  0.16583905  0.83259696  0.48931213  1
  In  In73  1  0.33966993  0.66750851  0.74528508  1
  In  In74  1  0.82454366  0.16786479  -0.00412385  1
  In  In75  1  0.16832792  0.17309949  0.00850309  1
  In  In76  1  0.67684343  0.33461005  0.26746237  1
  In  In77  1  0.50324491  0.17297328  -0.01077970  1
  In  In78  1  0.32659117  0.00120351  0.25632891  1
  In  In79  1  -0.00048591  0.00982895  0.74269965  1
  In  In80  1  0.66805130  -0.00384825  0.73656288  1
  In  In81  1  0.32899523  0.66765407  0.24597415  1
  In  In82  1  0.67312478  0.66516305  0.25423785  1
  In  In83  1  0.33705248  0.33287386  0.74003334  1
  In  In84  1  0.16624868  0.82311278  0.00139760  1
  In  In85  1  0.33275280  0.33388511  0.25216285  1
  Cu  Cu86  1  0.51474427  0.83410162  0.74498894  1
  Cu  Cu87  1  -0.00251963  0.66381391  0.50049617  1
  Cu  Cu88  1  0.82059807  0.83697157  0.25543685  1
  Cu  Cu89  1  -0.00301199  0.00225085  0.50073948  1
  Cu  Cu90  1  0.34057498  0.00566890  -0.00598527  1
  Cu  Cu91  1  0.83105928  0.49825502  0.74537441  1
  Cu  Cu92  1  0.16990320  0.83676733  0.74680503  1
  Cu  Cu93  1  0.32849190  0.66211740  0.50312926  1
  Cu  Cu94  1  0.16749102  0.16992275  0.74611156  1
  Cu  Cu95  1  0.66810950  -0.01185701  0.00431461  1
  Cu  Cu96  1  0.83051565  0.16765112  0.73374934  1
  Cu  Cu97  1  0.16280936  0.16913831  0.25586610  1
  Cu  Cu98  1  0.50879115  0.50310259  0.73764198  1
  Cu  Cu99  1  -0.01067663  0.66167423  -0.00240109  1
  Cu  Cu100  1  0.33926731  0.67428952  -0.00506000  1
  Cu  Cu101  1  0.14884703  0.50149394  0.75145772  1
  Cu  Cu102  1  0.51393337  0.49473530  0.25531654  1
  Cu  Cu103  1  -0.00081248  0.33705730  0.50053769  1
  Cu  Cu104  1  0.32025249  0.33154166  0.50457602  1
  Cu  Cu105  1  0.82312484  0.16346682  0.26482971  1
  Cu  Cu106  1  0.33603046  0.35110108  -0.00011371  1
  Cu  Cu107  1  0.33094899  -0.00499951  0.50110040  1
  Cu  Cu108  1  0.51153973  0.15524813  0.26569965  1
  Cu  Cu109  1  0.00011169  0.33985731  -0.00188172  1
  Cu  Cu110  1  0.66998387  0.34155212  -0.00883592  1
  Cu  Cu111  1  0.16083927  0.50098121  0.25143786  1
  Cu  Cu112  1  -0.00793363  -0.01140764  0.00764294  1
  Cu  Cu113  1  0.66422124  0.66157540  -0.00369041  1
  Cu  Cu114  1  0.50361958  0.83735898  0.26284493  1
  Se  Se115  1  0.07137870  0.07875724  0.06125502  1
  Se  Se116  1  0.08166457  0.08672538  0.54993018  1
  Se  Se117  1  0.08432477  0.42108151  0.05279826  1
  Se  Se118  1  0.08279460  0.41838654  0.55595186  1
  Se  Se119  1  0.06762116  0.74372939  0.06089522  1
  Se  Se120  1  0.08076641  0.74680764  0.55749365  1
  Se  Se121  1  0.42051566  0.08187507  0.05821521  1
  Se  Se122  1  0.41244867  0.07734435  0.55593211  1
  Se  Se123  1  0.42590863  0.42414330  0.05537620  1
  Se  Se124  1  0.40675956  0.41264939  0.55683826  1
  Se  Se125  1  0.42180212  0.75539658  0.05031460  1
  Se  Se126  1  0.41258450  0.74879508  0.55222765  1
  Se  Se127  1  0.74411030  0.07619777  0.06300445  1
  Se  Se128  1  0.75469453  0.09937118  0.53851365  1
  Se  Se129  1  0.75390835  0.41414341  0.05201287  1
  Se  Se130  1  0.74309427  0.40798937  0.54239219  1
  Se  Se131  1  0.74397448  0.74083874  0.05763344  1
  Se  Se132  1  0.74389504  0.73252446  0.54976462  1
  Se  Se133  1  0.26183593  0.26874689  0.06428596  1
  Se  Se134  1  0.24313287  0.24199857  0.55584614  1
  Se  Se135  1  0.25420779  0.59523751  0.05179949  1
  Se  Se136  1  0.24412893  0.57843345  0.55274024  1
  Se  Se137  1  0.25749835  0.92623577  0.05476230  1
  Se  Se138  1  0.25081339  0.91389996  0.56137783  1
  Se  Se139  1  0.59529281  0.25782128  0.05516328  1
  Se  Se140  1  0.56171114  0.23474268  0.54378784  1
  Se  Se141  1  0.58081875  0.57852140  0.05162287  1
  Se  Se142  1  0.56429058  0.55557306  0.55223004  1
  Se  Se143  1  0.57922202  0.91149898  0.05773804  1
  Se  Se144  1  0.60425471  0.92763864  0.54957148  1
  Se  Se145  1  0.92474098  0.24889519  0.05606226  1
  Se  Se146  1  0.91439410  0.25029182  0.54940847  1
  Se  Se147  1  0.91184494  0.57772545  0.05549779  1
  Se  Se148  1  0.91357557  0.57906671  0.55155075  1
  Se  Se149  1  0.90975383  0.90722202  0.06124627  1
  Se  Se150  1  0.91737625  0.91222560  0.54918057  1
  Se  Se151  1  0.08271759  0.25071705  0.44840787  1
  Se  Se152  1  0.07721519  0.25360590  0.93924265  1
  Se  Se153  1  0.08366301  0.58136414  0.44848450  1
  Se  Se154  1  0.07788207  0.58182789  0.94571227  1
  Se  Se155  1  0.06909011  0.91951537  0.43523374  1
  Se  Se156  1  0.07654229  0.91825599  0.94184662  1
  Se  Se157  1  0.40487106  0.25877245  0.44418247  1
  Se  Se158  1  0.40605732  0.26539879  0.93579849  1
  Se  Se159  1  0.40889043  0.58393286  0.44319686  1
  Se  Se160  1  0.41920002  0.58548131  0.94353693  1
  Se  Se161  1  0.41797250  0.91173831  0.45232421  1
  Se  Se162  1  0.42263024  0.91837540  0.94405359  1
  Se  Se163  1  0.72765780  0.29064828  0.44998131  1
  Se  Se164  1  0.74134440  0.25559187  0.92930953  1
  Se  Se165  1  0.72974855  0.61710959  0.45773437  1
  Se  Se166  1  0.74782045  0.58060845  0.94102289  1
  Se  Se167  1  0.74789248  0.91801163  0.45377286  1
  Se  Se168  1  0.75540287  0.90923659  0.95162967  1
  Se  Se169  1  0.24554420  0.07911882  0.45108680  1
  Se  Se170  1  0.25550153  0.08602646  0.93971648  1
  Se  Se171  1  0.24536555  0.42196649  0.45001275  1
  Se  Se172  1  0.24579650  0.42913427  0.94875794  1
  Se  Se173  1  0.25705656  0.73868136  0.43330092  1
  Se  Se174  1  0.25800839  0.74776422  0.93007950  1
  Se  Se175  1  0.56134404  0.11672192  0.45224186  1
  Se  Se176  1  0.59737604  0.07280778  0.93991121  1
  Se  Se177  1  0.56099798  0.45059325  0.44837691  1
  Se  Se178  1  0.58088917  0.42066328  0.93965952  1
  Se  Se179  1  0.56555676  0.76180830  0.45533614  1
  Se  Se180  1  0.58101705  0.74962881  0.94743149  1
  Se  Se181  1  0.91690668  0.08565189  0.44450948  1
  Se  Se182  1  0.92067317  0.07117138  0.94231517  1
  Se  Se183  1  0.91870950  0.42316658  0.44762681  1
  Se  Se184  1  0.90879792  0.41275110  0.94436969  1
  Se  Se185  1  0.92273011  0.75847426  0.44976814  1
  Se  Se186  1  0.91213898  0.74708704  0.94143223  1
  Se  Se187  1  0.24453929  0.24765217  0.31575606  1
  Se  Se188  1  0.24757187  0.24884419  0.80933033  1
  Se  Se189  1  0.25008766  0.57248566  0.31077950  1
  Se  Se190  1  0.24131773  0.58046181  0.80373879  1
  Se  Se191  1  0.23747670  0.90398102  0.30965434  1
  Se  Se192  1  0.25540933  0.92166455  0.79441046  1
  Se  Se193  1  0.59260976  0.23726295  0.32233340  1
  Se  Se194  1  0.57240547  0.24884553  0.79222059  1
  Se  Se195  1  0.59418476  0.56938402  0.31751107  1
  Se  Se196  1  0.58725300  0.58491495  0.79717306  1
  Se  Se197  1  0.58547140  0.91881342  0.31634567  1
  Se  Se198  1  0.59119336  0.91086263  0.81031518  1
  Se  Se199  1  0.91234645  0.25054969  0.30706449  1
  Se  Se200  1  0.91591213  0.24679854  0.79150467  1
  Se  Se201  1  0.92163333  0.59999400  0.31142843  1
  Se  Se202  1  0.91222324  0.57944698  0.80396942  1
  Se  Se203  1  0.91127388  0.91820374  0.30471400  1
  Se  Se204  1  0.91428684  0.91622494  0.80363747  1
  Se  Se205  1  0.08003016  0.08440302  0.30700692  1
  Se  Se206  1  0.09172818  0.09060483  0.81266969  1
  Se  Se207  1  0.07874837  0.41653108  0.30413764  1
  Se  Se208  1  0.07365257  0.41286355  0.80568214  1
  Se  Se209  1  0.08611496  0.74802345  0.29541658  1
  Se  Se210  1  0.08644677  0.75290457  0.79739353  1
  Se  Se211  1  0.42578351  0.07392862  0.31991882  1
  Se  Se212  1  0.43327088  0.08630722  0.79401218  1
  Se  Se213  1  0.43635034  0.40754090  0.31157868  1
  Se  Se214  1  0.41849774  0.43364475  0.79955752  1
  Se  Se215  1  0.42534423  0.74505048  0.31237998  1
  Se  Se216  1  0.43068145  0.75608533  0.80647541  1
  Se  Se217  1  0.74254434  0.08822010  0.32560442  1
  Se  Se218  1  0.75848082  0.08914970  0.80241562  1
  Se  Se219  1  0.76371173  0.43484789  0.31889133  1
  Se  Se220  1  0.74608247  0.41348045  0.79756378  1
  Se  Se221  1  0.75421049  0.75275854  0.32073513  1
  Se  Se222  1  0.74965697  0.75167418  0.79918717  1
  Se  Se223  1  0.24097120  0.09285739  0.19029330  1
  Se  Se224  1  0.25047528  0.08292586  0.69829589  1
  Se  Se225  1  0.24978631  0.42945244  0.18917866  1
  Se  Se226  1  0.23563992  0.42473086  0.69259860  1
  Se  Se227  1  0.23674164  0.76160492  0.19114720  1
  Se  Se228  1  0.24683902  0.75636857  0.68444322  1
  Se  Se229  1  0.59198552  0.07397616  0.20855416  1
  Se  Se230  1  0.58569628  0.09121959  0.67942544  1
  Se  Se231  1  0.58865727  0.41322425  0.19185667  1
  Se  Se232  1  0.59071065  0.41400408  0.68956181  1
  Se  Se233  1  0.57478202  0.75434943  0.19616771  1
  Se  Se234  1  0.59047750  0.74781242  0.68850546  1
  Se  Se235  1  0.90613929  0.08448558  0.20496039  1
  Se  Se236  1  0.90339706  0.08010357  0.67545268  1
  Se  Se237  1  0.92535744  0.40700769  0.19716092  1
  Se  Se238  1  0.91416225  0.41391616  0.69167136  1
  Se  Se239  1  0.90189424  0.75197533  0.20082834  1
  Se  Se240  1  0.92032308  0.73988842  0.69682670  1
  Se  Se241  1  0.07958638  0.25355729  0.20318942  1
  Se  Se242  1  0.07928889  0.24879674  0.69584130  1
  Se  Se243  1  0.07911796  0.58348624  0.19604535  1
  Se  Se244  1  0.07183246  0.58779764  0.69690518  1
  Se  Se245  1  0.07426866  0.92488821  0.20446927  1
  Se  Se246  1  0.08909599  0.91434104  0.68398533  1
  Se  Se247  1  0.43500743  0.23597294  0.20304180  1
  Se  Se248  1  0.42806348  0.24676537  0.68308941  1
  Se  Se249  1  0.43406750  0.57667262  0.19617492  1
  Se  Se250  1  0.43022951  0.58830679  0.68044141  1
  Se  Se251  1  0.42002344  0.90859929  0.19639959  1
  Se  Se252  1  0.42941321  0.92157066  0.69762136  1
  Se  Se253  1  0.75344597  0.24274826  0.19404722  1
  Se  Se254  1  0.74718453  0.25470966  0.68610146  1
  Se  Se255  1  0.75877684  0.57064361  0.19514464  1
  Se  Se256  1  0.74988154  0.58049604  0.68973987  1
  Se  Se257  1  0.73740956  0.91892643  0.20123874  1
  Se  Se258  1  0.76522459  0.90500597  0.68671671  1
