# generated using pymatgen
data_In86Cu29Se144
_symmetry_space_group_name_H-M   'P 1'
_cell_length_a   17.57407721
_cell_length_b   17.57415227
_cell_length_c   23.43765562
_cell_angle_alpha   89.97664342
_cell_angle_beta   89.99542968
_cell_angle_gamma   90.00690489
_symmetry_Int_Tables_number   1
_chemical_formula_structural   In86Cu29Se144
_chemical_formula_sum   'In86 Cu29 Se144'
_cell_volume   7238.70775214
_cell_formula_units_Z   1
loop_
 _symmetry_equiv_pos_site_id
 _symmetry_equiv_pos_as_xyz
  1  'x, y, z'
loop_
 _atom_site_type_symbol
 _atom_site_label
 _atom_site_symmetry_multiplicity
 _atom_site_fract_x
 _atom_site_fract_y
 _atom_site_fract_z
 _atom_site_occupancy
  In  In0  1  -0.00527839  0.16153702  0.12554631  1
  In  In1  1  -0.01891491  0.17892685  0.61978914  1
  In  In2  1  -0.00443921  0.49782046  0.10830560  1
  In  In3  1  0.01525828  0.49553590  0.62394372  1
  In  In4  1  0.00975251  0.83233021  0.12620431  1
  In  In5  1  -0.00972964  0.82651345  0.61833751  1
  In  In6  1  0.33464780  0.15000795  0.12631174  1
  In  In7  1  0.33851309  0.16338809  0.63600983  1
  In  In8  1  0.34112809  0.50743436  0.11644969  1
  In  In9  1  0.33207098  0.50400574  0.62824515  1
  In  In10  1  0.33321036  0.82548710  0.13188456  1
  In  In11  1  0.33482320  0.83057818  0.62475958  1
  In  In12  1  0.65806333  0.15956719  0.11838270  1
  In  In13  1  0.68000722  0.16582437  0.62325919  1
  In  In14  1  0.66726303  0.50379549  0.11401419  1
  In  In15  1  0.65738604  0.51391063  0.64238788  1
  In  In16  1  0.66766842  0.84674863  0.12621236  1
  In  In17  1  0.65720239  0.82590963  0.61405499  1
  In  In18  1  0.15451255  -0.00784064  0.36564625  1
  In  In19  1  0.16930323  -0.01252407  0.87698633  1
  In  In20  1  0.17281027  0.33714107  0.38119281  1
  In  In21  1  0.18308972  0.33911104  0.87018085  1
  In  In22  1  0.17570135  0.66005050  0.38296455  1
  In  In23  1  0.15577694  0.65401187  0.86547093  1
  In  In24  1  0.49000094  -0.01022481  0.36795039  1
  In  In25  1  0.49621585  0.00596549  0.88204199  1
  In  In26  1  0.50633633  0.33846005  0.38038947  1
  In  In27  1  0.50247946  0.33543319  0.87308402  1
  In  In28  1  0.49425945  0.67750024  0.38368639  1
  In  In29  1  0.49736482  0.66802708  0.87399969  1
  In  In30  1  0.83186186  -0.00294193  0.37342977  1
  In  In31  1  0.83952871  0.01404860  0.88328520  1
  In  In32  1  0.82251195  0.33593490  0.37792640  1
  In  In33  1  0.82103769  0.34741800  0.87772835  1
  In  In34  1  0.84642301  0.67257734  0.37491616  1
  In  In35  1  0.82396824  0.64978887  0.85678677  1
  In  In36  1  0.00588414  0.14920767  0.37179710  1
  In  In37  1  -0.01755456  0.16417584  0.88471473  1
  In  In38  1  0.00289941  0.51284106  0.37519173  1
  In  In39  1  -0.01380753  0.52194607  0.88978606  1
  In  In40  1  -0.01006380  0.84329038  0.38540587  1
  In  In41  1  0.00732155  0.82590020  0.87558821  1
  In  In42  1  0.33743754  0.15992067  0.37049929  1
  In  In43  1  0.34181429  0.17600412  0.86785336  1
  In  In44  1  0.32542533  0.50964379  0.38370206  1
  In  In45  1  0.33371718  0.50364523  0.87455476  1
  In  In46  1  0.33469335  0.82898362  0.37764315  1
  In  In47  1  0.34156844  0.84090574  0.86811918  1
  In  In48  1  0.68023142  0.16411634  0.37828225  1
  In  In49  1  0.65990262  0.17625904  0.88169406  1
  In  In50  1  0.66029277  0.49209055  0.37751851  1
  In  In51  1  0.66545310  0.49807892  0.86929925  1
  In  In52  1  0.65322341  0.84850700  0.39254617  1
  In  In53  1  0.66676629  0.81745299  0.87210035  1
  In  In54  1  0.17054435  0.00308640  0.14230676  1
  In  In55  1  0.18028000  -0.00118347  0.62278690  1
  In  In56  1  0.16112765  0.33807437  0.12267706  1
  In  In57  1  0.16293507  0.34626211  0.62640563  1
  In  In58  1  0.17257808  0.67206814  0.12082877  1
  In  In59  1  0.16970532  0.66938720  0.62653616  1
  In  In60  1  0.49872976  -0.00447797  0.12288588  1
  In  In61  1  0.50287821  -0.01687318  0.61974064  1
  In  In62  1  0.50616396  0.33760958  0.11384674  1
  In  In63  1  0.48656572  0.34580055  0.63522088  1
  In  In64  1  0.48947501  0.66029725  0.11396066  1
  In  In65  1  0.49879781  0.66482729  0.62826393  1
  In  In66  1  0.82608805  0.00192426  0.13168627  1
  In  In67  1  0.82421633  0.00565857  0.60906638  1
  In  In68  1  0.83578046  0.33370168  0.11578006  1
  In  In69  1  0.83550002  0.32498604  0.62629385  1
  In  In70  1  0.84060327  0.65765840  0.11924857  1
  In  In71  1  0.82448272  0.66914167  0.63980773  1
  In  In72  1  0.00064801  0.32900549  0.24063819  1
  In  In73  1  0.66312248  -0.00362359  0.74157764  1
  In  In74  1  0.15980204  0.16673562  0.49870947  1
  In  In75  1  0.83315878  0.50314195  0.50469395  1
  In  In76  1  0.00255074  -0.00211491  0.75326863  1
  In  In77  1  0.66705951  0.33056449  0.25339117  1
  In  In78  1  0.66829149  0.67385688  0.24643362  1
  In  In79  1  0.17090287  0.16829495  0.00822911  1
  In  In80  1  0.00417581  0.33892738  0.74795044  1
  In  In81  1  0.16554778  0.82896081  0.00217098  1
  In  In82  1  0.00461295  0.66951103  0.24634155  1
  In  In83  1  0.82989399  0.82777260  -0.00067457  1
  In  In84  1  0.33614546  0.32790391  0.25518866  1
  In  In85  1  0.50214607  0.16715288  0.49707291  1
  Cu  Cu86  1  0.50212861  0.15604447  0.24494555  1
  Cu  Cu87  1  0.16946573  0.16110599  0.75147776  1
  Cu  Cu88  1  0.83462345  0.82965843  0.74785869  1
  Cu  Cu89  1  0.82705069  0.16901802  0.74993630  1
  Cu  Cu90  1  0.17214372  0.50360959  0.25189335  1
  Cu  Cu91  1  0.49892405  0.82871756  0.74582164  1
  Cu  Cu92  1  0.34311806  0.33602795  -0.00792272  1
  Cu  Cu93  1  0.33659426  -0.00068107  0.00072834  1
  Cu  Cu94  1  0.17124464  0.50272085  0.74956282  1
  Cu  Cu95  1  0.49590454  0.50970613  0.24495292  1
  Cu  Cu96  1  0.66909449  0.66340832  0.50982179  1
  Cu  Cu97  1  0.49651259  0.83395022  0.25311660  1
  Cu  Cu98  1  0.83166236  0.84168306  0.25649725  1
  Cu  Cu99  1  0.65942746  0.34135589  0.50537024  1
  Cu  Cu100  1  0.32955837  0.66883108  -0.00483371  1
  Cu  Cu101  1  0.33704901  0.66639244  0.50634960  1
  Cu  Cu102  1  0.00855641  0.66785061  0.50264845  1
  Cu  Cu103  1  0.50073417  0.16702283  0.75702200  1
  Cu  Cu104  1  0.16794847  0.82999241  0.25584267  1
  Cu  Cu105  1  0.83563224  0.16263745  0.25007888  1
  Cu  Cu106  1  -0.00117635  0.00038575  0.49430330  1
  Cu  Cu107  1  0.00649555  0.33321935  -0.00202599  1
  Cu  Cu108  1  0.33361772  -0.01029187  0.49667789  1
  Cu  Cu109  1  0.66532560  0.00084801  0.00397200  1
  Cu  Cu110  1  0.49562622  0.50143178  0.75488388  1
  Cu  Cu111  1  0.32797177  0.34161656  0.50761018  1
  Cu  Cu112  1  0.17256583  0.83141573  0.74976548  1
  Cu  Cu113  1  0.67175777  0.33218851  -0.00704001  1
  Cu  Cu114  1  0.66004965  0.66348706  -0.00875531  1
  Se  Se115  1  0.08435727  0.07038448  0.06236595  1
  Se  Se116  1  0.07188983  0.07726301  0.56355335  1
  Se  Se117  1  0.09129517  0.41843221  0.04748266  1
  Se  Se118  1  0.07474782  0.40318823  0.55106641  1
  Se  Se119  1  0.06729818  0.73480583  0.05241053  1
  Se  Se120  1  0.08900078  0.75412087  0.55567201  1
  Se  Se121  1  0.42097358  0.08434059  0.05222426  1
  Se  Se122  1  0.40825723  0.07767899  0.55579684  1
  Se  Se123  1  0.42196365  0.42196932  0.04891500  1
  Se  Se124  1  0.41655270  0.42261515  0.55692676  1
  Se  Se125  1  0.40844334  0.75411068  0.05216100  1
  Se  Se126  1  0.42245255  0.75104375  0.55673309  1
  Se  Se127  1  0.75285592  0.08167687  0.05536990  1
  Se  Se128  1  0.74619562  0.09285800  0.54328965  1
  Se  Se129  1  0.75094661  0.41679081  0.04981017  1
  Se  Se130  1  0.74038929  0.41937206  0.56673717  1
  Se  Se131  1  0.73609394  0.73906611  0.06017347  1
  Se  Se132  1  0.75816247  0.74498832  0.55850202  1
  Se  Se133  1  0.26733983  0.26123774  0.06167738  1
  Se  Se134  1  0.25536122  0.24927931  0.56257384  1
  Se  Se135  1  0.24903257  0.58585640  0.05154030  1
  Se  Se136  1  0.24937627  0.58329210  0.55668412  1
  Se  Se137  1  0.25227026  0.92415145  0.06193030  1
  Se  Se138  1  0.24984701  0.91015384  0.55238682  1
  Se  Se139  1  0.58741049  0.25072928  0.04895609  1
  Se  Se140  1  0.58039442  0.25796988  0.56475920  1
  Se  Se141  1  0.57803872  0.58061865  0.04778142  1
  Se  Se142  1  0.58381142  0.58001295  0.56003694  1
  Se  Se143  1  0.58160204  0.91316343  0.05185601  1
  Se  Se144  1  0.60092809  0.93111558  0.54977024  1
  Se  Se145  1  0.92554590  0.24993942  0.05370172  1
  Se  Se146  1  0.90626250  0.25471069  0.54613330  1
  Se  Se147  1  0.90910207  0.57911674  0.04380001  1
  Se  Se148  1  0.92373207  0.59203217  0.56446748  1
  Se  Se149  1  0.91666065  0.91574411  0.06290401  1
  Se  Se150  1  0.91661677  0.91916674  0.55170853  1
  Se  Se151  1  0.07058246  0.25608726  0.43825785  1
  Se  Se152  1  0.08642594  0.25289087  0.93759332  1
  Se  Se153  1  0.08679657  0.57975912  0.44993144  1
  Se  Se154  1  0.09457714  0.58180702  0.94880981  1
  Se  Se155  1  0.08918048  0.91750389  0.44787058  1
  Se  Se156  1  0.07091196  0.92429325  0.94769953  1
  Se  Se157  1  0.40290481  0.26029188  0.44297571  1
  Se  Se158  1  0.42316454  0.24661822  0.94323166  1
  Se  Se159  1  0.41897939  0.58362496  0.44930105  1
  Se  Se160  1  0.41635935  0.58524293  0.94477207  1
  Se  Se161  1  0.42259370  0.90978515  0.44643903  1
  Se  Se162  1  0.41689211  0.91401466  0.94686657  1
  Se  Se163  1  0.74151454  0.25915986  0.44999739  1
  Se  Se164  1  0.75951517  0.24605366  0.94528502  1
  Se  Se165  1  0.74417859  0.59168967  0.43877160  1
  Se  Se166  1  0.74769366  0.58467266  0.93865569  1
  Se  Se167  1  0.77074705  0.90046084  0.44378642  1
  Se  Se168  1  0.74109032  0.92208720  0.93813787  1
  Se  Se169  1  0.25315214  0.07608710  0.44059125  1
  Se  Se170  1  0.25589315  0.08018343  0.94083292  1
  Se  Se171  1  0.24517281  0.42283646  0.45185153  1
  Se  Se172  1  0.25312356  0.41883906  0.94639846  1
  Se  Se173  1  0.25375267  0.74838350  0.44975480  1
  Se  Se174  1  0.25144526  0.74894607  0.93326551  1
  Se  Se175  1  0.58463344  0.07607600  0.43524189  1
  Se  Se176  1  0.58419578  0.08520410  0.94831412  1
  Se  Se177  1  0.57617625  0.42465727  0.45332431  1
  Se  Se178  1  0.58608507  0.41664458  0.94258943  1
  Se  Se179  1  0.58523398  0.74655175  0.45432492  1
  Se  Se180  1  0.57760331  0.75375402  0.94554068  1
  Se  Se181  1  0.91449143  0.08396606  0.44268127  1
  Se  Se182  1  0.92090929  0.07832302  0.95946048  1
  Se  Se183  1  0.92022518  0.41726247  0.43894185  1
  Se  Se184  1  0.91892511  0.41333259  0.94541018  1
  Se  Se185  1  0.91864316  0.74792258  0.45208520  1
  Se  Se186  1  0.91123219  0.74085362  0.93284975  1
  Se  Se187  1  0.23738005  0.24091086  0.30922876  1
  Se  Se188  1  0.25235318  0.25057394  0.79886241  1
  Se  Se189  1  0.25394619  0.58665786  0.30520379  1
  Se  Se190  1  0.25583294  0.58700238  0.80145409  1
  Se  Se191  1  0.25340725  0.91328634  0.30747317  1
  Se  Se192  1  0.25138218  0.92078607  0.80103930  1
  Se  Se193  1  0.57331130  0.23872146  0.31027066  1
  Se  Se194  1  0.58756048  0.25165524  0.80400318  1
  Se  Se195  1  0.57890606  0.58280082  0.30871859  1
  Se  Se196  1  0.58091534  0.58653851  0.80468519  1
  Se  Se197  1  0.58619941  0.91155000  0.30550209  1
  Se  Se198  1  0.57761722  0.91079321  0.80810432  1
  Se  Se199  1  0.90961711  0.24860820  0.30951870  1
  Se  Se200  1  0.91194734  0.24731202  0.80766136  1
  Se  Se201  1  0.90899981  0.57665784  0.30070415  1
  Se  Se202  1  0.93120978  0.58338941  0.79996757  1
  Se  Se203  1  0.92400534  0.92027359  0.30479805  1
  Se  Se204  1  0.90603389  0.91157885  0.81272883  1
  Se  Se205  1  0.08542769  0.08295464  0.29612333  1
  Se  Se206  1  0.08667893  0.09220342  0.81607312  1
  Se  Se207  1  0.08839359  0.42147806  0.30652292  1
  Se  Se208  1  0.08811942  0.42712350  0.81247360  1
  Se  Se209  1  0.08522018  0.75269005  0.31701320  1
  Se  Se210  1  0.08311037  0.75100835  0.80018675  1
  Se  Se211  1  0.41416703  0.07876067  0.29906412  1
  Se  Se212  1  0.41759201  0.07854221  0.80512942  1
  Se  Se213  1  0.42426097  0.42633134  0.31010294  1
  Se  Se214  1  0.41310121  0.41499150  0.80652457  1
  Se  Se215  1  0.41637574  0.74674736  0.30533963  1
  Se  Se216  1  0.41502554  0.74835277  0.80143541  1
  Se  Se217  1  0.74942907  0.08187292  0.30324668  1
  Se  Se218  1  0.74942331  0.08442457  0.80836862  1
  Se  Se219  1  0.75766230  0.43014492  0.30353184  1
  Se  Se220  1  0.74905323  0.41710430  0.79939530  1
  Se  Se221  1  0.75239632  0.75864674  0.31433673  1
  Se  Se222  1  0.74534841  0.74701053  0.79575362  1
  Se  Se223  1  0.25876932  0.08432284  0.20490378  1
  Se  Se224  1  0.25226882  0.07698779  0.69940564  1
  Se  Se225  1  0.25069700  0.42052120  0.19185072  1
  Se  Se226  1  0.25158126  0.41517270  0.69732837  1
  Se  Se227  1  0.24584848  0.74485613  0.19930525  1
  Se  Se228  1  0.25567932  0.74789688  0.69653594  1
  Se  Se229  1  0.58721690  0.07556282  0.19240110  1
  Se  Se230  1  0.57284841  0.09194985  0.68618887  1
  Se  Se231  1  0.57930279  0.42545780  0.19165018  1
  Se  Se232  1  0.57984309  0.41632864  0.70307693  1
  Se  Se233  1  0.57181715  0.75605444  0.18637867  1
  Se  Se234  1  0.58756336  0.75009368  0.69355325  1
  Se  Se235  1  0.91926927  0.07882408  0.19782710  1
  Se  Se236  1  0.90739593  0.08480030  0.69218652  1
  Se  Se237  1  0.91140982  0.42552207  0.18772386  1
  Se  Se238  1  0.91123396  0.42543477  0.68949092  1
  Se  Se239  1  0.90434982  0.75896688  0.19188025  1
  Se  Se240  1  0.92410924  0.74918138  0.69842202  1
  Se  Se241  1  0.09786536  0.23673202  0.19032309  1
  Se  Se242  1  0.08765437  0.23743209  0.68926825  1
  Se  Se243  1  0.08858588  0.57315233  0.18640295  1
  Se  Se244  1  0.08658983  0.58330733  0.69494194  1
  Se  Se245  1  0.08370496  0.91075541  0.20068809  1
  Se  Se246  1  0.08937828  0.91116686  0.68937449  1
  Se  Se247  1  0.42904826  0.24779822  0.18848713  1
  Se  Se248  1  0.41617317  0.25071221  0.70285247  1
  Se  Se249  1  0.41079521  0.59005895  0.19292222  1
  Se  Se250  1  0.41468230  0.58520928  0.69845597  1
  Se  Se251  1  0.41563980  0.91593378  0.19462697  1
  Se  Se252  1  0.41767257  0.91632006  0.69424790  1
  Se  Se253  1  0.75607803  0.24450696  0.18928337  1
  Se  Se254  1  0.74559566  0.25370816  0.69761805  1
  Se  Se255  1  0.75450141  0.57628772  0.19063319  1
  Se  Se256  1  0.75819031  0.57523569  0.70745840  1
  Se  Se257  1  0.74452586  0.91994655  0.20232366  1
  Se  Se258  1  0.75935809  0.91050302  0.68478197  1
