# generated using pymatgen
data_In86Cu29Se144
_symmetry_space_group_name_H-M   'P 1'
_cell_length_a   17.58921210
_cell_length_b   17.59693774
_cell_length_c   23.45723389
_cell_angle_alpha   89.98957797
_cell_angle_beta   89.98617661
_cell_angle_gamma   89.97711318
_symmetry_Int_Tables_number   1
_chemical_formula_structural   In86Cu29Se144
_chemical_formula_sum   'In86 Cu29 Se144'
_cell_volume   7260.39463189
_cell_formula_units_Z   1
loop_
 _symmetry_equiv_pos_site_id
 _symmetry_equiv_pos_as_xyz
  1  'x, y, z'
loop_
 _atom_site_type_symbol
 _atom_site_label
 _atom_site_symmetry_multiplicity
 _atom_site_fract_x
 _atom_site_fract_y
 _atom_site_fract_z
 _atom_site_occupancy
  In  In0  1  0.01753571  0.17663948  0.11725956  1
  In  In1  1  0.02181753  0.18811569  0.61949983  1
  In  In2  1  -0.00126965  0.49003982  0.12885220  1
  In  In3  1  -0.00795993  0.49067883  0.62090836  1
  In  In4  1  0.02164926  0.83070688  0.12303026  1
  In  In5  1  0.01556557  0.83019279  0.62664516  1
  In  In6  1  0.33066984  0.18305661  0.12494880  1
  In  In7  1  0.33644869  0.17298853  0.62357424  1
  In  In8  1  0.33574952  0.49473305  0.12217980  1
  In  In9  1  0.31951817  0.48326978  0.61538034  1
  In  In10  1  0.33117190  0.82668081  0.12044083  1
  In  In11  1  0.33008651  0.84469817  0.62654380  1
  In  In12  1  0.66428299  0.16141516  0.12078465  1
  In  In13  1  0.67843019  0.18284346  0.61617697  1
  In  In14  1  0.66398182  0.50954469  0.12997093  1
  In  In15  1  0.66723057  0.49680634  0.62555209  1
  In  In16  1  0.64477216  0.82168225  0.12053371  1
  In  In17  1  0.64915548  0.82350201  0.62851153  1
  In  In18  1  0.17385491  0.00116453  0.39050445  1
  In  In19  1  0.17623677  0.00281043  0.87765817  1
  In  In20  1  0.17114575  0.33578779  0.37501585  1
  In  In21  1  0.16754482  0.33533096  0.86895277  1
  In  In22  1  0.17506610  0.65236767  0.37853076  1
  In  In23  1  0.16807097  0.65089667  0.88819444  1
  In  In24  1  0.49999242  0.00113906  0.38101548  1
  In  In25  1  0.46088547  0.01000712  0.88356811  1
  In  In26  1  0.49526488  0.33793721  0.37819448  1
  In  In27  1  0.50046960  0.33508996  0.86875061  1
  In  In28  1  0.48067619  0.65600311  0.35604310  1
  In  In29  1  0.50259850  0.66107990  0.88153205  1
  In  In30  1  0.83756538  0.00728793  0.37979775  1
  In  In31  1  0.84880377  0.00757328  0.87311274  1
  In  In32  1  0.84336355  0.32371875  0.38431944  1
  In  In33  1  0.82436148  0.32816966  0.87074222  1
  In  In34  1  0.81906016  0.66317907  0.37331326  1
  In  In35  1  0.82765424  0.66779282  0.87101981  1
  In  In36  1  -0.00155273  0.17562216  0.38321854  1
  In  In37  1  -0.00019162  0.17460971  0.87822742  1
  In  In38  1  0.01281397  0.48634528  0.38192685  1
  In  In39  1  0.03106875  0.48691981  0.88446458  1
  In  In40  1  0.00489994  0.84446941  0.37242927  1
  In  In41  1  0.00708040  0.83743213  0.87797211  1
  In  In42  1  0.32447902  0.17311197  0.38225813  1
  In  In43  1  0.32732067  0.16708864  0.86214830  1
  In  In44  1  0.33523488  0.49757515  0.37350662  1
  In  In45  1  0.33794711  0.48918141  0.88512656  1
  In  In46  1  0.34039513  0.81833994  0.37340240  1
  In  In47  1  0.31957126  0.85249207  0.89555224  1
  In  In48  1  0.65918404  0.17476396  0.38753296  1
  In  In49  1  0.66180304  0.18254750  0.87266905  1
  In  In50  1  0.65726440  0.50880031  0.38356157  1
  In  In51  1  0.65552938  0.49306785  0.86805260  1
  In  In52  1  0.66058283  0.82433170  0.36982566  1
  In  In53  1  0.66127598  0.82002676  0.87144252  1
  In  In54  1  0.18074802  0.00404538  0.10941345  1
  In  In55  1  0.20881354  0.02987627  0.59401352  1
  In  In56  1  0.16796654  0.33476334  0.12514927  1
  In  In57  1  0.16630728  0.32753288  0.63130728  1
  In  In58  1  0.17573689  0.68185897  0.11302951  1
  In  In59  1  0.17100987  0.66621855  0.61561560  1
  In  In60  1  0.50418511  -0.00056197  0.11874400  1
  In  In61  1  0.47448019  0.01001188  0.62880360  1
  In  In62  1  0.46139998  0.33029655  0.12399572  1
  In  In63  1  0.49982720  0.33650467  0.62199533  1
  In  In64  1  0.50081408  0.65979799  0.12719265  1
  In  In65  1  0.51067838  0.66162545  0.62892891  1
  In  In66  1  0.82611530  0.00981316  0.12033305  1
  In  In67  1  0.82954824  0.00942910  0.62455822  1
  In  In68  1  0.84879104  0.33396889  0.12846252  1
  In  In69  1  0.83604992  0.33428792  0.62654022  1
  In  In70  1  0.82497727  0.65556128  0.13182990  1
  In  In71  1  0.83311909  0.64816158  0.62395540  1
  In  In72  1  0.83765690  0.84272900  -0.00299556  1
  In  In73  1  0.33670976  -0.00071556  0.24807475  1
  In  In74  1  0.66280184  0.33906603  0.25889203  1
  In  In75  1  0.65841772  0.00012261  0.74839871  1
  In  In76  1  0.65970094  0.00070395  0.25200899  1
  In  In77  1  0.83565645  0.83235828  0.49192314  1
  In  In78  1  0.83747826  0.49872375  0.00778788  1
  In  In79  1  0.00921634  -0.00001649  0.75076729  1
  In  In80  1  0.00396941  0.66263029  0.24526048  1
  In  In81  1  -0.00171818  0.00795940  0.25433891  1
  In  In82  1  0.34364165  0.66267285  0.75840146  1
  In  In83  1  0.49513497  0.83454467  0.49949137  1
  In  In84  1  0.49215042  0.16996247  -0.00062017  1
  In  In85  1  -0.00243369  0.65736884  0.75753584  1
  Cu  Cu86  1  0.49568183  0.49438704  0.24917660  1
  Cu  Cu87  1  0.17758080  0.49811502  0.25059773  1
  Cu  Cu88  1  0.83523715  0.17430473  0.25386493  1
  Cu  Cu89  1  0.49973984  0.17448128  0.74582601  1
  Cu  Cu90  1  0.17398162  0.83419232  0.75418295  1
  Cu  Cu91  1  0.82135744  0.82863332  0.24424771  1
  Cu  Cu92  1  0.82635803  0.82192786  0.74761234  1
  Cu  Cu93  1  0.33316674  0.33758452  0.50033862  1
  Cu  Cu94  1  -0.00088139  0.00208542  0.50031245  1
  Cu  Cu95  1  0.17153137  0.83298643  0.24569889  1
  Cu  Cu96  1  0.49846260  0.49552362  0.74871732  1
  Cu  Cu97  1  0.83631900  0.49576543  0.25320530  1
  Cu  Cu98  1  0.16512787  0.17707108  0.25242187  1
  Cu  Cu99  1  0.66223865  0.00661799  0.50437425  1
  Cu  Cu100  1  0.66893557  0.33707205  0.50279870  1
  Cu  Cu101  1  0.66451897  0.66242240  0.00181168  1
  Cu  Cu102  1  0.83682866  0.17255931  0.74781487  1
  Cu  Cu103  1  0.66339703  0.33456384  -0.00380560  1
  Cu  Cu104  1  0.33787614  0.66342640  0.49464151  1
  Cu  Cu105  1  0.66659958  0.66149756  0.50158423  1
  Cu  Cu106  1  0.82817809  0.49691286  0.74835611  1
  Cu  Cu107  1  0.49560646  0.83512435  0.75535670  1
  Cu  Cu108  1  0.00611589  0.00785888  -0.00384014  1
  Cu  Cu109  1  0.16524825  0.49248604  0.74674775  1
  Cu  Cu110  1  0.34074168  0.66087115  0.00331420  1
  Cu  Cu111  1  0.00350956  0.66079332  0.50027693  1
  Cu  Cu112  1  0.00629204  0.33478678  0.50429325  1
  Cu  Cu113  1  0.00294619  0.32855617  0.00121447  1
  Cu  Cu114  1  0.66848167  0.00544804  -0.00356563  1
  Se  Se115  1  0.09242861  0.08958149  0.04808623  1
  Se  Se116  1  0.08181978  0.08437931  0.55419622  1
  Se  Se117  1  0.08022255  0.41617512  0.05582959  1
  Se  Se118  1  0.08949338  0.41606881  0.55980663  1
  Se  Se119  1  0.08073174  0.75012045  0.04529768  1
  Se  Se120  1  0.08364443  0.74891389  0.55035351  1
  Se  Se121  1  0.40437066  0.07831936  0.05988898  1
  Se  Se122  1  0.40787453  0.08340109  0.55022720  1
  Se  Se123  1  0.41190381  0.41663697  0.04603553  1
  Se  Se124  1  0.42122929  0.42112302  0.55008149  1
  Se  Se125  1  0.42256480  0.74538051  0.05686939  1
  Se  Se126  1  0.41094601  0.74069588  0.56319438  1
  Se  Se127  1  0.75021098  0.09062940  0.04739921  1
  Se  Se128  1  0.75363984  0.08698546  0.55112510  1
  Se  Se129  1  0.74294551  0.40724695  0.06395768  1
  Se  Se130  1  0.75386501  0.41781710  0.55687805  1
  Se  Se131  1  0.75028565  0.74509051  0.05635584  1
  Se  Se132  1  0.74488653  0.74805768  0.55837250  1
  Se  Se133  1  0.24479635  0.25099939  0.05370926  1
  Se  Se134  1  0.25011567  0.25618093  0.55582719  1
  Se  Se135  1  0.25168689  0.58184718  0.05518148  1
  Se  Se136  1  0.25237381  0.58169182  0.54911703  1
  Se  Se137  1  0.24665262  0.90268686  0.04982546  1
  Se  Se138  1  0.23863086  0.89794633  0.55207771  1
  Se  Se139  1  0.58174607  0.26030126  0.06169317  1
  Se  Se140  1  0.58109241  0.25171065  0.55155483  1
  Se  Se141  1  0.58264221  0.57733535  0.05403872  1
  Se  Se142  1  0.58286003  0.57959749  0.55520532  1
  Se  Se143  1  0.58848933  0.92019344  0.04964183  1
  Se  Se144  1  0.58266154  0.92607771  0.56340546  1
  Se  Se145  1  0.91608418  0.24804981  0.05455153  1
  Se  Se146  1  0.91884783  0.25159471  0.55606319  1
  Se  Se147  1  0.92580133  0.59450498  0.06367509  1
  Se  Se148  1  0.91657673  0.57922057  0.55043274  1
  Se  Se149  1  0.92994153  0.92845594  0.06144326  1
  Se  Se150  1  0.92070113  0.91848118  0.56071330  1
  Se  Se151  1  0.08919520  0.25394880  0.44711247  1
  Se  Se152  1  0.08960512  0.25295547  0.94387380  1
  Se  Se153  1  0.08865125  0.57746622  0.44838576  1
  Se  Se154  1  0.06121144  0.59698415  0.95137000  1
  Se  Se155  1  0.08082181  0.91548637  0.44908943  1
  Se  Se156  1  0.08702224  0.92144672  0.94424108  1
  Se  Se157  1  0.41599074  0.25269365  0.44725712  1
  Se  Se158  1  0.40668019  0.25756372  0.93646872  1
  Se  Se159  1  0.42223998  0.58272732  0.44078084  1
  Se  Se160  1  0.42159920  0.57634028  0.94895978  1
  Se  Se161  1  0.40074409  0.92272124  0.44327369  1
  Se  Se162  1  0.43359957  0.90353688  0.95424501  1
  Se  Se163  1  0.75196719  0.24935447  0.45175952  1
  Se  Se164  1  0.74816376  0.24972312  0.94704303  1
  Se  Se165  1  0.75397031  0.58019095  0.45012359  1
  Se  Se166  1  0.74554269  0.58176948  0.94251372  1
  Se  Se167  1  0.73519762  0.92376516  0.43984003  1
  Se  Se168  1  0.74467824  0.92587336  0.93250529  1
  Se  Se169  1  0.25013980  0.08958236  0.45523853  1
  Se  Se170  1  0.27482547  0.07527176  0.93934074  1
  Se  Se171  1  0.25056227  0.42076659  0.44499531  1
  Se  Se172  1  0.21497499  0.44574023  0.93499707  1
  Se  Se173  1  0.25201481  0.74617746  0.44334357  1
  Se  Se174  1  0.25523053  0.73931699  0.94756723  1
  Se  Se175  1  0.57621522  0.08585769  0.45083597  1
  Se  Se176  1  0.58295382  0.08094175  0.93501693  1
  Se  Se177  1  0.58243569  0.41522685  0.44753068  1
  Se  Se178  1  0.57945201  0.41520921  0.94302951  1
  Se  Se179  1  0.58312781  0.73959562  0.44195866  1
  Se  Se180  1  0.58450593  0.74911098  0.94899384  1
  Se  Se181  1  0.91570925  0.08754192  0.44962714  1
  Se  Se182  1  0.91695619  0.08950590  0.94779385  1
  Se  Se183  1  0.91988758  0.41563279  0.45012478  1
  Se  Se184  1  0.91970288  0.40919477  0.94163412  1
  Se  Se185  1  0.92756884  0.73957183  0.43468612  1
  Se  Se186  1  0.91980746  0.74393227  0.94011058  1
  Se  Se187  1  0.25461889  0.25358357  0.30499911  1
  Se  Se188  1  0.25431879  0.26152033  0.79864934  1
  Se  Se189  1  0.25747613  0.58543476  0.30232325  1
  Se  Se190  1  0.24225708  0.57488511  0.80794549  1
  Se  Se191  1  0.24345506  0.91423763  0.31115399  1
  Se  Se192  1  0.25608159  0.91682012  0.80796245  1
  Se  Se193  1  0.57473037  0.24018826  0.30937942  1
  Se  Se194  1  0.58516474  0.25614084  0.79754820  1
  Se  Se195  1  0.58283069  0.57587258  0.30207271  1
  Se  Se196  1  0.57629323  0.58425607  0.80320951  1
  Se  Se197  1  0.56759523  0.90708783  0.30643514  1
  Se  Se198  1  0.57204442  0.91945416  0.81615885  1
  Se  Se199  1  0.92237344  0.25253501  0.30656882  1
  Se  Se200  1  0.91772210  0.25206788  0.80577889  1
  Se  Se201  1  0.91761149  0.57818183  0.31260366  1
  Se  Se202  1  0.91006669  0.56465519  0.81580666  1
  Se  Se203  1  0.90015970  0.90949682  0.30423316  1
  Se  Se204  1  0.90963062  0.90343724  0.80356272  1
  Se  Se205  1  0.09363093  0.09006273  0.31469083  1
  Se  Se206  1  0.09260327  0.09287085  0.81073824  1
  Se  Se207  1  0.08919081  0.41791082  0.30277332  1
  Se  Se208  1  0.07620113  0.41209235  0.79738174  1
  Se  Se209  1  0.09032432  0.75477426  0.30764649  1
  Se  Se210  1  0.09415230  0.75111876  0.81084462  1
  Se  Se211  1  0.41855891  0.08857840  0.31311601  1
  Se  Se212  1  0.41819570  0.08643285  0.79578632  1
  Se  Se213  1  0.41411544  0.41138643  0.30341942  1
  Se  Se214  1  0.41175396  0.41908440  0.80437597  1
  Se  Se215  1  0.41679316  0.75675451  0.29362044  1
  Se  Se216  1  0.41719930  0.76063428  0.82097322  1
  Se  Se217  1  0.75300815  0.09284578  0.31067067  1
  Se  Se218  1  0.75592273  0.08889482  0.80594487  1
  Se  Se219  1  0.75806195  0.42145525  0.31905963  1
  Se  Se220  1  0.74430339  0.41344386  0.80268473  1
  Se  Se221  1  0.74397211  0.74492916  0.30029633  1
  Se  Se222  1  0.74189332  0.74076284  0.79939885  1
  Se  Se223  1  0.23907475  0.08875153  0.19331801  1
  Se  Se224  1  0.25675133  0.08085666  0.68869232  1
  Se  Se225  1  0.25523653  0.41225113  0.19434387  1
  Se  Se226  1  0.25441296  0.41187331  0.69803825  1
  Se  Se227  1  0.25203248  0.74686691  0.19444208  1
  Se  Se228  1  0.24852718  0.74711922  0.69468614  1
  Se  Se229  1  0.57144069  0.09376040  0.19340054  1
  Se  Se230  1  0.58013348  0.09382900  0.68394829  1
  Se  Se231  1  0.57431094  0.41370022  0.18736592  1
  Se  Se232  1  0.58371660  0.41520193  0.69430841  1
  Se  Se233  1  0.59035252  0.73548845  0.19683078  1
  Se  Se234  1  0.57687105  0.74748429  0.70530627  1
  Se  Se235  1  0.91155690  0.09490843  0.18978799  1
  Se  Se236  1  0.91745834  0.08986072  0.69139623  1
  Se  Se237  1  0.92179483  0.41278633  0.20407352  1
  Se  Se238  1  0.91732289  0.41638904  0.69798205  1
  Se  Se239  1  0.91340470  0.75954916  0.18706461  1
  Se  Se240  1  0.91437510  0.74905797  0.68922698  1
  Se  Se241  1  0.08061033  0.25566778  0.19695877  1
  Se  Se242  1  0.08406061  0.25125905  0.70465432  1
  Se  Se243  1  0.09802759  0.57741676  0.18720189  1
  Se  Se244  1  0.08879945  0.57993491  0.68910262  1
  Se  Se245  1  0.09433353  0.92361245  0.19291196  1
  Se  Se246  1  0.10116207  0.91522891  0.69058000  1
  Se  Se247  1  0.41795574  0.23973692  0.20246725  1
  Se  Se248  1  0.41611096  0.25813734  0.69312678  1
  Se  Se249  1  0.41417699  0.57820817  0.19433022  1
  Se  Se250  1  0.41595720  0.57216154  0.68719024  1
  Se  Se251  1  0.42545193  0.90995622  0.18782059  1
  Se  Se252  1  0.41293738  0.91636216  0.70095692  1
  Se  Se253  1  0.75007416  0.24797647  0.19264149  1
  Se  Se254  1  0.74957814  0.25372904  0.69658359  1
  Se  Se255  1  0.74830906  0.57873486  0.20553606  1
  Se  Se256  1  0.74609260  0.58330016  0.69754457  1
  Se  Se257  1  0.74723553  0.91361157  0.18509019  1
  Se  Se258  1  0.75204165  0.90744061  0.68841267  1
