# generated using pymatgen
data_In86Cu29Se144
_symmetry_space_group_name_H-M   'P 1'
_cell_length_a   17.58597298
_cell_length_b   17.58196115
_cell_length_c   23.44110601
_cell_angle_alpha   90.00303548
_cell_angle_beta   89.99424560
_cell_angle_gamma   90.00239570
_symmetry_Int_Tables_number   1
_chemical_formula_structural   In86Cu29Se144
_chemical_formula_sum   'In86 Cu29 Se144'
_cell_volume   7247.89366842
_cell_formula_units_Z   1
loop_
 _symmetry_equiv_pos_site_id
 _symmetry_equiv_pos_as_xyz
  1  'x, y, z'
loop_
 _atom_site_type_symbol
 _atom_site_label
 _atom_site_symmetry_multiplicity
 _atom_site_fract_x
 _atom_site_fract_y
 _atom_site_fract_z
 _atom_site_occupancy
  In  In0  1  -0.01127027  0.17959376  0.13440816  1
  In  In1  1  -0.00129179  0.17140928  0.62034034  1
  In  In2  1  -0.00737645  0.50875583  0.13448593  1
  In  In3  1  -0.00406883  0.50131059  0.62376009  1
  In  In4  1  0.00706464  0.82650742  0.12938749  1
  In  In5  1  -0.01628659  0.83992705  0.64472458  1
  In  In6  1  0.32791155  0.16900899  0.12882095  1
  In  In7  1  0.34151652  0.18145941  0.60667578  1
  In  In8  1  0.34998074  0.50393792  0.13046585  1
  In  In9  1  0.32930312  0.49691365  0.60668791  1
  In  In10  1  0.33048084  0.83047231  0.12005853  1
  In  In11  1  0.33814561  0.82006693  0.62144322  1
  In  In12  1  0.68045679  0.15896752  0.12560623  1
  In  In13  1  0.66664184  0.15803257  0.61856780  1
  In  In14  1  0.67157754  0.49703222  0.13246464  1
  In  In15  1  0.66792455  0.50673457  0.61853861  1
  In  In16  1  0.65030856  0.83584710  0.12218265  1
  In  In17  1  0.66409135  0.83716369  0.63460655  1
  In  In18  1  0.16470473  0.01258858  0.37504580  1
  In  In19  1  0.14899674  0.00148565  0.87693418  1
  In  In20  1  0.14790162  0.35689972  0.38887322  1
  In  In21  1  0.15907506  0.34480353  0.87631651  1
  In  In22  1  0.15370261  0.64344143  0.35805132  1
  In  In23  1  0.16789129  0.67915161  0.87997834  1
  In  In24  1  0.49942114  0.00140125  0.38255184  1
  In  In25  1  0.50208254  -0.01858527  0.87374038  1
  In  In26  1  0.50674439  0.32772009  0.38342784  1
  In  In27  1  0.49779652  0.33165800  0.87163727  1
  In  In28  1  0.49912361  0.66589354  0.37366795  1
  In  In29  1  0.51925240  0.67052225  0.87211146  1
  In  In30  1  0.84453430  -0.00136969  0.37444768  1
  In  In31  1  0.84381904  0.00321627  0.86639693  1
  In  In32  1  0.83404605  0.33544180  0.37738013  1
  In  In33  1  0.83860329  0.32269541  0.88139381  1
  In  In34  1  0.82425350  0.65774217  0.36906744  1
  In  In35  1  0.82275665  0.66180575  0.87076522  1
  In  In36  1  -0.00488705  0.17060723  0.37739003  1
  In  In37  1  -0.00809803  0.15636905  0.86629865  1
  In  In38  1  -0.00138165  0.49752074  0.37495777  1
  In  In39  1  -0.00897619  0.48677791  0.86910722  1
  In  In40  1  0.00082937  0.83072840  0.36663521  1
  In  In41  1  -0.00136806  0.83966408  0.87158936  1
  In  In42  1  0.32166944  0.18812454  0.39796675  1
  In  In43  1  0.34393622  0.16327762  0.87293593  1
  In  In44  1  0.32181285  0.50966432  0.38343544  1
  In  In45  1  0.33144623  0.49775556  0.87478347  1
  In  In46  1  0.34946570  0.82358889  0.37601668  1
  In  In47  1  0.33704535  0.82936173  0.88733373  1
  In  In48  1  0.65748971  0.17628449  0.38384636  1
  In  In49  1  0.68512974  0.16969692  0.87223183  1
  In  In50  1  0.67170588  0.49876740  0.37837952  1
  In  In51  1  0.66835894  0.51868155  0.86990804  1
  In  In52  1  0.65795843  0.81970919  0.36783360  1
  In  In53  1  0.66807875  0.82231418  0.86778548  1
  In  In54  1  0.16815792  -0.01264752  0.12641519  1
  In  In55  1  0.15217507  0.00520187  0.62607653  1
  In  In56  1  0.16329026  0.32553415  0.13061846  1
  In  In57  1  0.16013824  0.32576170  0.61204180  1
  In  In58  1  0.15562859  0.67223860  0.13503052  1
  In  In59  1  0.15946877  0.65680907  0.62030061  1
  In  In60  1  0.51473310  -0.01377033  0.12332530  1
  In  In61  1  0.51131846  0.00489943  0.61954811  1
  In  In62  1  0.50107778  0.34673528  0.13228487  1
  In  In63  1  0.50209226  0.34108472  0.60930823  1
  In  In64  1  0.49692855  0.68364064  0.14300368  1
  In  In65  1  0.50189212  0.66972277  0.61385070  1
  In  In66  1  0.82723531  0.02070401  0.12098435  1
  In  In67  1  0.82522904  0.00449374  0.63416699  1
  In  In68  1  0.83010397  0.33485696  0.12476925  1
  In  In69  1  0.84467593  0.34545607  0.61657936  1
  In  In70  1  0.84039157  0.65578658  0.13024533  1
  In  In71  1  0.83939985  0.66111307  0.63201353  1
  In  In72  1  0.50451403  0.16530024  -0.00012453  1
  In  In73  1  0.32997688  0.33317787  0.74644417  1
  In  In74  1  0.83062414  0.83185417  0.50514286  1
  In  In75  1  0.32921671  0.66135714  0.74210639  1
  In  In76  1  0.67300230  0.33847608  0.73477451  1
  In  In77  1  0.16198185  0.16452953  0.00734685  1
  In  In78  1  0.32526288  0.00164152  0.74534601  1
  In  In79  1  0.32758198  0.34199933  0.26244659  1
  In  In80  1  0.16449328  0.50261918  0.00867372  1
  In  In81  1  0.33385022  0.00131616  0.25171856  1
  In  In82  1  0.16801569  0.82859274  0.50251944  1
  In  In83  1  0.50622413  0.50591585  0.00198703  1
  In  In84  1  0.67206008  -0.00236807  0.24790458  1
  In  In85  1  0.83274257  0.83466781  -0.00506125  1
  Cu  Cu86  1  0.14954631  0.17011264  0.25777996  1
  Cu  Cu87  1  0.84075109  0.83046525  0.24683885  1
  Cu  Cu88  1  0.33437400  -0.00058992  0.49791614  1
  Cu  Cu89  1  0.67143583  -0.00908056  0.50430579  1
  Cu  Cu90  1  0.84481463  0.16853893  0.74946585  1
  Cu  Cu91  1  -0.00159144  0.66372585  0.50004577  1
  Cu  Cu92  1  0.15489813  0.49879471  0.74417171  1
  Cu  Cu93  1  0.66287793  0.66345831  0.49444770  1
  Cu  Cu94  1  0.83258778  0.49852774  0.74783162  1
  Cu  Cu95  1  0.49823173  0.16832321  0.26105719  1
  Cu  Cu96  1  -0.00487193  -0.00149875  -0.00301025  1
  Cu  Cu97  1  -0.00280963  0.33666769  0.49880572  1
  Cu  Cu98  1  0.51372529  0.16343620  0.74038381  1
  Cu  Cu99  1  0.83278321  0.17486038  0.25224573  1
  Cu  Cu100  1  0.33405189  -0.00139154  0.00156942  1
  Cu  Cu101  1  0.67071591  0.33697867  0.00276140  1
  Cu  Cu102  1  0.50217352  0.82752071  0.74756408  1
  Cu  Cu103  1  0.66842625  0.66899721  -0.00037813  1
  Cu  Cu104  1  0.67507273  0.33422965  0.49990226  1
  Cu  Cu105  1  0.15852058  0.83582826  0.75654556  1
  Cu  Cu106  1  0.33162470  0.66640374  0.49361898  1
  Cu  Cu107  1  0.51088405  0.50500665  0.25616731  1
  Cu  Cu108  1  -0.00019527  0.00928200  0.49974697  1
  Cu  Cu109  1  0.34024966  0.67205738  0.00554119  1
  Cu  Cu110  1  0.00151016  0.66299158  0.00666569  1
  Cu  Cu111  1  0.16849393  0.83212499  0.24905450  1
  Cu  Cu112  1  0.83321761  0.49515391  0.25347934  1
  Cu  Cu113  1  0.16120213  0.17351644  0.74319450  1
  Cu  Cu114  1  -0.01043317  0.32874879  0.00120671  1
  Se  Se115  1  0.07076619  0.07535081  0.06504173  1
  Se  Se116  1  0.08675980  0.09018293  0.55108274  1
  Se  Se117  1  0.07280729  0.40614303  0.06100274  1
  Se  Se118  1  0.08018834  0.42226639  0.55237668  1
  Se  Se119  1  0.08607761  0.74853740  0.05495716  1
  Se  Se120  1  0.06624764  0.75237699  0.56293031  1
  Se  Se121  1  0.41117760  0.07755658  0.06392407  1
  Se  Se122  1  0.42071963  0.07957399  0.55238749  1
  Se  Se123  1  0.41184810  0.40979364  0.05446844  1
  Se  Se124  1  0.40484732  0.40482450  0.54322942  1
  Se  Se125  1  0.42752151  0.75131897  0.05870213  1
  Se  Se126  1  0.41589038  0.75077197  0.54489605  1
  Se  Se127  1  0.73839281  0.07851868  0.04577117  1
  Se  Se128  1  0.75610236  0.07719214  0.55263127  1
  Se  Se129  1  0.75004150  0.42304830  0.05621391  1
  Se  Se130  1  0.75302609  0.42303266  0.55219888  1
  Se  Se131  1  0.75044141  0.74558478  0.06193064  1
  Se  Se132  1  0.74104975  0.73922932  0.56102450  1
  Se  Se133  1  0.25901712  0.25999652  0.05606035  1
  Se  Se134  1  0.24911426  0.25399827  0.54298002  1
  Se  Se135  1  0.26102446  0.59085220  0.06444422  1
  Se  Se136  1  0.24317360  0.58693368  0.54636563  1
  Se  Se137  1  0.24777340  0.91522069  0.05179973  1
  Se  Se138  1  0.25547241  0.92346679  0.56326843  1
  Se  Se139  1  0.58718529  0.25984844  0.06305292  1
  Se  Se140  1  0.59096945  0.25020302  0.55288919  1
  Se  Se141  1  0.58881703  0.59463956  0.06583322  1
  Se  Se142  1  0.57861898  0.57869915  0.54724351  1
  Se  Se143  1  0.59820003  0.92804104  0.04596534  1
  Se  Se144  1  0.58622772  0.90836753  0.55614298  1
  Se  Se145  1  0.90850715  0.24451421  0.05548748  1
  Se  Se146  1  0.91401555  0.24976803  0.54960072  1
  Se  Se147  1  0.91647156  0.57766170  0.05429716  1
  Se  Se148  1  0.91185606  0.58395004  0.55419198  1
  Se  Se149  1  0.91929187  0.91977556  0.06230066  1
  Se  Se150  1  0.92424950  0.92371501  0.56004319  1
  Se  Se151  1  0.08052071  0.25050926  0.44696775  1
  Se  Se152  1  0.07538304  0.25206168  0.94186525  1
  Se  Se153  1  0.08235115  0.58416278  0.44428877  1
  Se  Se154  1  0.07802968  0.58416838  0.94027912  1
  Se  Se155  1  0.07624592  0.91997017  0.44282096  1
  Se  Se156  1  0.08046040  0.91294313  0.94846196  1
  Se  Se157  1  0.44211182  0.22906338  0.45017499  1
  Se  Se158  1  0.40837672  0.25911984  0.94483145  1
  Se  Se159  1  0.41999225  0.58274673  0.44565339  1
  Se  Se160  1  0.41213533  0.59325941  0.93910746  1
  Se  Se161  1  0.41672740  0.91364512  0.44779192  1
  Se  Se162  1  0.42113460  0.91558252  0.95159524  1
  Se  Se163  1  0.75547182  0.24766220  0.44731748  1
  Se  Se164  1  0.75050075  0.24817713  0.95160428  1
  Se  Se165  1  0.75502980  0.58245105  0.44856083  1
  Se  Se166  1  0.75018793  0.58272206  0.94842641  1
  Se  Se167  1  0.74377743  0.91490776  0.43548235  1
  Se  Se168  1  0.74760581  0.92183471  0.93168039  1
  Se  Se169  1  0.24563743  0.08191500  0.45075017  1
  Se  Se170  1  0.25522467  0.07872036  0.94084998  1
  Se  Se171  1  0.26869367  0.39751968  0.44310232  1
  Se  Se172  1  0.25598938  0.41089870  0.94712656  1
  Se  Se173  1  0.24581360  0.74153975  0.43330437  1
  Se  Se174  1  0.24948234  0.75064981  0.95454921  1
  Se  Se175  1  0.59030059  0.07640966  0.44902777  1
  Se  Se176  1  0.58676484  0.08233427  0.93167428  1
  Se  Se177  1  0.58858029  0.41690042  0.44818044  1
  Se  Se178  1  0.59072365  0.41175391  0.93865711  1
  Se  Se179  1  0.57998580  0.75113958  0.44565151  1
  Se  Se180  1  0.58640647  0.75394878  0.94721288  1
  Se  Se181  1  0.91142310  0.08667269  0.44725130  1
  Se  Se182  1  0.91537039  0.08464619  0.94420495  1
  Se  Se183  1  0.91369283  0.42146768  0.44675123  1
  Se  Se184  1  0.91265499  0.41786103  0.94752280  1
  Se  Se185  1  0.91966273  0.74606653  0.44018691  1
  Se  Se186  1  0.92329053  0.73928813  0.94030484  1
  Se  Se187  1  0.23712485  0.24611103  0.31535526  1
  Se  Se188  1  0.24164855  0.24252531  0.81128231  1
  Se  Se189  1  0.26086235  0.58099221  0.29966487  1
  Se  Se190  1  0.23726838  0.57440249  0.80676791  1
  Se  Se191  1  0.24536109  0.91036010  0.31389400  1
  Se  Se192  1  0.24725188  0.90999700  0.81402242  1
  Se  Se193  1  0.58631990  0.25372111  0.30587710  1
  Se  Se194  1  0.58521293  0.24810529  0.80317193  1
  Se  Se195  1  0.59405839  0.58787693  0.30955019  1
  Se  Se196  1  0.57500958  0.57843987  0.79923598  1
  Se  Se197  1  0.57337431  0.91573748  0.30567624  1
  Se  Se198  1  0.58519733  0.91145805  0.80020525  1
  Se  Se199  1  0.91801964  0.25537508  0.30615997  1
  Se  Se200  1  0.92123740  0.25677285  0.80354692  1
  Se  Se201  1  0.91696308  0.58187351  0.30434011  1
  Se  Se202  1  0.91336560  0.57970199  0.80592314  1
  Se  Se203  1  0.91863364  0.91761786  0.30065486  1
  Se  Se204  1  0.92104021  0.91702609  0.79929597  1
  Se  Se205  1  0.07096859  0.07940325  0.30671928  1
  Se  Se206  1  0.08630623  0.08436827  0.79905905  1
  Se  Se207  1  0.08965318  0.42614479  0.30450674  1
  Se  Se208  1  0.07905454  0.41040324  0.79901372  1
  Se  Se209  1  0.08257768  0.74706409  0.29918734  1
  Se  Se210  1  0.08071010  0.74676897  0.80783627  1
  Se  Se211  1  0.41166317  0.09380162  0.31819927  1
  Se  Se212  1  0.42933375  0.08615207  0.80081727  1
  Se  Se213  1  0.42840952  0.42515232  0.31617478  1
  Se  Se214  1  0.42352537  0.42647680  0.80295914  1
  Se  Se215  1  0.41958585  0.74616041  0.30077367  1
  Se  Se216  1  0.41509305  0.75292365  0.80674449  1
  Se  Se217  1  0.75317174  0.09078692  0.31199730  1
  Se  Se218  1  0.75622737  0.08658500  0.79906190  1
  Se  Se219  1  0.74854745  0.41339318  0.30668133  1
  Se  Se220  1  0.75387072  0.41678727  0.81025955  1
  Se  Se221  1  0.75448367  0.75270289  0.30149583  1
  Se  Se222  1  0.74925284  0.74426216  0.79832819  1
  Se  Se223  1  0.23414140  0.09365258  0.19701603  1
  Se  Se224  1  0.24896018  0.10125468  0.68325153  1
  Se  Se225  1  0.24774052  0.42347990  0.18970160  1
  Se  Se226  1  0.24165281  0.42299083  0.68566882  1
  Se  Se227  1  0.25299039  0.75249547  0.19420745  1
  Se  Se228  1  0.23466611  0.75887344  0.69073730  1
  Se  Se229  1  0.57340950  0.09108837  0.19399634  1
  Se  Se230  1  0.59615088  0.07427291  0.69466083  1
  Se  Se231  1  0.58807413  0.41612306  0.20312503  1
  Se  Se232  1  0.57168891  0.42549280  0.68685162  1
  Se  Se233  1  0.60115210  0.75009047  0.20211558  1
  Se  Se234  1  0.57898644  0.74136461  0.69206589  1
  Se  Se235  1  0.91086524  0.08576643  0.19843894  1
  Se  Se236  1  0.92348724  0.08468399  0.69214403  1
  Se  Se237  1  0.91410904  0.41331311  0.19584474  1
  Se  Se238  1  0.91814764  0.41617040  0.69620111  1
  Se  Se239  1  0.92309228  0.74314386  0.19592471  1
  Se  Se240  1  0.91285782  0.74320266  0.70540263  1
  Se  Se241  1  0.07518620  0.25836920  0.20277065  1
  Se  Se242  1  0.08020120  0.25747471  0.69017135  1
  Se  Se243  1  0.09303625  0.57166608  0.19852192  1
  Se  Se244  1  0.07540704  0.58847787  0.69470788  1
  Se  Se245  1  0.08297898  0.91691464  0.19902988  1
  Se  Se246  1  0.08262954  0.92237451  0.70060271  1
  Se  Se247  1  0.41795383  0.24757955  0.19804594  1
  Se  Se248  1  0.42830171  0.24645700  0.68808626  1
  Se  Se249  1  0.42272141  0.58451856  0.20395388  1
  Se  Se250  1  0.41584392  0.57447552  0.68027942  1
  Se  Se251  1  0.42262160  0.91164417  0.19229826  1
  Se  Se252  1  0.41989282  0.90952301  0.68962825  1
  Se  Se253  1  0.74688487  0.25094286  0.19535843  1
  Se  Se254  1  0.76421954  0.24261953  0.68362006  1
  Se  Se255  1  0.75183138  0.58254105  0.20054817  1
  Se  Se256  1  0.74664727  0.57917455  0.69535869  1
  Se  Se257  1  0.76131182  0.90992194  0.18461378  1
  Se  Se258  1  0.76769477  0.89899003  0.69649519  1
