# generated using pymatgen
data_In86Cu29Se144
_symmetry_space_group_name_H-M   'P 1'
_cell_length_a   17.58851715
_cell_length_b   17.60128038
_cell_length_c   23.46039004
_cell_angle_alpha   89.99063077
_cell_angle_beta   89.99587735
_cell_angle_gamma   89.97583474
_symmetry_Int_Tables_number   1
_chemical_formula_structural   In86Cu29Se144
_chemical_formula_sum   'In86 Cu29 Se144'
_cell_volume   7262.87668611
_cell_formula_units_Z   1
loop_
 _symmetry_equiv_pos_site_id
 _symmetry_equiv_pos_as_xyz
  1  'x, y, z'
loop_
 _atom_site_type_symbol
 _atom_site_label
 _atom_site_symmetry_multiplicity
 _atom_site_fract_x
 _atom_site_fract_y
 _atom_site_fract_z
 _atom_site_occupancy
  In  In0  1  0.00749200  0.15195395  0.13082191  1
  In  In1  1  -0.00579141  0.15726861  0.61929728  1
  In  In2  1  0.01142241  0.50607231  0.12003408  1
  In  In3  1  0.00419584  0.50172513  0.61717375  1
  In  In4  1  0.00882974  0.84243798  0.11524417  1
  In  In5  1  0.02554748  0.83858482  0.62658448  1
  In  In6  1  0.32159237  0.17961492  0.13970504  1
  In  In7  1  0.33203313  0.16896703  0.62068676  1
  In  In8  1  0.32390765  0.50598352  0.13989509  1
  In  In9  1  0.32697576  0.49379607  0.62623564  1
  In  In10  1  0.32695394  0.84480509  0.12771452  1
  In  In11  1  0.31207052  0.84708120  0.63950023  1
  In  In12  1  0.64739391  0.16696564  0.13038158  1
  In  In13  1  0.65804415  0.15005873  0.61011719  1
  In  In14  1  0.66719888  0.49490099  0.12640550  1
  In  In15  1  0.66285663  0.49624839  0.61468833  1
  In  In16  1  0.67571932  0.83807227  0.12341652  1
  In  In17  1  0.67415195  0.84102147  0.62398841  1
  In  In18  1  0.16962542  0.00090664  0.37698491  1
  In  In19  1  0.16821933  -0.00237494  0.87255081  1
  In  In20  1  0.18074752  0.32996217  0.37571068  1
  In  In21  1  0.17361353  0.33166128  0.88162334  1
  In  In22  1  0.18649451  0.65039780  0.38689685  1
  In  In23  1  0.17318773  0.66083702  0.87975882  1
  In  In24  1  0.51210046  0.01629560  0.36233375  1
  In  In25  1  0.49600587  0.00024326  0.86722353  1
  In  In26  1  0.48605393  0.33928654  0.37893762  1
  In  In27  1  0.48298019  0.34424058  0.87693370  1
  In  In28  1  0.48073498  0.66247325  0.37149637  1
  In  In29  1  0.48717883  0.67541564  0.87438462  1
  In  In30  1  0.84075200  0.00314581  0.37599184  1
  In  In31  1  0.82681374  -0.00541915  0.87206779  1
  In  In32  1  0.82912242  0.33150833  0.38211961  1
  In  In33  1  0.84485701  0.33505051  0.87685898  1
  In  In34  1  0.83042729  0.65911436  0.37693454  1
  In  In35  1  0.84442152  0.66425602  0.88224878  1
  In  In36  1  0.01282083  0.15919124  0.38267896  1
  In  In37  1  0.01775501  0.16793909  0.87338472  1
  In  In38  1  0.01094734  0.48969981  0.37978556  1
  In  In39  1  0.00431876  0.49910311  0.88147149  1
  In  In40  1  0.00955428  0.84858556  0.37064926  1
  In  In41  1  -0.00694386  0.83975186  0.88093236  1
  In  In42  1  0.33479996  0.16233008  0.37731269  1
  In  In43  1  0.32552168  0.16038555  0.87031656  1
  In  In44  1  0.33593667  0.49682090  0.37176601  1
  In  In45  1  0.30532313  0.48547545  0.85067396  1
  In  In46  1  0.32300899  0.83070419  0.37362238  1
  In  In47  1  0.31553472  0.81914047  0.85715798  1
  In  In48  1  0.66819294  0.15741750  0.38894539  1
  In  In49  1  0.67382055  0.16169544  0.87098907  1
  In  In50  1  0.66398409  0.49453890  0.38061411  1
  In  In51  1  0.67365640  0.51008167  0.87338255  1
  In  In52  1  0.66201789  0.84615302  0.37793502  1
  In  In53  1  0.66759019  0.84657027  0.87413502  1
  In  In54  1  0.16744070  -0.00024166  0.12230450  1
  In  In55  1  0.16582018  0.00038558  0.62512846  1
  In  In56  1  0.18633848  0.34180925  0.11198560  1
  In  In57  1  0.17930668  0.34229802  0.61944760  1
  In  In58  1  0.17072018  0.67129760  0.12128440  1
  In  In59  1  0.17551826  0.66646129  0.62419097  1
  In  In60  1  0.48973903  0.01838999  0.14405290  1
  In  In61  1  0.49219023  0.00544458  0.62403392  1
  In  In62  1  0.47965416  0.33763546  0.13873850  1
  In  In63  1  0.49074142  0.32200834  0.61584927  1
  In  In64  1  0.48007251  0.66029864  0.13233783  1
  In  In65  1  0.49061206  0.65092831  0.61706713  1
  In  In66  1  0.84121504  -0.00331283  0.13096482  1
  In  In67  1  0.82656352  0.00670609  0.63125540  1
  In  In68  1  0.82888376  0.34303945  0.12498205  1
  In  In69  1  0.83440416  0.32909459  0.61577895  1
  In  In70  1  0.83656927  0.66990116  0.11789776  1
  In  In71  1  0.84242722  0.66046524  0.62403275  1
  In  In72  1  0.65817534  0.67237309  0.75232543  1
  In  In73  1  0.65916950  0.32819251  0.25235522  1
  In  In74  1  0.49404382  0.50425491  0.00940960  1
  In  In75  1  0.00762859  0.66980168  0.74479052  1
  In  In76  1  0.84107335  0.82921770  0.49840554  1
  In  In77  1  0.49144338  0.17120030  0.00400556  1
  In  In78  1  0.01000316  0.32833925  0.25904219  1
  In  In79  1  0.65990605  0.67537512  0.25813344  1
  In  In80  1  0.50327709  0.84087161  -0.00239504  1
  In  In81  1  0.01020400  0.67302716  0.24231893  1
  In  In82  1  0.83781832  0.17211739  0.00495519  1
  In  In83  1  0.49184193  0.83372321  0.49912527  1
  In  In84  1  0.00623758  0.32773493  0.75304001  1
  In  In85  1  0.65883598  0.31960460  0.74090327  1
  Cu  Cu86  1  0.49496072  0.83553536  0.25431639  1
  Cu  Cu87  1  0.66367764  0.65922193  0.49479532  1
  Cu  Cu88  1  0.00461346  0.33958201  -0.00050225  1
  Cu  Cu89  1  0.16523661  0.83593041  0.24517273  1
  Cu  Cu90  1  0.66721511  0.34479741  0.00443583  1
  Cu  Cu91  1  0.00081871  0.33243410  0.49766637  1
  Cu  Cu92  1  0.33145524  0.33537409  0.49894843  1
  Cu  Cu93  1  0.83832273  0.50571278  0.24833266  1
  Cu  Cu94  1  0.32393699  -0.00304588  -0.00319210  1
  Cu  Cu95  1  0.83474839  0.84697665  0.24879510  1
  Cu  Cu96  1  0.49762200  0.16895325  0.74219007  1
  Cu  Cu97  1  0.33050428  0.66223533  0.50022162  1
  Cu  Cu98  1  0.82894621  0.15926366  0.25556019  1
  Cu  Cu99  1  0.00590599  -0.00172139  0.50025883  1
  Cu  Cu100  1  0.67700978  0.66691042  0.00071229  1
  Cu  Cu101  1  0.66849152  0.00095689  0.00159992  1
  Cu  Cu102  1  0.16582153  0.15951817  0.25402070  1
  Cu  Cu103  1  0.48589070  0.49775943  0.74449017  1
  Cu  Cu104  1  0.83605145  0.84157671  0.75188076  1
  Cu  Cu105  1  0.33105486  0.00347501  0.50004794  1
  Cu  Cu106  1  0.00216276  0.66855237  0.00060675  1
  Cu  Cu107  1  0.83359236  0.15007818  0.74428630  1
  Cu  Cu108  1  0.66638942  0.33135684  0.49866889  1
  Cu  Cu109  1  0.17032542  0.16284673  0.74700393  1
  Cu  Cu110  1  0.49954824  0.83780406  0.74603607  1
  Cu  Cu111  1  0.32889510  0.66537514  -0.00133405  1
  Cu  Cu112  1  0.00209449  0.00280805  -0.00036767  1
  Cu  Cu113  1  0.83102004  0.49504872  0.74794219  1
  Cu  Cu114  1  0.00258069  0.66003691  0.50379874  1
  Se  Se115  1  0.08568916  0.08530318  0.05229946  1
  Se  Se116  1  0.08791757  0.08400582  0.55287281  1
  Se  Se117  1  0.09049825  0.42085167  0.05198671  1
  Se  Se118  1  0.08444814  0.41456491  0.55190937  1
  Se  Se119  1  0.08772344  0.75165457  0.05168172  1
  Se  Se120  1  0.08547601  0.74403816  0.55546855  1
  Se  Se121  1  0.40705529  0.07292423  0.05861031  1
  Se  Se122  1  0.41682052  0.08667173  0.55098079  1
  Se  Se123  1  0.40276101  0.41097887  0.06122414  1
  Se  Se124  1  0.41446709  0.41827889  0.55453748  1
  Se  Se125  1  0.41255326  0.74744078  0.05555951  1
  Se  Se126  1  0.40218932  0.74925927  0.56267796  1
  Se  Se127  1  0.74208215  0.08604639  0.06293829  1
  Se  Se128  1  0.76269155  0.08278683  0.55172865  1
  Se  Se129  1  0.75469617  0.42718259  0.05292056  1
  Se  Se130  1  0.75150007  0.41561972  0.55079737  1
  Se  Se131  1  0.75413468  0.75672121  0.05239794  1
  Se  Se132  1  0.74301802  0.73810156  0.55642769  1
  Se  Se133  1  0.24889941  0.23365048  0.05420952  1
  Se  Se134  1  0.24796082  0.24930406  0.55028812  1
  Se  Se135  1  0.25496111  0.58109118  0.05874241  1
  Se  Se136  1  0.24778686  0.57747076  0.55394322  1
  Se  Se137  1  0.24425814  0.91194463  0.05122630  1
  Se  Se138  1  0.25067844  0.91801626  0.55438700  1
  Se  Se139  1  0.58245860  0.26806721  0.06140247  1
  Se  Se140  1  0.58173567  0.24717418  0.54966119  1
  Se  Se141  1  0.59017067  0.59872046  0.06391148  1
  Se  Se142  1  0.57830034  0.57794632  0.54745952  1
  Se  Se143  1  0.58189422  0.93157949  0.06452317  1
  Se  Se144  1  0.58722960  0.92177211  0.55592779  1
  Se  Se145  1  0.92961504  0.26039411  0.06544663  1
  Se  Se146  1  0.91929867  0.24680752  0.55022380  1
  Se  Se147  1  0.92012203  0.58298795  0.05456265  1
  Se  Se148  1  0.91222405  0.57769730  0.55021063  1
  Se  Se149  1  0.91447818  0.92242085  0.05263591  1
  Se  Se150  1  0.92569686  0.91820487  0.56247779  1
  Se  Se151  1  0.08841560  0.25498214  0.44363285  1
  Se  Se152  1  0.08408575  0.25167251  0.94803499  1
  Se  Se153  1  0.08590827  0.57869185  0.44798243  1
  Se  Se154  1  0.08557391  0.58384945  0.94814319  1
  Se  Se155  1  0.08952111  0.91405146  0.44843203  1
  Se  Se156  1  0.08408422  0.91957881  0.94502210  1
  Se  Se157  1  0.41364617  0.24821240  0.44781441  1
  Se  Se158  1  0.40092141  0.25824137  0.94385614  1
  Se  Se159  1  0.41462689  0.57973969  0.44711922  1
  Se  Se160  1  0.40857490  0.58433658  0.93976307  1
  Se  Se161  1  0.40975672  0.92486420  0.43642383  1
  Se  Se162  1  0.40716338  0.91941969  0.93603643  1
  Se  Se163  1  0.75325775  0.24593473  0.45139186  1
  Se  Se164  1  0.74138831  0.25983966  0.94369643  1
  Se  Se165  1  0.75209286  0.57666610  0.44593928  1
  Se  Se166  1  0.75589501  0.58075580  0.94676179  1
  Se  Se167  1  0.74739503  0.92383990  0.44843650  1
  Se  Se168  1  0.75076566  0.91751883  0.94879038  1
  Se  Se169  1  0.24512496  0.08701554  0.44806223  1
  Se  Se170  1  0.24501096  0.08512176  0.94426797  1
  Se  Se171  1  0.25073426  0.42143592  0.44548358  1
  Se  Se172  1  0.24902741  0.42987003  0.94165484  1
  Se  Se173  1  0.24935820  0.75337936  0.45141408  1
  Se  Se174  1  0.25214046  0.75431173  0.94464440  1
  Se  Se175  1  0.57577046  0.07545287  0.44986395  1
  Se  Se176  1  0.58660154  0.08089067  0.94262575  1
  Se  Se177  1  0.57982084  0.41310857  0.44677282  1
  Se  Se178  1  0.58692925  0.41902506  0.94044037  1
  Se  Se179  1  0.58484627  0.74205330  0.43740609  1
  Se  Se180  1  0.59325772  0.74266157  0.94001899  1
  Se  Se181  1  0.92108180  0.08149008  0.44833908  1
  Se  Se182  1  0.92008716  0.08335773  0.93928833  1
  Se  Se183  1  0.91657542  0.41662542  0.44485055  1
  Se  Se184  1  0.91544019  0.41964332  0.94871208  1
  Se  Se185  1  0.93139022  0.74095797  0.43651177  1
  Se  Se186  1  0.91586049  0.75339576  0.95111479  1
  Se  Se187  1  0.25205503  0.24310431  0.30430626  1
  Se  Se188  1  0.24395916  0.24986811  0.80507334  1
  Se  Se189  1  0.25989156  0.59054368  0.30506461  1
  Se  Se190  1  0.25781465  0.60425867  0.79927010  1
  Se  Se191  1  0.24584097  0.91701248  0.30388339  1
  Se  Se192  1  0.26609273  0.93533053  0.80356965  1
  Se  Se193  1  0.57965270  0.24396594  0.32004815  1
  Se  Se194  1  0.56963029  0.24433887  0.81368365  1
  Se  Se195  1  0.57606007  0.57443236  0.30961252  1
  Se  Se196  1  0.56757541  0.57350768  0.80732571  1
  Se  Se197  1  0.58616302  0.91602522  0.30069582  1
  Se  Se198  1  0.58335312  0.91741717  0.80156800  1
  Se  Se199  1  0.91045259  0.24175052  0.31288778  1
  Se  Se200  1  0.90681273  0.23514500  0.80632016  1
  Se  Se201  1  0.92191779  0.58109517  0.30732555  1
  Se  Se202  1  0.91335574  0.57560118  0.80491754  1
  Se  Se203  1  0.92148057  0.92391978  0.30300990  1
  Se  Se204  1  0.92050983  0.92173850  0.80550161  1
  Se  Se205  1  0.08046027  0.07778901  0.30588107  1
  Se  Se206  1  0.08532458  0.08188123  0.80119174  1
  Se  Se207  1  0.10286921  0.42658607  0.30494531  1
  Se  Se208  1  0.09066283  0.42405780  0.80882169  1
  Se  Se209  1  0.09580633  0.75303735  0.31141786  1
  Se  Se210  1  0.08438209  0.75378620  0.81563110  1
  Se  Se211  1  0.39763837  0.06666078  0.30674067  1
  Se  Se212  1  0.41739121  0.08834411  0.80160936  1
  Se  Se213  1  0.40656127  0.40527153  0.30126075  1
  Se  Se214  1  0.40838261  0.40808420  0.79571210  1
  Se  Se215  1  0.40960185  0.75201408  0.30330465  1
  Se  Se216  1  0.41824725  0.74932479  0.79571417  1
  Se  Se217  1  0.74671996  0.08126104  0.31241913  1
  Se  Se218  1  0.74479070  0.07578751  0.80034746  1
  Se  Se219  1  0.75765398  0.42261709  0.30513672  1
  Se  Se220  1  0.75057861  0.41201505  0.80486390  1
  Se  Se221  1  0.76148948  0.76389704  0.31141921  1
  Se  Se222  1  0.76003735  0.75360559  0.81008658  1
  Se  Se223  1  0.24772508  0.07720696  0.19682030  1
  Se  Se224  1  0.25436012  0.08384634  0.69112684  1
  Se  Se225  1  0.26509225  0.39257930  0.19563142  1
  Se  Se226  1  0.24945590  0.41250889  0.69895790  1
  Se  Se227  1  0.24981178  0.75246668  0.19295153  1
  Se  Se228  1  0.24184793  0.74837942  0.70094413  1
  Se  Se229  1  0.59422008  0.07876742  0.20654456  1
  Se  Se230  1  0.58262989  0.08487957  0.69195689  1
  Se  Se231  1  0.57286040  0.42912380  0.19752082  1
  Se  Se232  1  0.57466541  0.42133125  0.68861987  1
  Se  Se233  1  0.57348886  0.75898877  0.18838792  1
  Se  Se234  1  0.57398603  0.75500581  0.68273160  1
  Se  Se235  1  0.91727078  0.08307112  0.20091331  1
  Se  Se236  1  0.92721251  0.07344515  0.69638602  1
  Se  Se237  1  0.92018202  0.42179195  0.19383594  1
  Se  Se238  1  0.91354535  0.41662530  0.69012311  1
  Se  Se239  1  0.91105468  0.76213808  0.18953401  1
  Se  Se240  1  0.91135211  0.76147551  0.68885919  1
  Se  Se241  1  0.09403307  0.24537192  0.19091014  1
  Se  Se242  1  0.08930197  0.24285886  0.68579499  1
  Se  Se243  1  0.10054409  0.57348215  0.19446869  1
  Se  Se244  1  0.09213203  0.56990575  0.69199345  1
  Se  Se245  1  0.08076945  0.91902277  0.19253278  1
  Se  Se246  1  0.09536899  0.91625959  0.70091948  1
  Se  Se247  1  0.44640638  0.21543676  0.19186026  1
  Se  Se248  1  0.41218623  0.25280368  0.69325284  1
  Se  Se249  1  0.41307195  0.58182878  0.20756051  1
  Se  Se250  1  0.40779756  0.58602161  0.69328700  1
  Se  Se251  1  0.41156624  0.91846520  0.19989542  1
  Se  Se252  1  0.41529085  0.92239708  0.69554948  1
  Se  Se253  1  0.75790389  0.24299201  0.19183039  1
  Se  Se254  1  0.75678460  0.23556849  0.68545521  1
  Se  Se255  1  0.75313937  0.58645190  0.19413271  1
  Se  Se256  1  0.74890258  0.57835867  0.69232681  1
  Se  Se257  1  0.74525099  0.92364501  0.19660874  1
  Se  Se258  1  0.74674749  0.91881214  0.69936091  1
