# generated using pymatgen
data_In86Cu29Se144
_symmetry_space_group_name_H-M   'P 1'
_cell_length_a   17.57655080
_cell_length_b   17.57864011
_cell_length_c   23.44188249
_cell_angle_alpha   90.00208443
_cell_angle_beta   90.00228239
_cell_angle_gamma   90.00326498
_symmetry_Int_Tables_number   1
_chemical_formula_structural   In86Cu29Se144
_chemical_formula_sum   'In86 Cu29 Se144'
_cell_volume   7242.88203566
_cell_formula_units_Z   1
loop_
 _symmetry_equiv_pos_site_id
 _symmetry_equiv_pos_as_xyz
  1  'x, y, z'
loop_
 _atom_site_type_symbol
 _atom_site_label
 _atom_site_symmetry_multiplicity
 _atom_site_fract_x
 _atom_site_fract_y
 _atom_site_fract_z
 _atom_site_occupancy
  In  In0  1  0.00153780  0.18388814  0.12295335  1
  In  In1  1  -0.01366826  0.17014201  0.62750604  1
  In  In2  1  -0.00923227  0.49127646  0.11602648  1
  In  In3  1  -0.00118323  0.50377293  0.61894867  1
  In  In4  1  0.00017698  0.83120602  0.11485076  1
  In  In5  1  0.00114712  0.83184866  0.63678905  1
  In  In6  1  0.34592827  0.16949851  0.12177359  1
  In  In7  1  0.33780705  0.16787590  0.63290783  1
  In  In8  1  0.33383052  0.49532349  0.12737881  1
  In  In9  1  0.31858278  0.49875749  0.62115213  1
  In  In10  1  0.31963888  0.83277609  0.11857933  1
  In  In11  1  0.34083893  0.84273001  0.62894108  1
  In  In12  1  0.66601529  0.16871384  0.12517868  1
  In  In13  1  0.66773547  0.16810133  0.62537654  1
  In  In14  1  0.65769821  0.49195634  0.11806690  1
  In  In15  1  0.66790027  0.48578224  0.62562363  1
  In  In16  1  0.68050047  0.83528360  0.12136914  1
  In  In17  1  0.67135056  0.83965878  0.63259116  1
  In  In18  1  0.17153699  -0.00667395  0.37956584  1
  In  In19  1  0.15435751  -0.00521344  0.86434101  1
  In  In20  1  0.18206879  0.35333106  0.36705444  1
  In  In21  1  0.18327241  0.33155408  0.87415304  1
  In  In22  1  0.17538379  0.63847235  0.38614600  1
  In  In23  1  0.15706760  0.67340675  0.88080870  1
  In  In24  1  0.51401361  -0.00041963  0.37480223  1
  In  In25  1  0.51755392  0.01111433  0.86401441  1
  In  In26  1  0.48888791  0.32136875  0.37244624  1
  In  In27  1  0.50189229  0.33095419  0.87811918  1
  In  In28  1  0.49607966  0.67572788  0.37228941  1
  In  In29  1  0.48798680  0.65880329  0.87633895  1
  In  In30  1  0.82946745  0.01787670  0.37764211  1
  In  In31  1  0.83203888  0.00264370  0.87646896  1
  In  In32  1  0.83227836  0.33258321  0.37240579  1
  In  In33  1  0.81866749  0.34612024  0.87984851  1
  In  In34  1  0.82917647  0.65222871  0.38236174  1
  In  In35  1  0.84869803  0.65263878  0.87679617  1
  In  In36  1  -0.01672442  0.17184890  0.38173496  1
  In  In37  1  -0.00176991  0.15154023  0.86921910  1
  In  In38  1  0.01185286  0.49291929  0.38489499  1
  In  In39  1  -0.01107385  0.51090238  0.87805198  1
  In  In40  1  -0.00741012  0.82918565  0.37191277  1
  In  In41  1  -0.00176853  0.83042672  0.87369867  1
  In  In42  1  0.33872454  0.18997056  0.38026566  1
  In  In43  1  0.33878125  0.18194079  0.86645948  1
  In  In44  1  0.32926288  0.49208368  0.37303247  1
  In  In45  1  0.33990722  0.49133006  0.88305123  1
  In  In46  1  0.34696666  0.83554731  0.36900014  1
  In  In47  1  0.32129857  0.82478432  0.87344011  1
  In  In48  1  0.66466672  0.17045860  0.37443089  1
  In  In49  1  0.66780553  0.17104959  0.87745836  1
  In  In50  1  0.68576300  0.49721469  0.37810679  1
  In  In51  1  0.67628453  0.48547692  0.88023549  1
  In  In52  1  0.65546866  0.83619095  0.37168047  1
  In  In53  1  0.66930387  0.85142604  0.87101270  1
  In  In54  1  0.17588931  -0.00496376  0.11733981  1
  In  In55  1  0.16573621  0.00901200  0.64596159  1
  In  In56  1  0.15555367  0.34275578  0.13068527  1
  In  In57  1  0.16688388  0.34478163  0.62724579  1
  In  In58  1  0.17122003  0.66655321  0.12030305  1
  In  In59  1  0.16097505  0.64922013  0.61847167  1
  In  In60  1  0.50383976  0.01998845  0.11775505  1
  In  In61  1  0.48675648  0.01226065  0.64082497  1
  In  In62  1  0.50151964  0.33179208  0.12710381  1
  In  In63  1  0.51214964  0.32592278  0.62982250  1
  In  In64  1  0.50200962  0.64790443  0.12508878  1
  In  In65  1  0.49278858  0.66417592  0.62225171  1
  In  In66  1  0.82690163  -0.00555175  0.11752422  1
  In  In67  1  0.82090015  0.00874713  0.63749213  1
  In  In68  1  0.83016525  0.33050236  0.12206668  1
  In  In69  1  0.83197412  0.32662514  0.61928318  1
  In  In70  1  0.83330120  0.66736781  0.11570664  1
  In  In71  1  0.84167646  0.66151095  0.62566567  1
  In  In72  1  0.50382143  0.83330770  0.50591016  1
  In  In73  1  0.00596757  0.32859685  0.74966996  1
  In  In74  1  0.34173968  0.00639569  0.23712329  1
  In  In75  1  0.00520367  0.66496411  0.25517111  1
  In  In76  1  0.83007420  0.82468533  0.50203582  1
  In  In77  1  0.16448598  0.16481268  -0.00558986  1
  In  In78  1  0.16946129  0.82914788  0.50823976  1
  In  In79  1  0.49831899  0.83144824  -0.00988761  1
  In  In80  1  0.00333193  0.01313945  0.24620817  1
  In  In81  1  0.66765414  0.66182965  0.25404171  1
  In  In82  1  0.32610544  0.66785745  0.74555418  1
  In  In83  1  0.50014591  0.49733364  0.49802307  1
  In  In84  1  0.66528863  0.66762989  0.74556682  1
  In  In85  1  0.16275131  0.17423733  0.50772976  1
  Cu  Cu86  1  -0.00826206  -0.00438895  0.50635766  1
  Cu  Cu87  1  0.33828661  0.01208505  0.50864626  1
  Cu  Cu88  1  -0.00434273  0.33441587  -0.00173964  1
  Cu  Cu89  1  0.33705000  0.33327998  0.00155182  1
  Cu  Cu90  1  0.50002639  0.48912207  0.75458752  1
  Cu  Cu91  1  -0.00076022  0.33696554  0.49931169  1
  Cu  Cu92  1  0.66380247  0.33109453  0.00210098  1
  Cu  Cu93  1  0.66749395  0.00966339  0.50320755  1
  Cu  Cu94  1  0.50756539  0.17441637  0.75160854  1
  Cu  Cu95  1  0.49841079  0.49263056  0.24849688  1
  Cu  Cu96  1  -0.00250703  -0.00560483  -0.00804646  1
  Cu  Cu97  1  0.83552690  0.48957883  0.24609366  1
  Cu  Cu98  1  0.16505082  0.50279307  0.74974695  1
  Cu  Cu99  1  0.83411486  0.83514839  0.75454918  1
  Cu  Cu100  1  0.16292653  0.17717486  0.25385112  1
  Cu  Cu101  1  0.15994720  0.83099998  0.75335204  1
  Cu  Cu102  1  0.17020521  0.82580897  0.24514098  1
  Cu  Cu103  1  0.67035862  0.32780298  0.49992784  1
  Cu  Cu104  1  0.00441969  0.66593739  -0.00178472  1
  Cu  Cu105  1  0.50236906  0.16933359  0.24917803  1
  Cu  Cu106  1  0.82773382  0.16811356  0.75191048  1
  Cu  Cu107  1  0.83052899  0.83902932  0.24499090  1
  Cu  Cu108  1  0.16928187  0.49716768  0.25048468  1
  Cu  Cu109  1  0.33256217  -0.00039010  -0.00527709  1
  Cu  Cu110  1  0.66788752  0.00647046  -0.00410133  1
  Cu  Cu111  1  0.33199531  0.65724264  0.00088139  1
  Cu  Cu112  1  0.67327706  0.66584401  -0.00296759  1
  Cu  Cu113  1  0.50166273  0.83296082  0.24701978  1
  Cu  Cu114  1  0.82495502  0.17236235  0.25121692  1
  Se  Se115  1  0.07340398  0.07510114  0.05805715  1
  Se  Se116  1  0.07791155  0.07291427  0.56342574  1
  Se  Se117  1  0.08379509  0.41455214  0.05031025  1
  Se  Se118  1  0.08398502  0.41693740  0.55396821  1
  Se  Se119  1  0.08844700  0.74953317  0.05164369  1
  Se  Se120  1  0.06872866  0.74403596  0.55962262  1
  Se  Se121  1  0.41384362  0.08612186  0.04570517  1
  Se  Se122  1  0.42387620  0.09195094  0.56005801  1
  Se  Se123  1  0.41941156  0.41559940  0.05776993  1
  Se  Se124  1  0.41729224  0.41155086  0.56451143  1
  Se  Se125  1  0.41498947  0.74236763  0.05806325  1
  Se  Se126  1  0.40082543  0.74420149  0.55439456  1
  Se  Se127  1  0.74909037  0.08715819  0.05400806  1
  Se  Se128  1  0.75601044  0.08645546  0.55688694  1
  Se  Se129  1  0.75032785  0.41655858  0.05273803  1
  Se  Se130  1  0.75149288  0.41447385  0.55117223  1
  Se  Se131  1  0.75363345  0.75393215  0.04801776  1
  Se  Se132  1  0.73684563  0.74206119  0.56347901  1
  Se  Se133  1  0.24963106  0.25408794  0.05972941  1
  Se  Se134  1  0.25941530  0.26000105  0.56161384  1
  Se  Se135  1  0.24963749  0.57501247  0.05598221  1
  Se  Se136  1  0.25715673  0.59023662  0.54947737  1
  Se  Se137  1  0.24763275  0.91383315  0.04289042  1
  Se  Se138  1  0.25226524  0.93230391  0.56292244  1
  Se  Se139  1  0.57974837  0.24760773  0.05570787  1
  Se  Se140  1  0.58512999  0.24732775  0.55313195  1
  Se  Se141  1  0.58669770  0.58462997  0.04888287  1
  Se  Se142  1  0.58956827  0.58653066  0.56046308  1
  Se  Se143  1  0.58682119  0.92051518  0.05446278  1
  Se  Se144  1  0.58786834  0.92973207  0.56427543  1
  Se  Se145  1  0.91335599  0.24881013  0.04996123  1
  Se  Se146  1  0.91846932  0.24772758  0.54915160  1
  Se  Se147  1  0.91678503  0.58384773  0.04990592  1
  Se  Se148  1  0.90918763  0.57917304  0.55093402  1
  Se  Se149  1  0.91468918  0.91461207  0.05067155  1
  Se  Se150  1  0.91261815  0.91699158  0.56664682  1
  Se  Se151  1  0.08214508  0.25911473  0.43751655  1
  Se  Se152  1  0.07454151  0.25615417  0.93509139  1
  Se  Se153  1  0.07492221  0.58828826  0.45399886  1
  Se  Se154  1  0.08527025  0.57804477  0.94685027  1
  Se  Se155  1  0.07199576  0.91908018  0.44532416  1
  Se  Se156  1  0.08538453  0.91393036  0.94171351  1
  Se  Se157  1  0.42298427  0.25136925  0.45596510  1
  Se  Se158  1  0.41622342  0.24778576  0.94702598  1
  Se  Se159  1  0.41175424  0.59068515  0.43913949  1
  Se  Se160  1  0.42093903  0.57635913  0.95220876  1
  Se  Se161  1  0.41200907  0.92765365  0.44557290  1
  Se  Se162  1  0.41230191  0.92358200  0.93057281  1
  Se  Se163  1  0.75407236  0.24661910  0.44307432  1
  Se  Se164  1  0.75090215  0.25109283  0.94863166  1
  Se  Se165  1  0.74406034  0.58431520  0.45416510  1
  Se  Se166  1  0.75418962  0.57999476  0.94374206  1
  Se  Se167  1  0.74172214  0.92223559  0.44264361  1
  Se  Se168  1  0.75113116  0.91826479  0.94787182  1
  Se  Se169  1  0.25518559  0.08333510  0.44390128  1
  Se  Se170  1  0.25381138  0.07907218  0.93208943  1
  Se  Se171  1  0.24801107  0.42204947  0.44903209  1
  Se  Se172  1  0.24958364  0.41481305  0.95097273  1
  Se  Se173  1  0.25568292  0.75403873  0.43531241  1
  Se  Se174  1  0.25100591  0.74492994  0.94952639  1
  Se  Se175  1  0.58260254  0.08709709  0.44635791  1
  Se  Se176  1  0.58084073  0.08784475  0.94577887  1
  Se  Se177  1  0.59043815  0.40755094  0.43744245  1
  Se  Se178  1  0.58157013  0.41645419  0.94832336  1
  Se  Se179  1  0.59334850  0.74098197  0.44510247  1
  Se  Se180  1  0.59329387  0.74217524  0.93343997  1
  Se  Se181  1  0.91345909  0.08346422  0.45372223  1
  Se  Se182  1  0.91589514  0.08564566  0.94660795  1
  Se  Se183  1  0.91271312  0.41584340  0.44376461  1
  Se  Se184  1  0.91331091  0.42012420  0.94585382  1
  Se  Se185  1  0.92629595  0.73782560  0.44417144  1
  Se  Se186  1  0.91798655  0.74776167  0.94518071  1
  Se  Se187  1  0.25429205  0.25408338  0.30391736  1
  Se  Se188  1  0.24518502  0.24936150  0.79751284  1
  Se  Se189  1  0.25243564  0.58215316  0.30250270  1
  Se  Se190  1  0.24609699  0.57931102  0.81348224  1
  Se  Se191  1  0.24909855  0.91573864  0.30008306  1
  Se  Se192  1  0.24838468  0.91162762  0.80304478  1
  Se  Se193  1  0.58372803  0.25320721  0.30378550  1
  Se  Se194  1  0.58989737  0.25695720  0.80699394  1
  Se  Se195  1  0.57654803  0.57140276  0.31301585  1
  Se  Se196  1  0.57812899  0.57682250  0.81003750  1
  Se  Se197  1  0.58413422  0.91888062  0.29762534  1
  Se  Se198  1  0.58050555  0.91158875  0.79769105  1
  Se  Se199  1  0.91677194  0.24916350  0.30268305  1
  Se  Se200  1  0.90782537  0.24933628  0.81225767  1
  Se  Se201  1  0.91102436  0.57263470  0.30823315  1
  Se  Se202  1  0.92137469  0.58319626  0.79725295  1
  Se  Se203  1  0.91128909  0.91932046  0.30551064  1
  Se  Se204  1  0.91666660  0.91953240  0.80807275  1
  Se  Se205  1  0.09258521  0.09182091  0.31625478  1
  Se  Se206  1  0.08876273  0.09098339  0.79710642  1
  Se  Se207  1  0.07918635  0.41876112  0.30322797  1
  Se  Se208  1  0.08835528  0.42235108  0.81314610  1
  Se  Se209  1  0.09792790  0.75374557  0.31446530  1
  Se  Se210  1  0.07807930  0.74341206  0.80354819  1
  Se  Se211  1  0.42028382  0.08843987  0.31060188  1
  Se  Se212  1  0.42261736  0.09139497  0.80388337  1
  Se  Se213  1  0.41437823  0.41260735  0.30440979  1
  Se  Se214  1  0.41321779  0.41068607  0.80845719  1
  Se  Se215  1  0.41659600  0.74907369  0.29618573  1
  Se  Se216  1  0.42134796  0.75332783  0.80497974  1
  Se  Se217  1  0.74517373  0.08406943  0.30320561  1
  Se  Se218  1  0.74698172  0.08404610  0.80777829  1
  Se  Se219  1  0.74815246  0.41290553  0.30061444  1
  Se  Se220  1  0.74963578  0.41861031  0.79988676  1
  Se  Se221  1  0.76072204  0.75638354  0.31114511  1
  Se  Se222  1  0.75490745  0.75019927  0.81300060  1
  Se  Se223  1  0.23730004  0.09611123  0.18908871  1
  Se  Se224  1  0.27113790  0.07349977  0.70210912  1
  Se  Se225  1  0.25171444  0.41157623  0.19744658  1
  Se  Se226  1  0.25121441  0.41930578  0.70013867  1
  Se  Se227  1  0.25486219  0.74480512  0.19291553  1
  Se  Se228  1  0.23534816  0.75676992  0.68429418  1
  Se  Se229  1  0.58378471  0.08379937  0.19630166  1
  Se  Se230  1  0.58845026  0.08728430  0.69845711  1
  Se  Se231  1  0.58693444  0.41499623  0.19594779  1
  Se  Se232  1  0.58834439  0.41269389  0.70087544  1
  Se  Se233  1  0.58315024  0.75189605  0.18717496  1
  Se  Se234  1  0.56813754  0.75701645  0.69052303  1
  Se  Se235  1  0.90672450  0.09517930  0.18769725  1
  Se  Se236  1  0.91578544  0.08552296  0.70133167  1
  Se  Se237  1  0.91956997  0.40990066  0.19126668  1
  Se  Se238  1  0.91603632  0.41494614  0.68851559  1
  Se  Se239  1  0.91343129  0.75472243  0.19189953  1
  Se  Se240  1  0.91109835  0.74877694  0.69889731  1
  Se  Se241  1  0.07699564  0.25600800  0.20038202  1
  Se  Se242  1  0.09428892  0.23876813  0.68810742  1
  Se  Se243  1  0.08590314  0.57521471  0.18902324  1
  Se  Se244  1  0.07992625  0.58058024  0.69484085  1
  Se  Se245  1  0.08943179  0.91070769  0.19023722  1
  Se  Se246  1  0.07665628  0.92041037  0.70463171  1
  Se  Se247  1  0.41521069  0.25051979  0.19736454  1
  Se  Se248  1  0.42007266  0.25533601  0.69941682  1
  Se  Se249  1  0.41623910  0.57989761  0.19807542  1
  Se  Se250  1  0.42131096  0.57073490  0.69372146  1
  Se  Se251  1  0.42776764  0.90981531  0.17897472  1
  Se  Se252  1  0.41659231  0.91437781  0.70399268  1
  Se  Se253  1  0.74497991  0.25499942  0.19445905  1
  Se  Se254  1  0.75087895  0.25245647  0.69408889  1
  Se  Se255  1  0.75733449  0.57782868  0.18915659  1
  Se  Se256  1  0.75568248  0.57290652  0.69287439  1
  Se  Se257  1  0.74657860  0.92320628  0.19548966  1
  Se  Se258  1  0.74612484  0.91910849  0.70636452  1
