# generated using pymatgen
data_In86Cu29Se144
_symmetry_space_group_name_H-M   'P 1'
_cell_length_a   17.58852859
_cell_length_b   17.58527931
_cell_length_c   23.44448090
_cell_angle_alpha   89.99422418
_cell_angle_beta   89.99286748
_cell_angle_gamma   90.00612567
_symmetry_Int_Tables_number   1
_chemical_formula_structural   In86Cu29Se144
_chemical_formula_sum   'In86 Cu29 Se144'
_cell_volume   7251.35876775
_cell_formula_units_Z   1
loop_
 _symmetry_equiv_pos_site_id
 _symmetry_equiv_pos_as_xyz
  1  'x, y, z'
loop_
 _atom_site_type_symbol
 _atom_site_label
 _atom_site_symmetry_multiplicity
 _atom_site_fract_x
 _atom_site_fract_y
 _atom_site_fract_z
 _atom_site_occupancy
  In  In0  1  -0.01018951  0.17340356  0.13060874  1
  In  In1  1  -0.00377626  0.16549588  0.61969749  1
  In  In2  1  0.00166399  0.49796011  0.13163905  1
  In  In3  1  0.00574380  0.48624658  0.62428065  1
  In  In4  1  -0.00346084  0.83502923  0.14397420  1
  In  In5  1  0.00425584  0.84530615  0.61823886  1
  In  In6  1  0.34986780  0.17063458  0.12599630  1
  In  In7  1  0.33822585  0.17422292  0.61706343  1
  In  In8  1  0.32201590  0.49785300  0.12435194  1
  In  In9  1  0.33534850  0.50928729  0.61427051  1
  In  In10  1  0.34334842  0.82153031  0.12848733  1
  In  In11  1  0.32515557  0.82134524  0.61394575  1
  In  In12  1  0.66944992  0.17205781  0.11113226  1
  In  In13  1  0.65493046  0.15921838  0.61667902  1
  In  In14  1  0.66365861  0.51016924  0.12804546  1
  In  In15  1  0.65935831  0.50912935  0.62044209  1
  In  In16  1  0.65701762  0.84062453  0.12506872  1
  In  In17  1  0.67581673  0.84175099  0.61547739  1
  In  In18  1  0.15925953  0.00715309  0.38257391  1
  In  In19  1  0.16298314  0.00804372  0.86712126  1
  In  In20  1  0.16705224  0.33414668  0.37247178  1
  In  In21  1  0.17168207  0.34488877  0.87361827  1
  In  In22  1  0.16409283  0.67540516  0.38957440  1
  In  In23  1  0.17011027  0.64600372  0.87486640  1
  In  In24  1  0.49803922  0.00453255  0.38237836  1
  In  In25  1  0.51668949  -0.01058590  0.88029671  1
  In  In26  1  0.48985608  0.35169435  0.38462001  1
  In  In27  1  0.51360509  0.32428157  0.89474311  1
  In  In28  1  0.50757034  0.65578369  0.38409573  1
  In  In29  1  0.49220790  0.67114573  0.87596390  1
  In  In30  1  0.84662913  -0.00895978  0.37899577  1
  In  In31  1  0.84027010  0.00576642  0.86711844  1
  In  In32  1  0.83220406  0.31655534  0.37723884  1
  In  In33  1  0.83414146  0.31114246  0.87713744  1
  In  In34  1  0.84030738  0.68250426  0.35784237  1
  In  In35  1  0.83717754  0.67867983  0.87945047  1
  In  In36  1  0.00108259  0.16556106  0.37409376  1
  In  In37  1  -0.00567364  0.15847587  0.86693002  1
  In  In38  1  0.00993407  0.50844199  0.36894308  1
  In  In39  1  0.02063013  0.49905580  0.88058880  1
  In  In40  1  -0.00397383  0.83535483  0.37424311  1
  In  In41  1  -0.00908202  0.83715498  0.87354742  1
  In  In42  1  0.32468747  0.17803302  0.38062158  1
  In  In43  1  0.33702510  0.17506183  0.87342901  1
  In  In44  1  0.34590135  0.49472737  0.38306826  1
  In  In45  1  0.33038307  0.49875573  0.88018452  1
  In  In46  1  0.33944291  0.82000689  0.39657790  1
  In  In47  1  0.35144019  0.82999922  0.86920255  1
  In  In48  1  0.66922110  0.17679721  0.38959098  1
  In  In49  1  0.68538886  0.15112243  0.89381201  1
  In  In50  1  0.64516081  0.50842024  0.37175312  1
  In  In51  1  0.66143298  0.48482216  0.88382259  1
  In  In52  1  0.67629644  0.82485166  0.37578787  1
  In  In53  1  0.65649813  0.83095919  0.87247082  1
  In  In54  1  0.15727214  -0.00594176  0.12920442  1
  In  In55  1  0.15259308  -0.00631032  0.61951080  1
  In  In56  1  0.15504278  0.34358634  0.13414608  1
  In  In57  1  0.16022942  0.32519632  0.61450992  1
  In  In58  1  0.16808998  0.65676182  0.12900283  1
  In  In59  1  0.17647207  0.67810709  0.60818937  1
  In  In60  1  0.52076662  0.00585192  0.11132816  1
  In  In61  1  0.50831417  0.00647161  0.62005203  1
  In  In62  1  0.49774316  0.33248958  0.12562682  1
  In  In63  1  0.50066758  0.33263472  0.61415539  1
  In  In64  1  0.50192482  0.67157650  0.12168552  1
  In  In65  1  0.48546213  0.65787042  0.61040422  1
  In  In66  1  0.82549837  0.01046341  0.12543336  1
  In  In67  1  0.83167334  0.00181772  0.62229728  1
  In  In68  1  0.84049857  0.32923945  0.12666004  1
  In  In69  1  0.85049157  0.33431618  0.62363547  1
  In  In70  1  0.83831319  0.66577352  0.14133598  1
  In  In71  1  0.82374260  0.67262303  0.61879932  1
  In  In72  1  0.66011612  0.66712545  0.74594011  1
  In  In73  1  0.33104306  0.66469752  0.25812123  1
  In  In74  1  0.83126064  0.49313872  0.01257910  1
  In  In75  1  0.67290175  -0.00134555  0.24751985  1
  In  In76  1  0.17161128  0.82873795  0.00671916  1
  In  In77  1  0.66848440  0.32629282  0.75210667  1
  In  In78  1  0.83256290  0.83401760  0.00297195  1
  In  In79  1  0.33395066  0.33540905  0.75134446  1
  In  In80  1  0.17068257  0.17049105  -0.00566184  1
  In  In81  1  0.00449653  0.66589246  0.75152770  1
  In  In82  1  0.32710666  -0.00186802  0.25130950  1
  In  In83  1  0.82588076  0.49986281  0.49518494  1
  In  In84  1  0.33252334  -0.00254138  0.74233684  1
  In  In85  1  0.66723594  0.33783859  0.25002614  1
  Cu  Cu86  1  0.16422684  0.16844824  0.25631936  1
  Cu  Cu87  1  0.50250562  0.83009240  0.74645264  1
  Cu  Cu88  1  0.15254896  0.16532351  0.73983579  1
  Cu  Cu89  1  -0.00828333  0.66663940  0.49300448  1
  Cu  Cu90  1  0.49302375  0.49914925  0.74878514  1
  Cu  Cu91  1  0.66302154  0.67112406  0.49592706  1
  Cu  Cu92  1  -0.00312954  0.00380240  -0.00380144  1
  Cu  Cu93  1  0.34598134  -0.00698079  -0.00117738  1
  Cu  Cu94  1  0.83551682  0.49535485  0.25106244  1
  Cu  Cu95  1  0.33808807  0.66592654  0.00117069  1
  Cu  Cu96  1  0.33138062  0.33818249  0.00404769  1
  Cu  Cu97  1  0.16616898  0.49736204  0.25305307  1
  Cu  Cu98  1  0.84224614  0.49535826  0.75114872  1
  Cu  Cu99  1  0.16776472  0.82674338  0.73959767  1
  Cu  Cu100  1  -0.00500872  0.00245342  0.49831229  1
  Cu  Cu101  1  0.83469117  0.84379888  0.74320341  1
  Cu  Cu102  1  0.49985582  0.17548665  0.25185928  1
  Cu  Cu103  1  0.16246080  0.83574269  0.26460346  1
  Cu  Cu104  1  0.33179674  0.33377942  0.49784653  1
  Cu  Cu105  1  -0.00306428  0.33247684  0.00589862  1
  Cu  Cu106  1  0.33287741  0.00252096  0.50452134  1
  Cu  Cu107  1  0.83961610  0.15886386  0.25482300  1
  Cu  Cu108  1  0.66841100  0.00062814  0.49788009  1
  Cu  Cu109  1  0.66591825  0.66461297  0.00157292  1
  Cu  Cu110  1  0.50205611  0.83386378  0.24746389  1
  Cu  Cu111  1  0.00321620  0.32968526  0.49571482  1
  Cu  Cu112  1  0.17025402  0.49919061  0.74881222  1
  Cu  Cu113  1  0.83554362  0.16332132  0.74655648  1
  Cu  Cu114  1  0.50745501  0.15838584  0.75150566  1
  Se  Se115  1  0.08024227  0.08212420  0.05645401  1
  Se  Se116  1  0.08192609  0.08505427  0.55054836  1
  Se  Se117  1  0.07940742  0.41796564  0.05666500  1
  Se  Se118  1  0.08456509  0.41698122  0.54695567  1
  Se  Se119  1  0.07707028  0.74984858  0.06873499  1
  Se  Se120  1  0.07231122  0.74970349  0.55091689  1
  Se  Se121  1  0.41862412  0.08216740  0.05457658  1
  Se  Se122  1  0.42041809  0.08671988  0.55328433  1
  Se  Se123  1  0.41365921  0.41965556  0.05901969  1
  Se  Se124  1  0.41620305  0.41817864  0.55048021  1
  Se  Se125  1  0.42064317  0.75395773  0.05023283  1
  Se  Se126  1  0.42136659  0.75730864  0.54669859  1
  Se  Se127  1  0.74477573  0.07569185  0.04971672  1
  Se  Se128  1  0.75027688  0.08424004  0.55249960  1
  Se  Se129  1  0.73570259  0.40369480  0.06577910  1
  Se  Se130  1  0.74571100  0.41238409  0.56370086  1
  Se  Se131  1  0.74773135  0.73963609  0.06363822  1
  Se  Se132  1  0.75158233  0.75308450  0.54531480  1
  Se  Se133  1  0.25104601  0.25611802  0.06373275  1
  Se  Se134  1  0.24882071  0.24660333  0.54816703  1
  Se  Se135  1  0.24909335  0.58723759  0.05289462  1
  Se  Se136  1  0.23188405  0.56797031  0.55001077  1
  Se  Se137  1  0.26271400  0.92406724  0.06405372  1
  Se  Se138  1  0.24625203  0.91899848  0.55471879  1
  Se  Se139  1  0.56691321  0.24272891  0.05527429  1
  Se  Se140  1  0.58550933  0.25230737  0.54983735  1
  Se  Se141  1  0.58112474  0.58280806  0.05381842  1
  Se  Se142  1  0.58115607  0.58184474  0.54570394  1
  Se  Se143  1  0.59196923  0.91391620  0.04491022  1
  Se  Se144  1  0.58321640  0.91786641  0.55035752  1
  Se  Se145  1  0.91230592  0.24478361  0.05210930  1
  Se  Se146  1  0.91636345  0.24951040  0.54811717  1
  Se  Se147  1  0.92037821  0.59113771  0.06304665  1
  Se  Se148  1  0.92018662  0.58516983  0.56000648  1
  Se  Se149  1  0.92687618  0.92185321  0.06202295  1
  Se  Se150  1  0.91135548  0.91701292  0.55121744  1
  Se  Se151  1  0.08732105  0.24706989  0.44177945  1
  Se  Se152  1  0.07505156  0.25803162  0.93765353  1
  Se  Se153  1  0.08010266  0.58049813  0.44939267  1
  Se  Se154  1  0.08428360  0.58882212  0.95171249  1
  Se  Se155  1  0.07823816  0.91638637  0.44604255  1
  Se  Se156  1  0.08329016  0.92263310  0.94241327  1
  Se  Se157  1  0.41914136  0.25042895  0.44665531  1
  Se  Se158  1  0.40892421  0.24953133  0.95048906  1
  Se  Se159  1  0.40014499  0.60199352  0.44645162  1
  Se  Se160  1  0.41808349  0.58190987  0.94492307  1
  Se  Se161  1  0.41847013  0.92106391  0.45178574  1
  Se  Se162  1  0.42435851  0.90869886  0.94394521  1
  Se  Se163  1  0.75662833  0.25330405  0.45721610  1
  Se  Se164  1  0.73236311  0.27023190  0.94773929  1
  Se  Se165  1  0.74479961  0.59368192  0.43297198  1
  Se  Se166  1  0.74955991  0.58742945  0.94204252  1
  Se  Se167  1  0.74986986  0.91729546  0.44277237  1
  Se  Se168  1  0.75029827  0.91775685  0.93426882  1
  Se  Se169  1  0.25163956  0.08432999  0.44701554  1
  Se  Se170  1  0.26212028  0.07072468  0.93986748  1
  Se  Se171  1  0.24899209  0.41556927  0.44320418  1
  Se  Se172  1  0.24554830  0.41894384  0.95040876  1
  Se  Se173  1  0.24427871  0.75192705  0.46164589  1
  Se  Se174  1  0.25881017  0.74640052  0.93821360  1
  Se  Se175  1  0.58271165  0.08649715  0.44905696  1
  Se  Se176  1  0.56647700  0.09786401  0.94292310  1
  Se  Se177  1  0.59610579  0.41285944  0.44547598  1
  Se  Se178  1  0.57252281  0.42804651  0.95811195  1
  Se  Se179  1  0.58027707  0.75730195  0.44424506  1
  Se  Se180  1  0.58508762  0.74506056  0.94354030  1
  Se  Se181  1  0.91445801  0.08847197  0.44492532  1
  Se  Se182  1  0.91438981  0.08642899  0.94326903  1
  Se  Se183  1  0.92307657  0.41452871  0.43721466  1
  Se  Se184  1  0.91905475  0.41222121  0.94073087  1
  Se  Se185  1  0.90899104  0.75060913  0.44160149  1
  Se  Se186  1  0.93352158  0.74274580  0.95039782  1
  Se  Se187  1  0.25243498  0.25257162  0.30223560  1
  Se  Se188  1  0.23598813  0.23944702  0.80296755  1
  Se  Se189  1  0.24015525  0.57754606  0.31775993  1
  Se  Se190  1  0.25754010  0.57760585  0.80204200  1
  Se  Se191  1  0.25240323  0.90806645  0.32103942  1
  Se  Se192  1  0.24492280  0.90617197  0.80616967  1
  Se  Se193  1  0.58155855  0.24891253  0.31390596  1
  Se  Se194  1  0.58060915  0.24009196  0.81470135  1
  Se  Se195  1  0.56939660  0.58798237  0.29924043  1
  Se  Se196  1  0.58054622  0.57187334  0.80957547  1
  Se  Se197  1  0.57694405  0.91698569  0.30931209  1
  Se  Se198  1  0.58486750  0.91477645  0.79846579  1
  Se  Se199  1  0.91915847  0.25000374  0.30329132  1
  Se  Se200  1  0.91771462  0.24918997  0.79933550  1
  Se  Se201  1  0.91882956  0.58235384  0.30108127  1
  Se  Se202  1  0.91300882  0.57882769  0.81468153  1
  Se  Se203  1  0.91543623  0.91440821  0.30190897  1
  Se  Se204  1  0.92187508  0.91966776  0.79909837  1
  Se  Se205  1  0.08282040  0.07976828  0.30461999  1
  Se  Se206  1  0.07710665  0.07814773  0.79587277  1
  Se  Se207  1  0.07958210  0.41203505  0.30239923  1
  Se  Se208  1  0.08517914  0.41732673  0.80157264  1
  Se  Se209  1  0.08326395  0.74445956  0.31232500  1
  Se  Se210  1  0.09461587  0.75588360  0.81320778  1
  Se  Se211  1  0.41924415  0.09052923  0.30786277  1
  Se  Se212  1  0.41937495  0.08261928  0.80878466  1
  Se  Se213  1  0.41856796  0.42123372  0.30489989  1
  Se  Se214  1  0.42849203  0.41353593  0.81543167  1
  Se  Se215  1  0.42008423  0.76214327  0.31066725  1
  Se  Se216  1  0.41870969  0.74297506  0.79532251  1
  Se  Se217  1  0.75137274  0.08952706  0.31553985  1
  Se  Se218  1  0.74861556  0.08900782  0.80514895  1
  Se  Se219  1  0.75603506  0.42244379  0.31561410  1
  Se  Se220  1  0.75888129  0.42021482  0.81128700  1
  Se  Se221  1  0.73474743  0.74358785  0.29624390  1
  Se  Se222  1  0.75846805  0.75719571  0.80234975  1
  Se  Se223  1  0.24229627  0.09329408  0.18907127  1
  Se  Se224  1  0.24403374  0.09180906  0.68482980  1
  Se  Se225  1  0.25065939  0.41542440  0.19995310  1
  Se  Se226  1  0.24635885  0.41767266  0.68552556  1
  Se  Se227  1  0.24081724  0.76042166  0.19780917  1
  Se  Se228  1  0.25143569  0.74281755  0.69088590  1
  Se  Se229  1  0.58195058  0.09547024  0.19237132  1
  Se  Se230  1  0.58974188  0.07832426  0.69622557  1
  Se  Se231  1  0.57328262  0.42732897  0.19562377  1
  Se  Se232  1  0.57772114  0.42023774  0.69217542  1
  Se  Se233  1  0.58354540  0.75066998  0.19379962  1
  Se  Se234  1  0.57759189  0.75261099  0.67954223  1
  Se  Se235  1  0.91784042  0.07727471  0.19626329  1
  Se  Se236  1  0.91835522  0.08124221  0.69149158  1
  Se  Se237  1  0.91724220  0.41171835  0.19718655  1
  Se  Se238  1  0.92492920  0.41287884  0.69927488  1
  Se  Se239  1  0.92118191  0.74537202  0.20868303  1
  Se  Se240  1  0.91224711  0.75325840  0.68943400  1
  Se  Se241  1  0.08047487  0.24798234  0.19768692  1
  Se  Se242  1  0.07559937  0.25508242  0.68886390  1
  Se  Se243  1  0.08376155  0.58285536  0.20058327  1
  Se  Se244  1  0.09165414  0.58054514  0.68736553  1
  Se  Se245  1  0.08490310  0.92034265  0.20694173  1
  Se  Se246  1  0.08120867  0.91507251  0.69731285  1
  Se  Se247  1  0.41467741  0.25730447  0.20062561  1
  Se  Se248  1  0.42877238  0.24390718  0.69444298  1
  Se  Se249  1  0.41498635  0.58380521  0.18906017  1
  Se  Se250  1  0.41615737  0.58117014  0.69075427  1
  Se  Se251  1  0.42737847  0.92061364  0.18794880  1
  Se  Se252  1  0.42179957  0.90762683  0.68340662  1
  Se  Se253  1  0.75452516  0.23711563  0.19450348  1
  Se  Se254  1  0.75642728  0.24410275  0.68577359  1
  Se  Se255  1  0.74903691  0.57902067  0.20135876  1
  Se  Se256  1  0.75993219  0.57422317  0.69315233  1
  Se  Se257  1  0.76203610  0.90437977  0.19179154  1
  Se  Se258  1  0.74528492  0.92161642  0.69282419  1
