# generated using pymatgen
data_In86Cu29Se144
_symmetry_space_group_name_H-M   'P 1'
_cell_length_a   17.60177183
_cell_length_b   17.59755854
_cell_length_c   23.45618126
_cell_angle_alpha   90.01108270
_cell_angle_beta   89.99687626
_cell_angle_gamma   90.01326394
_symmetry_Int_Tables_number   1
_chemical_formula_structural   In86Cu29Se144
_chemical_formula_sum   'In86 Cu29 Se144'
_cell_volume   7265.50982236
_cell_formula_units_Z   1
loop_
 _symmetry_equiv_pos_site_id
 _symmetry_equiv_pos_as_xyz
  1  'x, y, z'
loop_
 _atom_site_type_symbol
 _atom_site_label
 _atom_site_symmetry_multiplicity
 _atom_site_fract_x
 _atom_site_fract_y
 _atom_site_fract_z
 _atom_site_occupancy
  In  In0  1  -0.00166699  0.16874821  0.13391022  1
  In  In1  1  0.00056958  0.16663669  0.61149821  1
  In  In2  1  -0.00269008  0.49691010  0.13256805  1
  In  In3  1  -0.00608717  0.50833780  0.62235480  1
  In  In4  1  -0.00285289  0.84016017  0.12982997  1
  In  In5  1  -0.00746064  0.82412181  0.60997366  1
  In  In6  1  0.30814918  0.20808489  0.17465107  1
  In  In7  1  0.33264704  0.17573367  0.61559511  1
  In  In8  1  0.33686833  0.49737698  0.11949088  1
  In  In9  1  0.34083461  0.48668956  0.61998479  1
  In  In10  1  0.33527658  0.82714872  0.12805452  1
  In  In11  1  0.33228617  0.84429085  0.61522020  1
  In  In12  1  0.68176265  0.17393190  0.12328926  1
  In  In13  1  0.66584903  0.15506466  0.62742983  1
  In  In14  1  0.66865210  0.49982480  0.12389322  1
  In  In15  1  0.66670635  0.50391268  0.62280987  1
  In  In16  1  0.66250686  0.83293905  0.11710093  1
  In  In17  1  0.67447544  0.82554528  0.63471729  1
  In  In18  1  0.16031860  0.00450911  0.36203812  1
  In  In19  1  0.17485613  0.00735543  0.88044546  1
  In  In20  1  0.15343416  0.31457007  0.34993560  1
  In  In21  1  0.16551673  0.33777125  0.89055884  1
  In  In22  1  0.16552870  0.66825975  0.36813823  1
  In  In23  1  0.16130712  0.65794545  0.87945438  1
  In  In24  1  0.49680803  0.01311049  0.37002105  1
  In  In25  1  0.50041554  -0.01254233  0.88289538  1
  In  In26  1  0.50440887  0.33472765  0.36076451  1
  In  In27  1  0.49918257  0.34362234  0.88514500  1
  In  In28  1  0.49026432  0.66547114  0.37898109  1
  In  In29  1  0.52160377  0.65327452  0.88036163  1
  In  In30  1  0.84562695  -0.00899941  0.37960846  1
  In  In31  1  0.82677021  0.00814005  0.88120770  1
  In  In32  1  0.82847971  0.33220163  0.37450418  1
  In  In33  1  0.83442904  0.33148228  0.88714623  1
  In  In34  1  0.83988130  0.65630454  0.38390386  1
  In  In35  1  0.82732013  0.67446642  0.88444176  1
  In  In36  1  0.00250384  0.16626180  0.37080487  1
  In  In37  1  0.00143774  0.17009412  0.88825721  1
  In  In38  1  -0.02841658  0.48251261  0.35147755  1
  In  In39  1  0.00252015  0.49517268  0.88772758  1
  In  In40  1  0.00026671  0.83463716  0.36838737  1
  In  In41  1  -0.00359569  0.81722228  0.87952291  1
  In  In42  1  0.31730709  0.14717346  0.34279699  1
  In  In43  1  0.32716330  0.16459460  0.88836160  1
  In  In44  1  0.33388434  0.50023094  0.36786866  1
  In  In45  1  0.33284362  0.50040354  0.88487174  1
  In  In46  1  0.31912068  0.82098815  0.36729749  1
  In  In47  1  0.33588302  0.85222702  0.88081836  1
  In  In48  1  0.66194896  0.19208792  0.36876600  1
  In  In49  1  0.67856701  0.16649775  0.87938807  1
  In  In50  1  0.67644453  0.49021851  0.38463365  1
  In  In51  1  0.66264832  0.51436588  0.88074707  1
  In  In52  1  0.67285805  0.83101912  0.38409896  1
  In  In53  1  0.67046721  0.83127996  0.87581645  1
  In  In54  1  0.16069158  0.02440063  0.14516416  1
  In  In55  1  0.16733681  0.00012618  0.60983175  1
  In  In56  1  0.15798511  0.32626892  0.13567796  1
  In  In57  1  0.17869597  0.32760298  0.61694533  1
  In  In58  1  0.17914755  0.65429276  0.13229961  1
  In  In59  1  0.15345686  0.66558990  0.61982462  1
  In  In60  1  0.49491786  -0.00951006  0.12473631  1
  In  In61  1  0.50024781  0.01246680  0.62515881  1
  In  In62  1  0.47954184  0.35541323  0.13886062  1
  In  In63  1  0.49019399  0.34299034  0.61864372  1
  In  In64  1  0.49391477  0.66068536  0.11721519  1
  In  In65  1  0.51207827  0.66220788  0.62579489  1
  In  In66  1  0.84287024  0.00963348  0.11856793  1
  In  In67  1  0.82757119  -0.00930912  0.61726777  1
  In  In68  1  0.84066057  0.33662132  0.13422899  1
  In  In69  1  0.83692926  0.33652050  0.61363322  1
  In  In70  1  0.83495989  0.66600592  0.12542580  1
  In  In71  1  0.81388424  0.65410979  0.60418266  1
  In  In72  1  0.67142417  -0.00369726  0.25507491  1
  In  In73  1  0.33932065  0.00245526  0.74799390  1
  In  In74  1  -0.00578352  0.66364978  0.74460869  1
  In  In75  1  0.67311222  0.65876267  0.24838359  1
  In  In76  1  0.15936218  0.49718188  0.49006057  1
  In  In77  1  0.50149506  0.83334473  0.49891182  1
  In  In78  1  0.16343902  0.83752488  0.00273831  1
  In  In79  1  0.33945262  0.66931053  0.75646945  1
  In  In80  1  0.66647612  0.33695088  0.75107513  1
  In  In81  1  0.49255790  0.17284398  0.01464974  1
  In  In82  1  0.49532327  0.17702993  0.49251304  1
  In  In83  1  0.00255375  0.33105352  0.76193312  1
  In  In84  1  -0.00297075  -0.00382811  0.74700425  1
  In  In85  1  0.33376325  0.33512022  0.75757163  1
  Cu  Cu86  1  0.32192063  0.01032400  0.01054724  1
  Cu  Cu87  1  0.67108744  0.66772529  0.00220509  1
  Cu  Cu88  1  0.16622429  0.83143651  0.73994408  1
  Cu  Cu89  1  0.16561202  0.83310677  0.24599196  1
  Cu  Cu90  1  -0.00169659  0.33338695  0.48653845  1
  Cu  Cu91  1  0.83348985  0.50414490  0.74924228  1
  Cu  Cu92  1  0.82869115  0.83181193  0.75041158  1
  Cu  Cu93  1  -0.00077913  0.00426689  0.00850653  1
  Cu  Cu94  1  0.32492195  0.32302237  0.48455595  1
  Cu  Cu95  1  0.16931216  0.50926360  0.24590583  1
  Cu  Cu96  1  0.00040578  0.33109310  0.01218071  1
  Cu  Cu97  1  0.00866630  0.00592609  0.49218638  1
  Cu  Cu98  1  0.32417460  -0.00116014  0.48407870  1
  Cu  Cu99  1  0.50890220  0.82993622  0.75604958  1
  Cu  Cu100  1  0.67040184  0.00432428  0.50055397  1
  Cu  Cu101  1  0.50331082  0.16629258  0.75253886  1
  Cu  Cu102  1  0.82651526  0.15858894  0.75019467  1
  Cu  Cu103  1  0.00326091  0.66832974  0.48997202  1
  Cu  Cu104  1  0.33728456  0.66999314  0.00405774  1
  Cu  Cu105  1  0.32852528  0.66209701  0.49236663  1
  Cu  Cu106  1  0.83784785  0.83604205  0.24932561  1
  Cu  Cu107  1  0.16448021  0.16654720  0.74761798  1
  Cu  Cu108  1  0.50066425  0.50722925  0.24656243  1
  Cu  Cu109  1  0.83398888  0.16809927  0.25167306  1
  Cu  Cu110  1  0.49743490  0.82568260  0.25198427  1
  Cu  Cu111  1  0.67334857  0.33401325  0.00588643  1
  Cu  Cu112  1  0.00081154  0.66028550  0.00721999  1
  Cu  Cu113  1  0.66746875  0.33763921  0.49641469  1
  Cu  Cu114  1  0.66517734  -0.00201898  0.00321581  1
  Se  Se115  1  0.08254541  0.08534524  0.06262519  1
  Se  Se116  1  0.09100196  0.09068464  0.54536049  1
  Se  Se117  1  0.08353397  0.41455864  0.06381907  1
  Se  Se118  1  0.07336814  0.40761287  0.55803297  1
  Se  Se119  1  0.08256238  0.74313237  0.06488829  1
  Se  Se120  1  0.08674413  0.74965161  0.54499499  1
  Se  Se121  1  0.40226416  0.08558182  0.07220948  1
  Se  Se122  1  0.40589779  0.07422683  0.54855809  1
  Se  Se123  1  0.43036567  0.42594652  0.05155651  1
  Se  Se124  1  0.40577682  0.40526373  0.54127090  1
  Se  Se125  1  0.41926998  0.75751156  0.05266301  1
  Se  Se126  1  0.40858967  0.74020095  0.55665651  1
  Se  Se127  1  0.75026123  0.08398425  0.05183146  1
  Se  Se128  1  0.75274161  0.08897223  0.55391951  1
  Se  Se129  1  0.75756997  0.41521279  0.06079391  1
  Se  Se130  1  0.74853195  0.42043596  0.55310043  1
  Se  Se131  1  0.75337200  0.75052460  0.05620046  1
  Se  Se132  1  0.75565455  0.76944717  0.55384872  1
  Se  Se133  1  0.25673266  0.24721098  0.07680668  1
  Se  Se134  1  0.24523426  0.24188220  0.54234509  1
  Se  Se135  1  0.25195616  0.58437986  0.05221096  1
  Se  Se136  1  0.25110578  0.58153745  0.55728528  1
  Se  Se137  1  0.24426803  0.92490325  0.06920054  1
  Se  Se138  1  0.24781885  0.91421316  0.54259173  1
  Se  Se139  1  0.58684749  0.26493286  0.06720110  1
  Se  Se140  1  0.58948554  0.25695897  0.56044439  1
  Se  Se141  1  0.58751660  0.58278463  0.05429275  1
  Se  Se142  1  0.57014523  0.56932032  0.55475235  1
  Se  Se143  1  0.57767823  0.91491949  0.05055817  1
  Se  Se144  1  0.58765471  0.92607284  0.56030099  1
  Se  Se145  1  0.91503315  0.24700792  0.06236108  1
  Se  Se146  1  0.91752134  0.25187274  0.54651787  1
  Se  Se147  1  0.91657448  0.57751236  0.05917920  1
  Se  Se148  1  0.92134553  0.58552765  0.54726674  1
  Se  Se149  1  0.91687887  0.91326343  0.05375188  1
  Se  Se150  1  0.92509538  0.92621412  0.54992075  1
  Se  Se151  1  0.08803581  0.25308515  0.43805907  1
  Se  Se152  1  0.08470756  0.24979826  0.95563594  1
  Se  Se153  1  0.06906957  0.57917320  0.42740001  1
  Se  Se154  1  0.08693013  0.58024468  0.95360904  1
  Se  Se155  1  0.08506213  0.92069289  0.43552349  1
  Se  Se156  1  0.07148867  0.92594500  0.93920352  1
  Se  Se157  1  0.40460635  0.24632050  0.42262830  1
  Se  Se158  1  0.40556749  0.26249962  0.94907068  1
  Se  Se159  1  0.41198728  0.57566325  0.44532880  1
  Se  Se160  1  0.41936437  0.59018254  0.94524742  1
  Se  Se161  1  0.41275172  0.91873179  0.43336860  1
  Se  Se162  1  0.40799937  0.92818320  0.95760919  1
  Se  Se163  1  0.74832982  0.24847870  0.44692656  1
  Se  Se164  1  0.75270827  0.24559947  0.95371825  1
  Se  Se165  1  0.74554272  0.58669141  0.44886124  1
  Se  Se166  1  0.75581617  0.58073646  0.95143209  1
  Se  Se167  1  0.75256880  0.91942741  0.44823543  1
  Se  Se168  1  0.74957587  0.91705651  0.94654943  1
  Se  Se169  1  0.24938231  0.08732405  0.43017158  1
  Se  Se170  1  0.23792300  0.09090702  0.95729898  1
  Se  Se171  1  0.24336575  0.40590240  0.42850781  1
  Se  Se172  1  0.25174825  0.41978239  0.95264197  1
  Se  Se173  1  0.24316208  0.74671023  0.44463394  1
  Se  Se174  1  0.25612267  0.74794620  0.94042015  1
  Se  Se175  1  0.59252484  0.08371572  0.43976817  1
  Se  Se176  1  0.58232349  0.08528524  0.94623803  1
  Se  Se177  1  0.57579135  0.40898424  0.44127556  1
  Se  Se178  1  0.59410099  0.41663421  0.94781545  1
  Se  Se179  1  0.59079049  0.73624259  0.44699737  1
  Se  Se180  1  0.58705834  0.75085058  0.94713279  1
  Se  Se181  1  0.92015103  0.08754385  0.44271532  1
  Se  Se182  1  0.91595091  0.08329115  0.94965793  1
  Se  Se183  1  0.91255115  0.42045544  0.44128491  1
  Se  Se184  1  0.91876752  0.41280746  0.95392110  1
  Se  Se185  1  0.91853898  0.75579875  0.44181282  1
  Se  Se186  1  0.91848162  0.74687683  0.95508983  1
  Se  Se187  1  0.27194569  0.26956038  0.29189515  1
  Se  Se188  1  0.24069929  0.24161148  0.81262873  1
  Se  Se189  1  0.25328414  0.58788222  0.30166868  1
  Se  Se190  1  0.24486416  0.57656530  0.80829053  1
  Se  Se191  1  0.24911853  0.91548966  0.30043343  1
  Se  Se192  1  0.23957134  0.91278141  0.80313028  1
  Se  Se193  1  0.56411130  0.23193972  0.29363239  1
  Se  Se194  1  0.57706660  0.24758047  0.81511234  1
  Se  Se195  1  0.57980905  0.57912776  0.31253882  1
  Se  Se196  1  0.59028217  0.58212709  0.80019895  1
  Se  Se197  1  0.57709099  0.90390435  0.31363685  1
  Se  Se198  1  0.58500056  0.91904742  0.80917518  1
  Se  Se199  1  0.91557826  0.25191015  0.30646991  1
  Se  Se200  1  0.90583137  0.23572413  0.81184891  1
  Se  Se201  1  0.91586346  0.59986202  0.30050785  1
  Se  Se202  1  0.91391668  0.57700178  0.81442988  1
  Se  Se203  1  0.92056564  0.92317455  0.29923718  1
  Se  Se204  1  0.91257317  0.90623552  0.81087324  1
  Se  Se205  1  0.09472627  0.10553613  0.29490631  1
  Se  Se206  1  0.08624623  0.08792879  0.80863997  1
  Se  Se207  1  0.08466781  0.42324275  0.29560582  1
  Se  Se208  1  0.09506022  0.42510670  0.81222698  1
  Se  Se209  1  0.08203544  0.75051192  0.29988777  1
  Se  Se210  1  0.09137445  0.75383209  0.80402315  1
  Se  Se211  1  0.42330856  0.07425836  0.28883323  1
  Se  Se212  1  0.42088523  0.09216686  0.81497142  1
  Se  Se213  1  0.41708079  0.42076763  0.29764325  1
  Se  Se214  1  0.42620040  0.42923217  0.80941762  1
  Se  Se215  1  0.41415948  0.74284378  0.30456323  1
  Se  Se216  1  0.42181863  0.76301244  0.81795966  1
  Se  Se217  1  0.75467106  0.09009077  0.31597615  1
  Se  Se218  1  0.74441410  0.07863884  0.80469682  1
  Se  Se219  1  0.73796998  0.40735471  0.30725444  1
  Se  Se220  1  0.76019841  0.42108275  0.81224336  1
  Se  Se221  1  0.75374844  0.75849368  0.30685844  1
  Se  Se222  1  0.75127845  0.74522059  0.80596903  1
  Se  Se223  1  0.27493684  0.06984992  0.20543527  1
  Se  Se224  1  0.24589212  0.09017358  0.68731434  1
  Se  Se225  1  0.24791468  0.42363301  0.19038595  1
  Se  Se226  1  0.24302346  0.41937889  0.69205750  1
  Se  Se227  1  0.25291261  0.74768288  0.19839031  1
  Se  Se228  1  0.24993415  0.75242718  0.68460253  1
  Se  Se229  1  0.59353023  0.07721244  0.18299073  1
  Se  Se230  1  0.58338021  0.08068304  0.70055508  1
  Se  Se231  1  0.58659576  0.42329019  0.19683818  1
  Se  Se232  1  0.57195313  0.42077922  0.69206086  1
  Se  Se233  1  0.58022594  0.75072617  0.19119101  1
  Se  Se234  1  0.58501937  0.74515118  0.69926006  1
  Se  Se235  1  0.91355942  0.08017003  0.19974303  1
  Se  Se236  1  0.91253356  0.09048557  0.68766968  1
  Se  Se237  1  0.93471808  0.40259436  0.20429847  1
  Se  Se238  1  0.91334644  0.41888482  0.69444024  1
  Se  Se239  1  0.91637704  0.75007254  0.19470861  1
  Se  Se240  1  0.90580892  0.75391106  0.68620538  1
  Se  Se241  1  0.09411076  0.22802921  0.20747475  1
  Se  Se242  1  0.08581540  0.24686823  0.68852103  1
  Se  Se243  1  0.07846481  0.58990320  0.19726507  1
  Se  Se244  1  0.09266228  0.56976209  0.69424675  1
  Se  Se245  1  0.08119463  0.92074796  0.19862843  1
  Se  Se246  1  0.08642283  0.91038501  0.68200104  1
  Se  Se247  1  0.44896710  0.23712709  0.20087548  1
  Se  Se248  1  0.42272816  0.24307942  0.69269698  1
  Se  Se249  1  0.41454542  0.58565408  0.19161793  1
  Se  Se250  1  0.41741424  0.57624370  0.69082618  1
  Se  Se251  1  0.41787486  0.90956568  0.19782740  1
  Se  Se252  1  0.42939949  0.90573507  0.69124755  1
  Se  Se253  1  0.75120910  0.25321676  0.20056115  1
  Se  Se254  1  0.75798154  0.24809519  0.68964452  1
  Se  Se255  1  0.76656941  0.56754404  0.19652897  1
  Se  Se256  1  0.75418289  0.58365955  0.69085466  1
  Se  Se257  1  0.75541244  0.91139082  0.18731549  1
  Se  Se258  1  0.75134882  0.92196587  0.69728429  1
