# generated using pymatgen
data_In86Cu29Se144
_symmetry_space_group_name_H-M   'P 1'
_cell_length_a   17.55673125
_cell_length_b   17.55216130
_cell_length_c   23.40796958
_cell_angle_alpha   89.96973984
_cell_angle_beta   89.98056423
_cell_angle_gamma   90.01597112
_symmetry_Int_Tables_number   1
_chemical_formula_structural   In86Cu29Se144
_chemical_formula_sum   'In86 Cu29 Se144'
_cell_volume   7213.36494039
_cell_formula_units_Z   1
loop_
 _symmetry_equiv_pos_site_id
 _symmetry_equiv_pos_as_xyz
  1  'x, y, z'
loop_
 _atom_site_type_symbol
 _atom_site_label
 _atom_site_symmetry_multiplicity
 _atom_site_fract_x
 _atom_site_fract_y
 _atom_site_fract_z
 _atom_site_occupancy
  In  In0  1  -0.00063614  0.17266225  0.11964811  1
  In  In1  1  0.00394211  0.17575933  0.62300913  1
  In  In2  1  -0.00417022  0.51183735  0.11956887  1
  In  In3  1  -0.00836453  0.50571618  0.63203885  1
  In  In4  1  -0.01932446  0.84572262  0.12236054  1
  In  In5  1  -0.00305973  0.83124701  0.62286845  1
  In  In6  1  0.34401315  0.16549030  0.13055643  1
  In  In7  1  0.33863827  0.16904415  0.61470559  1
  In  In8  1  0.34416969  0.48061806  0.12966007  1
  In  In9  1  0.35170194  0.49221803  0.63899826  1
  In  In10  1  0.34757007  0.83927812  0.12444516  1
  In  In11  1  0.31837058  0.83625623  0.62596632  1
  In  In12  1  0.66549053  0.17159315  0.12672206  1
  In  In13  1  0.66910894  0.16220553  0.62892540  1
  In  In14  1  0.65137641  0.48120864  0.10212172  1
  In  In15  1  0.66931763  0.48083278  0.64144104  1
  In  In16  1  0.67524336  0.83162867  0.12244320  1
  In  In17  1  0.67497994  0.82728557  0.63222230  1
  In  In18  1  0.17904935  -0.00465101  0.39074976  1
  In  In19  1  0.16352958  0.00276953  0.87026397  1
  In  In20  1  0.17928727  0.31574968  0.38649747  1
  In  In21  1  0.18108804  0.33751431  0.85706597  1
  In  In22  1  0.17756474  0.67386124  0.38674299  1
  In  In23  1  0.15703252  0.67286189  0.85632324  1
  In  In24  1  0.51790697  0.01420287  0.36980943  1
  In  In25  1  0.51349262  0.00366600  0.87192720  1
  In  In26  1  0.48720432  0.32501384  0.36479569  1
  In  In27  1  0.50509865  0.33057828  0.86664101  1
  In  In28  1  0.50817024  0.65644740  0.37955304  1
  In  In29  1  0.48931679  0.64879398  0.85713749  1
  In  In30  1  0.82319266  0.00665238  0.38544639  1
  In  In31  1  0.82289652  0.01803251  0.88864827  1
  In  In32  1  0.82780179  0.33646533  0.38658614  1
  In  In33  1  0.82824082  0.33613221  0.87062862  1
  In  In34  1  0.83699268  0.66233651  0.38539347  1
  In  In35  1  0.83269672  0.66415227  0.86756196  1
  In  In36  1  0.00245669  0.16073832  0.38647836  1
  In  In37  1  -0.01477038  0.16247695  0.86985838  1
  In  In38  1  -0.01145245  0.48188804  0.37805777  1
  In  In39  1  -0.00556673  0.49252985  0.86438700  1
  In  In40  1  0.00058737  0.83744120  0.38817743  1
  In  In41  1  -0.00073742  0.82405181  0.86538448  1
  In  In42  1  0.34004806  0.16570018  0.38067971  1
  In  In43  1  0.34217025  0.18823996  0.86171795  1
  In  In44  1  0.34984314  0.48417091  0.38065813  1
  In  In45  1  0.34639299  0.49664481  0.86341172  1
  In  In46  1  0.31786549  0.83592202  0.38548573  1
  In  In47  1  0.33399940  0.83294664  0.87058533  1
  In  In48  1  0.66656037  0.16824750  0.38005580  1
  In  In49  1  0.65993446  0.17263767  0.86881385  1
  In  In50  1  0.67253721  0.49905067  0.37481175  1
  In  In51  1  0.66395696  0.49925023  0.86593500  1
  In  In52  1  0.66067224  0.84673499  0.38098981  1
  In  In53  1  0.67898708  0.84134800  0.86504593  1
  In  In54  1  0.17459935  0.01376518  0.12750951  1
  In  In55  1  0.17452986  -0.00049407  0.60859302  1
  In  In56  1  0.17642969  0.33897204  0.12525139  1
  In  In57  1  0.17857543  0.31072292  0.64373853  1
  In  In58  1  0.16672289  0.66698826  0.12009539  1
  In  In59  1  0.16231626  0.68179280  0.64076820  1
  In  In60  1  0.48984650  0.01273137  0.13422595  1
  In  In61  1  0.49743542  0.03297443  0.62702047  1
  In  In62  1  0.50772472  0.33513733  0.12255623  1
  In  In63  1  0.52864614  0.29967989  0.66797886  1
  In  In64  1  0.51403273  0.66870649  0.11627319  1
  In  In65  1  0.50530570  0.64984919  0.64613846  1
  In  In66  1  0.82591619  -0.01298323  0.11483651  1
  In  In67  1  0.82422790  -0.00481134  0.62111511  1
  In  In68  1  0.81814687  0.31876487  0.11145280  1
  In  In69  1  0.82888396  0.33492777  0.62635927  1
  In  In70  1  0.82100708  0.66343757  0.10754130  1
  In  In71  1  0.83563071  0.66632181  0.62716174  1
  In  In72  1  0.49559003  0.83989657  0.50871802  1
  In  In73  1  0.34192184  0.66945341  0.25023109  1
  In  In74  1  0.51293249  0.83223249  -0.00824048  1
  In  In75  1  0.15597696  0.50953686  0.51413480  1
  In  In76  1  0.50387638  0.49171177  0.50647686  1
  In  In77  1  -0.00136241  0.00132431  0.74236483  1
  In  In78  1  0.15924033  0.16526694  -0.00463191  1
  In  In79  1  0.66800075  0.66351357  0.25019771  1
  In  In80  1  -0.00207952  0.00568839  0.24942082  1
  In  In81  1  0.16306278  0.49626692  -0.00517129  1
  In  In82  1  0.33394699  -0.00163364  0.74551153  1
  In  In83  1  0.15914956  0.83180229  -0.01132835  1
  In  In84  1  -0.00065296  0.32935269  0.24818817  1
  In  In85  1  0.00046366  0.66636722  0.24409206  1
  Cu  Cu86  1  -0.00195865  0.66871626  0.50941839  1
  Cu  Cu87  1  0.16341015  0.50189790  0.74571344  1
  Cu  Cu88  1  0.49389986  0.84525474  0.25439845  1
  Cu  Cu89  1  0.18431546  0.16605574  0.25774685  1
  Cu  Cu90  1  0.33499805  0.33021637  0.50782866  1
  Cu  Cu91  1  -0.00833164  0.33899520  0.50786441  1
  Cu  Cu92  1  0.83289065  0.50068156  0.74993563  1
  Cu  Cu93  1  0.66193268  0.01089866  0.00045930  1
  Cu  Cu94  1  0.34938278  0.32867008  -0.00356383  1
  Cu  Cu95  1  0.66667479  0.00332372  0.50312417  1
  Cu  Cu96  1  0.16865711  0.84236412  0.25749137  1
  Cu  Cu97  1  0.50536981  0.17285647  0.25092517  1
  Cu  Cu98  1  0.66026144  0.32711582  0.51045355  1
  Cu  Cu99  1  0.82710348  0.49147657  0.24490763  1
  Cu  Cu100  1  0.50361445  0.83537761  0.74921911  1
  Cu  Cu101  1  -0.01305391  0.66670448  -0.00890139  1
  Cu  Cu102  1  0.67517239  0.66398852  0.50794191  1
  Cu  Cu103  1  -0.00588515  0.00016670  0.50614237  1
  Cu  Cu104  1  0.32866522  0.67025966  0.51445375  1
  Cu  Cu105  1  0.83844586  0.83577165  0.74854912  1
  Cu  Cu106  1  0.66760764  0.33173446  -0.00999601  1
  Cu  Cu107  1  0.82409083  0.17144953  0.75228263  1
  Cu  Cu108  1  0.66753370  0.66319200  -0.01430687  1
  Cu  Cu109  1  0.18278076  0.48859974  0.25626326  1
  Cu  Cu110  1  0.34033952  0.65110780  -0.01056016  1
  Cu  Cu111  1  0.82614154  0.16552948  0.25257980  1
  Cu  Cu112  1  0.82554897  0.84158064  0.25145818  1
  Cu  Cu113  1  0.33264370  0.00779791  0.00150787  1
  Cu  Cu114  1  -0.00763816  0.33066573  -0.01215286  1
  Se  Se115  1  0.07381429  0.06866014  0.05616037  1
  Se  Se116  1  0.07906156  0.08621099  0.55395511  1
  Se  Se117  1  0.07177975  0.40429435  0.05631136  1
  Se  Se118  1  0.07961698  0.40783990  0.57133487  1
  Se  Se119  1  0.06861723  0.74332942  0.05541978  1
  Se  Se120  1  0.08812124  0.74864311  0.55827956  1
  Se  Se121  1  0.41910262  0.08754474  0.05427130  1
  Se  Se122  1  0.40652208  0.07259786  0.54773396  1
  Se  Se123  1  0.42434788  0.41854043  0.05059245  1
  Se  Se124  1  0.42196932  0.39958249  0.56836446  1
  Se  Se125  1  0.41131677  0.74327806  0.04898228  1
  Se  Se126  1  0.42172556  0.73869870  0.57139483  1
  Se  Se127  1  0.74878993  0.08715762  0.05740952  1
  Se  Se128  1  0.75171550  0.08888534  0.55362532  1
  Se  Se129  1  0.75558753  0.41553741  0.04160860  1
  Se  Se130  1  0.74277724  0.41769990  0.55733818  1
  Se  Se131  1  0.74144741  0.75292698  0.04237329  1
  Se  Se132  1  0.75573199  0.75313763  0.55710616  1
  Se  Se133  1  0.25739515  0.25359142  0.05371444  1
  Se  Se134  1  0.24090394  0.25049600  0.55418333  1
  Se  Se135  1  0.25879078  0.58196681  0.05724141  1
  Se  Se136  1  0.25663928  0.58419103  0.57477928  1
  Se  Se137  1  0.25292567  0.91894960  0.05490812  1
  Se  Se138  1  0.26680586  0.92058724  0.54538329  1
  Se  Se139  1  0.58841661  0.25215070  0.05213699  1
  Se  Se140  1  0.57670961  0.25002559  0.56878330  1
  Se  Se141  1  0.58164092  0.58510316  0.04206038  1
  Se  Se142  1  0.59143017  0.58509459  0.56555802  1
  Se  Se143  1  0.58339272  0.92653424  0.06202466  1
  Se  Se144  1  0.58941548  0.92520581  0.56776055  1
  Se  Se145  1  0.91674742  0.24663035  0.04766176  1
  Se  Se146  1  0.90923386  0.24940352  0.55698801  1
  Se  Se147  1  0.90978445  0.57803628  0.04506331  1
  Se  Se148  1  0.91391573  0.58081840  0.55561394  1
  Se  Se149  1  0.90779884  0.91094844  0.04310446  1
  Se  Se150  1  0.91186965  0.91297706  0.55554734  1
  Se  Se151  1  0.07458711  0.25826714  0.45049178  1
  Se  Se152  1  0.08274632  0.26044970  0.93009124  1
  Se  Se153  1  0.07017596  0.58910714  0.43956119  1
  Se  Se154  1  0.07815576  0.59231445  0.93535582  1
  Se  Se155  1  0.08507001  0.91846443  0.45498478  1
  Se  Se156  1  0.06871577  0.92685360  0.93654010  1
  Se  Se157  1  0.42107097  0.25531937  0.44843156  1
  Se  Se158  1  0.42781929  0.24433222  0.94131736  1
  Se  Se159  1  0.40785340  0.59014732  0.45161173  1
  Se  Se160  1  0.42586748  0.57073909  0.93950764  1
  Se  Se161  1  0.42287404  0.92230800  0.43361177  1
  Se  Se162  1  0.41104158  0.92494958  0.94100645  1
  Se  Se163  1  0.74709547  0.24931108  0.45229403  1
  Se  Se164  1  0.75103192  0.24629378  0.93837474  1
  Se  Se165  1  0.74874878  0.57869814  0.44880842  1
  Se  Se166  1  0.75221724  0.57788465  0.93608891  1
  Se  Se167  1  0.74910559  0.91372218  0.45342004  1
  Se  Se168  1  0.73987871  0.92130756  0.94677196  1
  Se  Se169  1  0.23164463  0.11061738  0.44416377  1
  Se  Se170  1  0.25809284  0.08374935  0.93464080  1
  Se  Se171  1  0.25362297  0.41903792  0.45362455  1
  Se  Se172  1  0.25874853  0.40637786  0.94123538  1
  Se  Se173  1  0.24693216  0.75512306  0.46243648  1
  Se  Se174  1  0.25436933  0.73529759  0.93715682  1
  Se  Se175  1  0.58216689  0.08844362  0.45215088  1
  Se  Se176  1  0.58037406  0.09174387  0.94440235  1
  Se  Se177  1  0.58855492  0.40525868  0.44013884  1
  Se  Se178  1  0.58391663  0.41543583  0.93722220  1
  Se  Se179  1  0.58859268  0.74274571  0.44961528  1
  Se  Se180  1  0.58640706  0.74077832  0.92401301  1
  Se  Se181  1  0.91137921  0.08489057  0.45222447  1
  Se  Se182  1  0.92387100  0.08610361  0.95041688  1
  Se  Se183  1  0.90663468  0.42275782  0.45716798  1
  Se  Se184  1  0.91253713  0.42134862  0.93948906  1
  Se  Se185  1  0.91556664  0.75090937  0.45167484  1
  Se  Se186  1  0.91045711  0.75420732  0.93697911  1
  Se  Se187  1  0.26272459  0.25551510  0.30828224  1
  Se  Se188  1  0.23829648  0.23325959  0.79293716  1
  Se  Se189  1  0.25188136  0.57989362  0.31515612  1
  Se  Se190  1  0.24708544  0.57794165  0.80594311  1
  Se  Se191  1  0.25256687  0.92302503  0.31005127  1
  Se  Se192  1  0.23806883  0.90780548  0.80314971  1
  Se  Se193  1  0.59037363  0.25238491  0.30687797  1
  Se  Se194  1  0.58631703  0.25334117  0.79238590  1
  Se  Se195  1  0.57363552  0.56931903  0.30344098  1
  Se  Se196  1  0.59094384  0.58641485  0.79416078  1
  Se  Se197  1  0.59014997  0.92005002  0.30193830  1
  Se  Se198  1  0.58691694  0.92007728  0.80029564  1
  Se  Se199  1  0.91290050  0.24146643  0.31277944  1
  Se  Se200  1  0.91305685  0.25294801  0.80180148  1
  Se  Se201  1  0.90935667  0.57295856  0.30515668  1
  Se  Se202  1  0.92024762  0.58615273  0.79839919  1
  Se  Se203  1  0.91262959  0.91289437  0.31253889  1
  Se  Se204  1  0.90751075  0.92403602  0.81133573  1
  Se  Se205  1  0.09218846  0.08856205  0.31101288  1
  Se  Se206  1  0.08784307  0.09353716  0.80220063  1
  Se  Se207  1  0.09279119  0.41431687  0.31308114  1
  Se  Se208  1  0.08215773  0.41382771  0.79778598  1
  Se  Se209  1  0.08862683  0.75501565  0.31211843  1
  Se  Se210  1  0.08555462  0.76425337  0.78962162  1
  Se  Se211  1  0.42237247  0.08985141  0.30664247  1
  Se  Se212  1  0.42627575  0.08758203  0.80352303  1
  Se  Se213  1  0.42193908  0.42382214  0.29854127  1
  Se  Se214  1  0.39145542  0.38198632  0.80489655  1
  Se  Se215  1  0.42581888  0.75806512  0.31895770  1
  Se  Se216  1  0.41605101  0.75523903  0.80095877  1
  Se  Se217  1  0.74708995  0.08150348  0.30910087  1
  Se  Se218  1  0.74785542  0.08246278  0.80670072  1
  Se  Se219  1  0.75344376  0.41192527  0.30780435  1
  Se  Se220  1  0.74684253  0.41415085  0.79756477  1
  Se  Se221  1  0.75449779  0.75415207  0.31409899  1
  Se  Se222  1  0.75235915  0.74951291  0.79800035  1
  Se  Se223  1  0.26113349  0.08125899  0.19984080  1
  Se  Se224  1  0.24365295  0.08528179  0.68510614  1
  Se  Se225  1  0.26096857  0.40395692  0.20160955  1
  Se  Se226  1  0.24984607  0.41712252  0.69794414  1
  Se  Se227  1  0.24430550  0.75996435  0.19152443  1
  Se  Se228  1  0.26891921  0.74258840  0.70157769  1
  Se  Se229  1  0.58622992  0.08610466  0.19740351  1
  Se  Se230  1  0.59304063  0.07717822  0.70139929  1
  Se  Se231  1  0.59231035  0.41990074  0.18941748  1
  Se  Se232  1  0.54913973  0.44001863  0.69671559  1
  Se  Se233  1  0.57420102  0.76167258  0.19468991  1
  Se  Se234  1  0.58854040  0.74861514  0.70069977  1
  Se  Se235  1  0.90724445  0.09190189  0.18789151  1
  Se  Se236  1  0.90310629  0.09291873  0.68884825  1
  Se  Se237  1  0.91292538  0.41802647  0.18382951  1
  Se  Se238  1  0.91443207  0.41363173  0.69712814  1
  Se  Se239  1  0.89870012  0.75281068  0.19067963  1
  Se  Se240  1  0.91962573  0.75046019  0.69595820  1
  Se  Se241  1  0.09871030  0.23772747  0.19281253  1
  Se  Se242  1  0.06814517  0.25393240  0.70254516  1
  Se  Se243  1  0.10053258  0.56874464  0.19440389  1
  Se  Se244  1  0.07734303  0.58845062  0.69906813  1
  Se  Se245  1  0.08771498  0.91099999  0.18917251  1
  Se  Se246  1  0.09388080  0.91640136  0.68419147  1
  Se  Se247  1  0.42311814  0.25519663  0.19434937  1
  Se  Se248  1  0.39770029  0.24571801  0.69831203  1
  Se  Se249  1  0.42958112  0.58340261  0.18706829  1
  Se  Se250  1  0.40856152  0.58586060  0.71273244  1
  Se  Se251  1  0.40752922  0.92448313  0.20156698  1
  Se  Se252  1  0.42835055  0.91365200  0.68372775  1
  Se  Se253  1  0.75080221  0.25482705  0.19682960  1
  Se  Se254  1  0.74380537  0.25620616  0.69697472  1
  Se  Se255  1  0.75286513  0.57716043  0.18449090  1
  Se  Se256  1  0.74989286  0.58332682  0.69499214  1
  Se  Se257  1  0.74454983  0.92137528  0.19447001  1
  Se  Se258  1  0.75124563  0.91971902  0.69921987  1
