# generated using pymatgen
data_In86Cu29Se144
_symmetry_space_group_name_H-M   'P 1'
_cell_length_a   17.59040035
_cell_length_b   17.59368983
_cell_length_c   23.44948997
_cell_angle_alpha   90.00883148
_cell_angle_beta   89.99543522
_cell_angle_gamma   90.00629541
_symmetry_Int_Tables_number   1
_chemical_formula_structural   In86Cu29Se144
_chemical_formula_sum   'In86 Cu29 Se144'
_cell_volume   7257.14912325
_cell_formula_units_Z   1
loop_
 _symmetry_equiv_pos_site_id
 _symmetry_equiv_pos_as_xyz
  1  'x, y, z'
loop_
 _atom_site_type_symbol
 _atom_site_label
 _atom_site_symmetry_multiplicity
 _atom_site_fract_x
 _atom_site_fract_y
 _atom_site_fract_z
 _atom_site_occupancy
  In  In0  1  -0.00111342  0.18006328  0.11950113  1
  In  In1  1  0.00382809  0.15293647  0.64201486  1
  In  In2  1  0.01007940  0.49039857  0.12042591  1
  In  In3  1  -0.01572134  0.49839110  0.62395125  1
  In  In4  1  0.00340579  0.83791305  0.11661556  1
  In  In5  1  0.01194668  0.84481017  0.61693819  1
  In  In6  1  0.32420839  0.15750144  0.12912928  1
  In  In7  1  0.32807421  0.16894497  0.61812157  1
  In  In8  1  0.33999486  0.51193654  0.11977074  1
  In  In9  1  0.34590258  0.48867952  0.62898959  1
  In  In10  1  0.33821525  0.83261293  0.12536701  1
  In  In11  1  0.32879761  0.83937125  0.62273874  1
  In  In12  1  0.65950747  0.14888635  0.12552019  1
  In  In13  1  0.65937979  0.17968278  0.62457070  1
  In  In14  1  0.67690908  0.51471114  0.12972274  1
  In  In15  1  0.66743943  0.50497277  0.62320011  1
  In  In16  1  0.66223765  0.83348012  0.12477511  1
  In  In17  1  0.65216684  0.82601342  0.61708727  1
  In  In18  1  0.20769568  -0.02151849  0.41146472  1
  In  In19  1  0.16551021  -0.00007012  0.87036619  1
  In  In20  1  0.17709045  0.31109869  0.39052999  1
  In  In21  1  0.17431084  0.33666777  0.86709714  1
  In  In22  1  0.18546374  0.66203788  0.37419927  1
  In  In23  1  0.17456948  0.65976092  0.87728123  1
  In  In24  1  0.49998937  -0.00848099  0.37977289  1
  In  In25  1  0.48398045  -0.00542217  0.86947853  1
  In  In26  1  0.49001598  0.33124556  0.39344094  1
  In  In27  1  0.49293753  0.33343382  0.86954523  1
  In  In28  1  0.50326190  0.67179380  0.37629631  1
  In  In29  1  0.50504964  0.67185000  0.86556764  1
  In  In30  1  0.81716006  0.00120879  0.37272031  1
  In  In31  1  0.83587856  -0.00687465  0.87365477  1
  In  In32  1  0.85496532  0.33556582  0.38467183  1
  In  In33  1  0.83698939  0.31795777  0.87644464  1
  In  In34  1  0.82275036  0.67716093  0.38127080  1
  In  In35  1  0.83544541  0.67895422  0.87370534  1
  In  In36  1  0.01600768  0.16657839  0.38028082  1
  In  In37  1  -0.00998190  0.15884057  0.85809948  1
  In  In38  1  0.00211235  0.47909698  0.38543231  1
  In  In39  1  0.01890913  0.49701189  0.87358457  1
  In  In40  1  0.00102541  0.83432953  0.38195162  1
  In  In41  1  -0.00250524  0.84494042  0.88158475  1
  In  In42  1  0.36673069  0.12771492  0.43095505  1
  In  In43  1  0.33766104  0.16225640  0.86110801  1
  In  In44  1  0.33624890  0.51404228  0.37316521  1
  In  In45  1  0.31613915  0.49119660  0.86320750  1
  In  In46  1  0.33929077  0.83090006  0.37857919  1
  In  In47  1  0.33433868  0.83242804  0.87474227  1
  In  In48  1  0.66524942  0.15155262  0.37319400  1
  In  In49  1  0.66891563  0.17461146  0.87226465  1
  In  In50  1  0.65805458  0.51140875  0.38233471  1
  In  In51  1  0.65286807  0.50251908  0.87032913  1
  In  In52  1  0.66381002  0.83296625  0.37602317  1
  In  In53  1  0.67297332  0.82548556  0.87566926  1
  In  In54  1  0.18420891  -0.00298614  0.12966580  1
  In  In55  1  0.17018791  0.00166333  0.62246027  1
  In  In56  1  0.15537829  0.32925577  0.11716587  1
  In  In57  1  0.17693770  0.31925253  0.62997545  1
  In  In58  1  0.18033514  0.67800482  0.11784358  1
  In  In59  1  0.16893284  0.68526755  0.62423299  1
  In  In60  1  0.51082694  -0.00937518  0.13417250  1
  In  In61  1  0.48741201  -0.00490153  0.61471208  1
  In  In62  1  0.49517483  0.34154523  0.12446366  1
  In  In63  1  0.46708474  0.31257987  0.58829913  1
  In  In64  1  0.48654790  0.67805031  0.13365295  1
  In  In65  1  0.49732015  0.66893229  0.62492908  1
  In  In66  1  0.82453948  -0.01076496  0.11572569  1
  In  In67  1  0.84891629  0.00336764  0.62853559  1
  In  In68  1  0.85093749  0.32998349  0.12035260  1
  In  In69  1  0.82887807  0.33763385  0.63102715  1
  In  In70  1  0.82008523  0.67150925  0.12871743  1
  In  In71  1  0.82206252  0.66257762  0.62179193  1
  In  In72  1  0.83065311  0.16674245  0.50465904  1
  In  In73  1  -0.00258002  0.66291282  0.25177092  1
  In  In74  1  0.49963483  0.15990155  -0.01060008  1
  In  In75  1  0.00258663  0.66876115  0.75114059  1
  In  In76  1  0.16763033  0.50178542  0.50447793  1
  In  In77  1  0.66153654  -0.00010240  0.73731347  1
  In  In78  1  0.67067626  0.33057094  0.25829758  1
  In  In79  1  0.65816280  0.33729441  0.74560122  1
  In  In80  1  0.00413784  0.33447697  0.25165818  1
  In  In81  1  0.83673083  0.50657846  0.00151815  1
  In  In82  1  0.49381425  0.50148988  -0.00098853  1
  In  In83  1  0.00085336  0.00646386  0.24812943  1
  In  In84  1  0.16148003  0.16594030  -0.00602257  1
  In  In85  1  0.32888641  0.33323479  0.25092431  1
  Cu  Cu86  1  0.82357662  0.83975661  0.24900919  1
  Cu  Cu87  1  0.66162131  0.67380046  0.00066723  1
  Cu  Cu88  1  0.66962033  0.33920132  0.50199254  1
  Cu  Cu89  1  0.66475936  0.67093338  0.50047555  1
  Cu  Cu90  1  0.83068483  0.50022361  0.74800676  1
  Cu  Cu91  1  0.17820798  0.15582967  0.25767142  1
  Cu  Cu92  1  0.00399328  0.67094192  -0.00452257  1
  Cu  Cu93  1  0.33640092  -0.00809003  0.00162407  1
  Cu  Cu94  1  0.16849447  0.49911643  0.74553481  1
  Cu  Cu95  1  0.00193898  0.00324958  -0.00566489  1
  Cu  Cu96  1  0.50500034  0.50671467  0.25376393  1
  Cu  Cu97  1  0.66499801  -0.00585711  0.49902320  1
  Cu  Cu98  1  0.67110724  -0.00779316  -0.00012109  1
  Cu  Cu99  1  0.49830234  0.50287640  0.74303750  1
  Cu  Cu100  1  0.82959426  0.50792403  0.25745127  1
  Cu  Cu101  1  0.00124450  0.00293795  0.50577897  1
  Cu  Cu102  1  0.67105380  0.32598145  0.00197329  1
  Cu  Cu103  1  0.17902836  0.83134152  0.25506763  1
  Cu  Cu104  1  0.49685161  0.83244439  0.74351901  1
  Cu  Cu105  1  0.82892995  0.16459008  0.24694111  1
  Cu  Cu106  1  0.34116721  0.66948510  0.50081741  1
  Cu  Cu107  1  0.17054850  0.84170270  0.74957185  1
  Cu  Cu108  1  0.83411655  0.82854495  0.74961546  1
  Cu  Cu109  1  0.17225173  0.16539205  0.74602281  1
  Cu  Cu110  1  -0.00430357  0.66769234  0.50283700  1
  Cu  Cu111  1  0.49877912  0.83538953  0.25455801  1
  Cu  Cu112  1  0.17063336  0.50009108  0.24958768  1
  Cu  Cu113  1  0.48924009  0.15855890  0.26187957  1
  Cu  Cu114  1  0.33436383  0.66771504  -0.00315615  1
  Se  Se115  1  0.08067429  0.07444417  0.06383987  1
  Se  Se116  1  0.07975166  0.08884106  0.55952009  1
  Se  Se117  1  0.07498621  0.40609820  0.04714451  1
  Se  Se118  1  0.08319022  0.41289450  0.56713752  1
  Se  Se119  1  0.08669318  0.75202631  0.05235806  1
  Se  Se120  1  0.08433543  0.75169886  0.54882187  1
  Se  Se121  1  0.41575313  0.07595668  0.06075517  1
  Se  Se122  1  0.40170423  0.07769650  0.54732039  1
  Se  Se123  1  0.40151156  0.40437603  0.05192731  1
  Se  Se124  1  0.42476680  0.43933719  0.54371349  1
  Se  Se125  1  0.41719904  0.74918592  0.05254186  1
  Se  Se126  1  0.41778801  0.75613832  0.55654957  1
  Se  Se127  1  0.74721961  0.08398013  0.05169950  1
  Se  Se128  1  0.74014978  0.07497943  0.56352649  1
  Se  Se129  1  0.74421917  0.41253732  0.06157069  1
  Se  Se130  1  0.75249450  0.41763931  0.55792185  1
  Se  Se131  1  0.74934349  0.75276690  0.05417524  1
  Se  Se132  1  0.74988039  0.75361670  0.55274252  1
  Se  Se133  1  0.25648582  0.25007958  0.05687653  1
  Se  Se134  1  0.24209015  0.24884625  0.54784615  1
  Se  Se135  1  0.25123093  0.58329318  0.05000666  1
  Se  Se136  1  0.25763694  0.59262793  0.56247749  1
  Se  Se137  1  0.25014256  0.91192014  0.05492357  1
  Se  Se138  1  0.24068200  0.91211133  0.55114273  1
  Se  Se139  1  0.58313316  0.25197925  0.05969834  1
  Se  Se140  1  0.58579244  0.24540284  0.54344691  1
  Se  Se141  1  0.58488863  0.59058481  0.06113288  1
  Se  Se142  1  0.58313378  0.58787343  0.55580672  1
  Se  Se143  1  0.58135426  0.91705412  0.05397598  1
  Se  Se144  1  0.57613906  0.91417924  0.54931950  1
  Se  Se145  1  0.92190980  0.25290691  0.04521187  1
  Se  Se146  1  0.91904202  0.24614340  0.57073498  1
  Se  Se147  1  0.92653673  0.59669979  0.06386725  1
  Se  Se148  1  0.91167482  0.58488090  0.55360783  1
  Se  Se149  1  0.91909209  0.91891178  0.04942113  1
  Se  Se150  1  0.91368842  0.91804476  0.55244989  1
  Se  Se151  1  0.04840622  0.28424726  0.43978898  1
  Se  Se152  1  0.07768553  0.24824085  0.92739025  1
  Se  Se153  1  0.07840926  0.59138799  0.43898510  1
  Se  Se154  1  0.08621068  0.58338838  0.94692591  1
  Se  Se155  1  0.08151824  0.91935835  0.44919848  1
  Se  Se156  1  0.09124126  0.92064752  0.94681651  1
  Se  Se157  1  0.40234906  0.26436277  0.46492164  1
  Se  Se158  1  0.40491253  0.25392265  0.93949249  1
  Se  Se159  1  0.42129980  0.58557471  0.44542956  1
  Se  Se160  1  0.40983824  0.58672251  0.93264297  1
  Se  Se161  1  0.40283663  0.92715944  0.44841031  1
  Se  Se162  1  0.42058360  0.91143146  0.94687389  1
  Se  Se163  1  0.74427723  0.25531034  0.43753386  1
  Se  Se164  1  0.75201645  0.24327125  0.94822513  1
  Se  Se165  1  0.75003165  0.58554316  0.44947484  1
  Se  Se166  1  0.73861849  0.58895086  0.94082499  1
  Se  Se167  1  0.75171612  0.91427802  0.44597755  1
  Se  Se168  1  0.75385995  0.91097851  0.94351489  1
  Se  Se169  1  0.21939718  0.11891960  0.44141344  1
  Se  Se170  1  0.26233151  0.07826879  0.94126201  1
  Se  Se171  1  0.25842015  0.41824841  0.44042123  1
  Se  Se172  1  0.24379956  0.42085307  0.94163255  1
  Se  Se173  1  0.25221560  0.74757378  0.44764968  1
  Se  Se174  1  0.24958445  0.75106008  0.94459404  1
  Se  Se175  1  0.58357341  0.08159230  0.44751236  1
  Se  Se176  1  0.59342260  0.06888232  0.93413503  1
  Se  Se177  1  0.58384141  0.41885965  0.44832802  1
  Se  Se178  1  0.58862244  0.40513156  0.94370810  1
  Se  Se179  1  0.58087430  0.75524086  0.44812646  1
  Se  Se180  1  0.57918697  0.75049085  0.94223866  1
  Se  Se181  1  0.92034868  0.07745561  0.43951068  1
  Se  Se182  1  0.91914442  0.08251976  0.93843863  1
  Se  Se183  1  0.91153918  0.42335158  0.46066329  1
  Se  Se184  1  0.91952950  0.41838606  0.93734227  1
  Se  Se185  1  0.91478913  0.75251458  0.44739989  1
  Se  Se186  1  0.91674867  0.75261378  0.94621279  1
  Se  Se187  1  0.25816727  0.23726766  0.31556533  1
  Se  Se188  1  0.25466714  0.25121443  0.79872064  1
  Se  Se189  1  0.25675261  0.58543742  0.29636567  1
  Se  Se190  1  0.24794804  0.58915100  0.79652738  1
  Se  Se191  1  0.24975400  0.91811471  0.31502721  1
  Se  Se192  1  0.25606677  0.92083005  0.80522093  1
  Se  Se193  1  0.57022001  0.24768121  0.31535287  1
  Se  Se194  1  0.56987900  0.23969441  0.80296152  1
  Se  Se195  1  0.58822661  0.59042598  0.30536382  1
  Se  Se196  1  0.58369162  0.58438782  0.79612728  1
  Se  Se197  1  0.58416111  0.91866062  0.30615382  1
  Se  Se198  1  0.58118660  0.90954316  0.80495204  1
  Se  Se199  1  0.91234032  0.23790117  0.30685211  1
  Se  Se200  1  0.91628639  0.25813408  0.79726044  1
  Se  Se201  1  0.91753944  0.57478484  0.31956684  1
  Se  Se202  1  0.91251133  0.57616833  0.81150226  1
  Se  Se203  1  0.91108186  0.91293054  0.30766586  1
  Se  Se204  1  0.91737049  0.91173393  0.80261844  1
  Se  Se205  1  0.09569344  0.07628713  0.31490878  1
  Se  Se206  1  0.08782136  0.08073664  0.79837564  1
  Se  Se207  1  0.10135923  0.41639566  0.31164402  1
  Se  Se208  1  0.08525262  0.41489644  0.79721490  1
  Se  Se209  1  0.09063004  0.75270286  0.30992710  1
  Se  Se210  1  0.08998893  0.76008373  0.81143706  1
  Se  Se211  1  0.41010879  0.09090247  0.32696257  1
  Se  Se212  1  0.42168005  0.08075864  0.79567868  1
  Se  Se213  1  0.42663515  0.41968231  0.30936659  1
  Se  Se214  1  0.41811110  0.42042954  0.80144824  1
  Se  Se215  1  0.41656235  0.74894979  0.30597335  1
  Se  Se216  1  0.41442280  0.75130335  0.80135635  1
  Se  Se217  1  0.74464458  0.08064011  0.29650880  1
  Se  Se218  1  0.74880007  0.08225191  0.80599129  1
  Se  Se219  1  0.76025010  0.41950348  0.31823719  1
  Se  Se220  1  0.75232818  0.42078707  0.81178514  1
  Se  Se221  1  0.74811593  0.75240043  0.30444889  1
  Se  Se222  1  0.74872132  0.74534286  0.79970581  1
  Se  Se223  1  0.26158159  0.07254136  0.20547651  1
  Se  Se224  1  0.25472504  0.08245393  0.69182686  1
  Se  Se225  1  0.24344593  0.41884902  0.18396829  1
  Se  Se226  1  0.25323740  0.41403761  0.69469074  1
  Se  Se227  1  0.25589223  0.74873460  0.19642849  1
  Se  Se228  1  0.25196351  0.75566053  0.69786942  1
  Se  Se229  1  0.57768017  0.08624460  0.20387841  1
  Se  Se230  1  0.56808256  0.09106960  0.68380622  1
  Se  Se231  1  0.58321203  0.42375800  0.19393146  1
  Se  Se232  1  0.56973767  0.41839925  0.68127863  1
  Se  Se233  1  0.58108543  0.75323927  0.19723388  1
  Se  Se234  1  0.58423671  0.74817302  0.69580624  1
  Se  Se235  1  0.91066821  0.09050358  0.18403692  1
  Se  Se236  1  0.91110173  0.07968755  0.70838464  1
  Se  Se237  1  0.90892917  0.42976955  0.19625073  1
  Se  Se238  1  0.91619160  0.41571103  0.70050747  1
  Se  Se239  1  0.91280633  0.76181874  0.19278467  1
  Se  Se240  1  0.91720136  0.75481645  0.68559355  1
  Se  Se241  1  0.09723115  0.23565965  0.19778883  1
  Se  Se242  1  0.08422862  0.25100812  0.70063684  1
  Se  Se243  1  0.09072158  0.57923901  0.18877881  1
  Se  Se244  1  0.08780252  0.58053780  0.68559284  1
  Se  Se245  1  0.09279438  0.90653333  0.19526147  1
  Se  Se246  1  0.08521768  0.92052383  0.69440959  1
  Se  Se247  1  0.42504274  0.24084293  0.19241378  1
  Se  Se248  1  0.41571935  0.25637326  0.68049385  1
  Se  Se249  1  0.41582331  0.58044951  0.19843416  1
  Se  Se250  1  0.41209764  0.58818062  0.69473324  1
  Se  Se251  1  0.41542094  0.91686590  0.19817824  1
  Se  Se252  1  0.41527465  0.91892058  0.69324882  1
  Se  Se253  1  0.75424198  0.24930190  0.18613790  1
  Se  Se254  1  0.75498077  0.23938982  0.69865318  1
  Se  Se255  1  0.74828969  0.59268917  0.20613315  1
  Se  Se256  1  0.74691050  0.58458004  0.69785686  1
  Se  Se257  1  0.74374610  0.92172111  0.19300238  1
  Se  Se258  1  0.75586125  0.90521164  0.68446982  1
