# generated using pymatgen
data_In86Cu29Se144
_symmetry_space_group_name_H-M   'P 1'
_cell_length_a   17.57949494
_cell_length_b   17.58395185
_cell_length_c   23.44357391
_cell_angle_alpha   90.02762674
_cell_angle_beta   89.97149529
_cell_angle_gamma   90.00986938
_symmetry_Int_Tables_number   1
_chemical_formula_structural   In86Cu29Se144
_chemical_formula_sum   'In86 Cu29 Se144'
_cell_volume   7246.80521655
_cell_formula_units_Z   1
loop_
 _symmetry_equiv_pos_site_id
 _symmetry_equiv_pos_as_xyz
  1  'x, y, z'
loop_
 _atom_site_type_symbol
 _atom_site_label
 _atom_site_symmetry_multiplicity
 _atom_site_fract_x
 _atom_site_fract_y
 _atom_site_fract_z
 _atom_site_occupancy
  In  In0  1  0.01842911  0.16466570  0.12343616  1
  In  In1  1  -0.00105695  0.15340095  0.62703990  1
  In  In2  1  0.00384635  0.48408257  0.12850755  1
  In  In3  1  0.01037538  0.48815253  0.62673937  1
  In  In4  1  0.00455145  0.83415760  0.11768019  1
  In  In5  1  0.02231346  0.83048222  0.63236408  1
  In  In6  1  0.34150564  0.17140035  0.11821530  1
  In  In7  1  0.33561900  0.16847767  0.62572437  1
  In  In8  1  0.32909897  0.50119767  0.12061944  1
  In  In9  1  0.32245022  0.50619710  0.63311134  1
  In  In10  1  0.32315873  0.82079198  0.11876335  1
  In  In11  1  0.32962102  0.83550642  0.62993636  1
  In  In12  1  0.64760263  0.16586641  0.12380305  1
  In  In13  1  0.64956057  0.16871401  0.63198697  1
  In  In14  1  0.66235826  0.51709645  0.11825612  1
  In  In15  1  0.66053487  0.49422985  0.63239432  1
  In  In16  1  0.66912757  0.83482859  0.11210769  1
  In  In17  1  0.65750925  0.84938932  0.63330926  1
  In  In18  1  0.17603576  -0.00531462  0.38625677  1
  In  In19  1  0.18027157  -0.00791327  0.86686123  1
  In  In20  1  0.17273522  0.33177694  0.37477307  1
  In  In21  1  0.17933408  0.32427554  0.88041567  1
  In  In22  1  0.17691944  0.66238889  0.37681033  1
  In  In23  1  0.17033214  0.66644752  0.87788413  1
  In  In24  1  0.50457584  -0.00333188  0.38183210  1
  In  In25  1  0.49888978  -0.00325921  0.87285407  1
  In  In26  1  0.48803527  0.33974102  0.37778626  1
  In  In27  1  0.49370260  0.32973349  0.87508871  1
  In  In28  1  0.49737075  0.68288887  0.37427703  1
  In  In29  1  0.48151320  0.68723732  0.89053422  1
  In  In30  1  0.82979175  0.00975146  0.37118265  1
  In  In31  1  0.82057954  -0.01221041  0.86850531  1
  In  In32  1  0.83982220  0.32003402  0.37191069  1
  In  In33  1  0.82051253  0.34555630  0.86972636  1
  In  In34  1  0.81763800  0.66874979  0.37436525  1
  In  In35  1  0.84217033  0.66948685  0.87870399  1
  In  In36  1  0.00200636  0.17542287  0.37380644  1
  In  In37  1  0.02331622  0.16301480  0.87524132  1
  In  In38  1  0.02166310  0.50317787  0.37219536  1
  In  In39  1  0.00018429  0.51066178  0.87921329  1
  In  In40  1  0.00552021  0.84147971  0.37369184  1
  In  In41  1  0.00128663  0.83453940  0.87809226  1
  In  In42  1  0.32476741  0.17283257  0.38519188  1
  In  In43  1  0.33239842  0.16626784  0.87485489  1
  In  In44  1  0.32775480  0.48881519  0.36621797  1
  In  In45  1  0.33206051  0.49999281  0.87594707  1
  In  In46  1  0.33741339  0.83322049  0.37663193  1
  In  In47  1  0.33710140  0.83403667  0.86841662  1
  In  In48  1  0.67177820  0.15493659  0.37739383  1
  In  In49  1  0.65039210  0.15516151  0.86806752  1
  In  In50  1  0.65139538  0.50596446  0.37565286  1
  In  In51  1  0.66124760  0.48198954  0.86885951  1
  In  In52  1  0.65225300  0.83097471  0.37359039  1
  In  In53  1  0.64803958  0.84983473  0.89192470  1
  In  In54  1  0.16789158  -0.00201575  0.11460842  1
  In  In55  1  0.16961894  -0.00095095  0.62803638  1
  In  In56  1  0.17100295  0.33312539  0.12440494  1
  In  In57  1  0.17667063  0.34019039  0.61924000  1
  In  In58  1  0.18292156  0.68010204  0.11830357  1
  In  In59  1  0.18611249  0.68013741  0.61207054  1
  In  In60  1  0.50454171  0.00713505  0.11926579  1
  In  In61  1  0.48680633  -0.00419925  0.63295323  1
  In  In62  1  0.48620522  0.32806356  0.11783617  1
  In  In63  1  0.50992924  0.31824099  0.63117413  1
  In  In64  1  0.49142429  0.65533559  0.10909421  1
  In  In65  1  0.47865929  0.67212075  0.63390503  1
  In  In66  1  0.82752729  -0.01966389  0.12250024  1
  In  In67  1  0.83696765  -0.00037017  0.63774952  1
  In  In68  1  0.84004314  0.34398281  0.12827331  1
  In  In69  1  0.82944309  0.32267184  0.62931084  1
  In  In70  1  0.82973663  0.68405019  0.11945863  1
  In  In71  1  0.82205614  0.67162945  0.62511907  1
  In  In72  1  0.83759500  0.83927934  0.49167683  1
  In  In73  1  0.33376008  -0.00010425  0.25319198  1
  In  In74  1  0.00649001  0.66650475  0.75847314  1
  In  In75  1  0.83434406  0.16194651  -0.00777680  1
  In  In76  1  0.66505784  0.33697524  0.25016756  1
  In  In77  1  0.66744542  0.67980759  0.24140398  1
  In  In78  1  0.00128180  0.00277610  0.24441686  1
  In  In79  1  0.83460788  0.50367849  0.00497415  1
  In  In80  1  0.84040505  0.49569178  0.51138224  1
  In  In81  1  0.65828520  0.66622894  0.75714858  1
  In  In82  1  0.83261291  0.16653664  0.50026418  1
  In  In83  1  0.49516313  0.49880172  0.50441224  1
  In  In84  1  0.00556373  0.66713032  0.24189254  1
  In  In85  1  -0.00398525  0.32894281  0.75154910  1
  Cu  Cu86  1  0.49460431  0.83556141  0.24891207  1
  Cu  Cu87  1  0.00757244  0.67094800  -0.00024440  1
  Cu  Cu88  1  0.33522850  0.66964870  0.50116194  1
  Cu  Cu89  1  0.65539986  0.32889886  -0.00273850  1
  Cu  Cu90  1  0.01288131  0.33568483  0.49583240  1
  Cu  Cu91  1  0.01030562  -0.00461687  0.50646263  1
  Cu  Cu92  1  0.01165305  0.66491616  0.49945065  1
  Cu  Cu93  1  0.17537166  0.49253889  0.24926446  1
  Cu  Cu94  1  0.82916113  0.16595476  0.75368298  1
  Cu  Cu95  1  0.00801740  0.33026143  0.00095787  1
  Cu  Cu96  1  0.17203528  0.16390249  0.74998794  1
  Cu  Cu97  1  0.16670582  0.49896848  0.75314004  1
  Cu  Cu98  1  0.00698096  -0.00429765  -0.00454986  1
  Cu  Cu99  1  0.49890686  0.16668744  0.24663409  1
  Cu  Cu100  1  0.33448722  0.33134850  0.50202819  1
  Cu  Cu101  1  0.83339954  0.83125232  0.75460160  1
  Cu  Cu102  1  0.33542506  0.00043221  0.50826146  1
  Cu  Cu103  1  0.65726254  0.67137256  0.50193048  1
  Cu  Cu104  1  0.66294442  -0.00014831  -0.00437837  1
  Cu  Cu105  1  0.33133173  0.33733673  -0.00095910  1
  Cu  Cu106  1  0.49677269  0.16601088  0.75207723  1
  Cu  Cu107  1  0.65463358  0.00413824  0.50757978  1
  Cu  Cu108  1  0.33114517  0.66713897  -0.00451327  1
  Cu  Cu109  1  0.49245227  0.49592274  0.75450451  1
  Cu  Cu110  1  0.17105718  0.17156638  0.25058960  1
  Cu  Cu111  1  0.49167778  0.50398638  0.24146215  1
  Cu  Cu112  1  0.33543970  -0.00300019  -0.00729419  1
  Cu  Cu113  1  0.83228949  0.16327734  0.24957687  1
  Cu  Cu114  1  0.84095789  0.50001364  0.25125994  1
  Se  Se115  1  0.08681296  0.08390689  0.04720820  1
  Se  Se116  1  0.08848011  0.08534737  0.55637819  1
  Se  Se117  1  0.08772654  0.41692858  0.05366288  1
  Se  Se118  1  0.09141642  0.42196152  0.54996702  1
  Se  Se119  1  0.09169199  0.75587412  0.05066136  1
  Se  Se120  1  0.08798574  0.75563267  0.55061807  1
  Se  Se121  1  0.41533748  0.08129809  0.05011059  1
  Se  Se122  1  0.42041293  0.08472123  0.55822229  1
  Se  Se123  1  0.41626690  0.42178172  0.05097794  1
  Se  Se124  1  0.41013296  0.41004905  0.56728348  1
  Se  Se125  1  0.41502188  0.75273950  0.04794725  1
  Se  Se126  1  0.41378823  0.75414675  0.55690000  1
  Se  Se127  1  0.74317127  0.08040212  0.05808216  1
  Se  Se128  1  0.74789815  0.07594103  0.56381669  1
  Se  Se129  1  0.73890820  0.40600613  0.05814606  1
  Se  Se130  1  0.74075709  0.40651616  0.55984947  1
  Se  Se131  1  0.73591352  0.73533117  0.04665245  1
  Se  Se132  1  0.74081506  0.75662724  0.55562922  1
  Se  Se133  1  0.25077022  0.25023743  0.05340295  1
  Se  Se134  1  0.24991523  0.24669342  0.55356032  1
  Se  Se135  1  0.24773698  0.58352731  0.04971418  1
  Se  Se136  1  0.25455945  0.57776199  0.55000579  1
  Se  Se137  1  0.25333375  0.91501921  0.04997054  1
  Se  Se138  1  0.24888590  0.91561018  0.55697385  1
  Se  Se139  1  0.57311193  0.24569362  0.05101717  1
  Se  Se140  1  0.58607508  0.24840417  0.55332733  1
  Se  Se141  1  0.58389840  0.58238515  0.04188606  1
  Se  Se142  1  0.58305443  0.59230799  0.56609257  1
  Se  Se143  1  0.57838332  0.91733530  0.04963229  1
  Se  Se144  1  0.57358056  0.91800346  0.55957439  1
  Se  Se145  1  0.92003964  0.25351876  0.05781875  1
  Se  Se146  1  0.92947158  0.25857490  0.55706312  1
  Se  Se147  1  0.92986615  0.59220843  0.06477138  1
  Se  Se148  1  0.92853465  0.59583167  0.56439967  1
  Se  Se149  1  0.92047767  0.91752990  0.05064070  1
  Se  Se150  1  0.92234457  0.91858928  0.56296398  1
  Se  Se151  1  0.09008100  0.24600664  0.44404111  1
  Se  Se152  1  0.09170410  0.24629900  0.94985559  1
  Se  Se153  1  0.09388251  0.58043925  0.44770705  1
  Se  Se154  1  0.08717533  0.58347517  0.94815370  1
  Se  Se155  1  0.08660824  0.91037852  0.44919754  1
  Se  Se156  1  0.09278866  0.91685999  0.93983756  1
  Se  Se157  1  0.41983733  0.25031214  0.44882230  1
  Se  Se158  1  0.41259642  0.24922767  0.94684900  1
  Se  Se159  1  0.41234868  0.58759432  0.43777411  1
  Se  Se160  1  0.41533165  0.57900001  0.94757556  1
  Se  Se161  1  0.41388524  0.91897644  0.44700418  1
  Se  Se162  1  0.41940561  0.91152464  0.94274678  1
  Se  Se163  1  0.74212598  0.25978142  0.44323166  1
  Se  Se164  1  0.74019324  0.25388171  0.93776605  1
  Se  Se165  1  0.74060914  0.58546347  0.44991177  1
  Se  Se166  1  0.74790639  0.57785687  0.93463234  1
  Se  Se167  1  0.73759844  0.93048798  0.44195852  1
  Se  Se168  1  0.75527000  0.91616439  0.95190059  1
  Se  Se169  1  0.25070547  0.08309301  0.45367911  1
  Se  Se170  1  0.24919609  0.08010121  0.94158190  1
  Se  Se171  1  0.25468007  0.41560640  0.44501424  1
  Se  Se172  1  0.24632208  0.42086914  0.94729590  1
  Se  Se173  1  0.25235967  0.75186209  0.44542740  1
  Se  Se174  1  0.25310769  0.75508825  0.94136149  1
  Se  Se175  1  0.58058408  0.08898666  0.44872767  1
  Se  Se176  1  0.57664848  0.08332360  0.94635715  1
  Se  Se177  1  0.59022663  0.40946069  0.44636339  1
  Se  Se178  1  0.57659480  0.41536739  0.94443155  1
  Se  Se179  1  0.57596215  0.75670709  0.45004971  1
  Se  Se180  1  0.59679269  0.73625295  0.94881634  1
  Se  Se181  1  0.92842276  0.07331154  0.44391177  1
  Se  Se182  1  0.92533907  0.07311192  0.93346186  1
  Se  Se183  1  0.92458897  0.41260373  0.43884968  1
  Se  Se184  1  0.92161402  0.40761541  0.94317309  1
  Se  Se185  1  0.92529880  0.73719616  0.43794941  1
  Se  Se186  1  0.91974584  0.75195899  0.94914205  1
  Se  Se187  1  0.25742008  0.25012095  0.30515783  1
  Se  Se188  1  0.25248076  0.25066148  0.80242946  1
  Se  Se189  1  0.25260716  0.58299715  0.30168529  1
  Se  Se190  1  0.24834415  0.58352333  0.80667863  1
  Se  Se191  1  0.23980664  0.90933124  0.30720199  1
  Se  Se192  1  0.27625708  0.92973405  0.79417457  1
  Se  Se193  1  0.57920176  0.24511197  0.31107783  1
  Se  Se194  1  0.58114636  0.25284356  0.80331729  1
  Se  Se195  1  0.57422127  0.58530723  0.29998539  1
  Se  Se196  1  0.56735894  0.57880714  0.81683239  1
  Se  Se197  1  0.57722972  0.91732760  0.30388608  1
  Se  Se198  1  0.58850905  0.91661023  0.80688957  1
  Se  Se199  1  0.91991826  0.24619643  0.29788831  1
  Se  Se200  1  0.91010078  0.24045801  0.81754042  1
  Se  Se201  1  0.91391570  0.58378328  0.31291873  1
  Se  Se202  1  0.90590879  0.57206797  0.80474068  1
  Se  Se203  1  0.90920156  0.91390220  0.30588366  1
  Se  Se204  1  0.91917540  0.91379854  0.80634428  1
  Se  Se205  1  0.09378095  0.08576822  0.30986339  1
  Se  Se206  1  0.09038258  0.07788535  0.80147037  1
  Se  Se207  1  0.08858169  0.41206344  0.30262171  1
  Se  Se208  1  0.08486197  0.41944080  0.81292200  1
  Se  Se209  1  0.08998115  0.75289471  0.30829321  1
  Se  Se210  1  0.09809809  0.76329057  0.80684888  1
  Se  Se211  1  0.42138661  0.09130392  0.31312068  1
  Se  Se212  1  0.41561740  0.08335108  0.80655557  1
  Se  Se213  1  0.41972996  0.41472686  0.29815571  1
  Se  Se214  1  0.40850810  0.41109411  0.80636092  1
  Se  Se215  1  0.41176115  0.75108826  0.30087701  1
  Se  Se216  1  0.41996446  0.74588266  0.80319082  1
  Se  Se217  1  0.74526430  0.08136573  0.29841345  1
  Se  Se218  1  0.74471570  0.08023141  0.80370534  1
  Se  Se219  1  0.75556892  0.42745731  0.31379963  1
  Se  Se220  1  0.74506377  0.41489985  0.79323028  1
  Se  Se221  1  0.75779498  0.76785873  0.30457511  1
  Se  Se222  1  0.75232598  0.75475301  0.81514422  1
  Se  Se223  1  0.24537343  0.08779942  0.18907158  1
  Se  Se224  1  0.25457393  0.08382861  0.69451406  1
  Se  Se225  1  0.25815926  0.41170651  0.19323273  1
  Se  Se226  1  0.24766558  0.41245224  0.69978321  1
  Se  Se227  1  0.25161002  0.74991059  0.19879843  1
  Se  Se228  1  0.25179244  0.74266199  0.69555035  1
  Se  Se229  1  0.58209250  0.07948507  0.19859022  1
  Se  Se230  1  0.57743866  0.07772381  0.69933352  1
  Se  Se231  1  0.57927604  0.42535937  0.18554859  1
  Se  Se232  1  0.57748399  0.41546047  0.70031411  1
  Se  Se233  1  0.56787605  0.75564881  0.18244784  1
  Se  Se234  1  0.57152013  0.75839680  0.69694219  1
  Se  Se235  1  0.90855630  0.08905643  0.18180034  1
  Se  Se236  1  0.91913645  0.08531336  0.70431847  1
  Se  Se237  1  0.92303939  0.41130297  0.20428362  1
  Se  Se238  1  0.90759265  0.42320518  0.69269346  1
  Se  Se239  1  0.91101914  0.76375370  0.19292963  1
  Se  Se240  1  0.91176577  0.75301841  0.69212564  1
  Se  Se241  1  0.08575256  0.25188429  0.19613150  1
  Se  Se242  1  0.08973837  0.24560236  0.69001666  1
  Se  Se243  1  0.09719121  0.57431301  0.18736881  1
  Se  Se244  1  0.09169907  0.58066293  0.69073982  1
  Se  Se245  1  0.09382346  0.91054380  0.19059831  1
  Se  Se246  1  0.07653132  0.93081512  0.69875018  1
  Se  Se247  1  0.41490419  0.25000294  0.19566128  1
  Se  Se248  1  0.41447516  0.25108053  0.69880756  1
  Se  Se249  1  0.41189368  0.58915192  0.18835981  1
  Se  Se250  1  0.40955434  0.58172385  0.70324870  1
  Se  Se251  1  0.41740568  0.91466751  0.18548307  1
  Se  Se252  1  0.39293239  0.92899402  0.70439215  1
  Se  Se253  1  0.75332475  0.24491652  0.18748354  1
  Se  Se254  1  0.74583499  0.24478173  0.69748281  1
  Se  Se255  1  0.76279761  0.57962624  0.19106116  1
  Se  Se256  1  0.75440061  0.57871735  0.69558294  1
  Se  Se257  1  0.73812506  0.91174009  0.19106246  1
  Se  Se258  1  0.75030545  0.91624479  0.70230885  1
