# generated using pymatgen
data_In86Cu29Se144
_symmetry_space_group_name_H-M   'P 1'
_cell_length_a   17.57734197
_cell_length_b   17.57594156
_cell_length_c   23.44353429
_cell_angle_alpha   90.00062539
_cell_angle_beta   89.98397247
_cell_angle_gamma   90.00613993
_symmetry_Int_Tables_number   1
_chemical_formula_structural   In86Cu29Se144
_chemical_formula_sum   'In86 Cu29 Se144'
_cell_volume   7242.60612876
_cell_formula_units_Z   1
loop_
 _symmetry_equiv_pos_site_id
 _symmetry_equiv_pos_as_xyz
  1  'x, y, z'
loop_
 _atom_site_type_symbol
 _atom_site_label
 _atom_site_symmetry_multiplicity
 _atom_site_fract_x
 _atom_site_fract_y
 _atom_site_fract_z
 _atom_site_occupancy
  In  In0  1  -0.00866357  0.17345294  0.11990426  1
  In  In1  1  0.01989566  0.16686108  0.63030437  1
  In  In2  1  0.01136755  0.51020654  0.11602355  1
  In  In3  1  -0.00554506  0.49504054  0.62351210  1
  In  In4  1  -0.01181681  0.82677706  0.11618445  1
  In  In5  1  -0.00066147  0.82982719  0.61557938  1
  In  In6  1  0.32974974  0.15156434  0.12359399  1
  In  In7  1  0.30553063  0.16892203  0.63730813  1
  In  In8  1  0.33600760  0.52341357  0.12018523  1
  In  In9  1  0.33189680  0.51522433  0.62776432  1
  In  In10  1  0.33376577  0.82985546  0.11790640  1
  In  In11  1  0.32542951  0.84292809  0.63500480  1
  In  In12  1  0.66796440  0.16904458  0.12599028  1
  In  In13  1  0.67828756  0.17297149  0.62772983  1
  In  In14  1  0.65981497  0.48398374  0.12480116  1
  In  In15  1  0.67559719  0.49350289  0.63508806  1
  In  In16  1  0.67271120  0.84435918  0.11625689  1
  In  In17  1  0.66615502  0.82156262  0.62523716  1
  In  In18  1  0.17363180  -0.01154389  0.37821365  1
  In  In19  1  0.16303667  -0.01482985  0.87656031  1
  In  In20  1  0.15633307  0.33738678  0.38595383  1
  In  In21  1  0.17091142  0.34742841  0.86711455  1
  In  In22  1  0.16707108  0.66707563  0.37269828  1
  In  In23  1  0.18001710  0.65796311  0.88627848  1
  In  In24  1  0.50232344  -0.00444328  0.36172081  1
  In  In25  1  0.49038229  0.00599614  0.88316883  1
  In  In26  1  0.50142215  0.32215395  0.37173395  1
  In  In27  1  0.49501757  0.31573034  0.87860502  1
  In  In28  1  0.49806443  0.67722910  0.36758137  1
  In  In29  1  0.50359074  0.67180750  0.87611406  1
  In  In30  1  0.81823849  -0.00527196  0.36774350  1
  In  In31  1  0.84765923  0.00060181  0.89518454  1
  In  In32  1  0.83669528  0.33987876  0.37197913  1
  In  In33  1  0.83508667  0.33623477  0.87528713  1
  In  In34  1  0.84467522  0.65630823  0.37802759  1
  In  In35  1  0.82651851  0.67555884  0.88176062  1
  In  In36  1  0.00171896  0.17806568  0.37357299  1
  In  In37  1  -0.01070865  0.16127875  0.87702573  1
  In  In38  1  -0.00874874  0.50241479  0.37899511  1
  In  In39  1  0.01163264  0.48973023  0.87724525  1
  In  In40  1  0.01169033  0.82228522  0.37717802  1
  In  In41  1  0.00752796  0.83586341  0.88903252  1
  In  In42  1  0.33064681  0.15358516  0.37303132  1
  In  In43  1  0.35122343  0.17689292  0.87825643  1
  In  In44  1  0.31663478  0.49664817  0.37598517  1
  In  In45  1  0.31502896  0.50718804  0.88162934  1
  In  In46  1  0.33088941  0.82672086  0.36647660  1
  In  In47  1  0.33123102  0.82814121  0.87768186  1
  In  In48  1  0.67665277  0.16805611  0.35540775  1
  In  In49  1  0.66370879  0.17129711  0.87940935  1
  In  In50  1  0.68221548  0.50534698  0.37329418  1
  In  In51  1  0.67510637  0.50958560  0.87290289  1
  In  In52  1  0.66461412  0.83887612  0.36997236  1
  In  In53  1  0.67542268  0.82711823  0.88404656  1
  In  In54  1  0.18414345  -0.00112456  0.12864870  1
  In  In55  1  0.16860156  0.00060470  0.62061531  1
  In  In56  1  0.15873404  0.33708975  0.11981367  1
  In  In57  1  0.15651771  0.33022034  0.62638945  1
  In  In58  1  0.16673733  0.66709569  0.12165440  1
  In  In59  1  0.17075645  0.67438429  0.62136821  1
  In  In60  1  0.49929718  -0.00102756  0.11981809  1
  In  In61  1  0.48846296  -0.01392453  0.62491302  1
  In  In62  1  0.51928741  0.34326311  0.12286343  1
  In  In63  1  0.50375936  0.34599861  0.63246383  1
  In  In64  1  0.47264393  0.66502580  0.12315968  1
  In  In65  1  0.49933954  0.66956968  0.63557602  1
  In  In66  1  0.82798643  -0.00614452  0.11875672  1
  In  In67  1  0.84586903  -0.00193007  0.62271389  1
  In  In68  1  0.81766988  0.32753967  0.11667225  1
  In  In69  1  0.82780399  0.34132136  0.63508440  1
  In  In70  1  0.84171631  0.67369439  0.11861879  1
  In  In71  1  0.83491421  0.65933995  0.62313859  1
  In  In72  1  0.66276810  0.66500880  0.24506301  1
  In  In73  1  0.49654124  0.16189211  0.49570422  1
  In  In74  1  0.66398701  0.00476226  0.75799421  1
  In  In75  1  0.00148280  0.66271044  0.75006705  1
  In  In76  1  0.33751011  0.33744914  0.75482471  1
  In  In77  1  -0.00746572  0.33597746  0.25059173  1
  In  In78  1  0.49751122  0.49935594  -0.00130026  1
  In  In79  1  0.16673825  0.16691736  -0.00311397  1
  In  In80  1  0.84010200  0.16647348  0.49450100  1
  In  In81  1  0.49963384  0.50307045  0.50131234  1
  In  In82  1  -0.00247090  -0.00182491  0.23973186  1
  In  In83  1  0.33843038  0.33741161  0.24797257  1
  In  In84  1  0.00408350  0.00187003  0.75439510  1
  In  In85  1  0.49775911  0.83121971  0.49280629  1
  Cu  Cu86  1  0.31747057  0.33306396  0.50458658  1
  Cu  Cu87  1  0.32375282  0.00231551  0.50144449  1
  Cu  Cu88  1  0.50462085  0.16325777  0.75407932  1
  Cu  Cu89  1  0.83583053  0.83025592  0.24300261  1
  Cu  Cu90  1  0.17074814  0.82589274  0.75281775  1
  Cu  Cu91  1  -0.00115932  0.66560559  -0.00192945  1
  Cu  Cu92  1  0.49689123  0.83555905  0.24035118  1
  Cu  Cu93  1  0.67230675  0.33094713  -0.00126401  1
  Cu  Cu94  1  0.17322857  0.82589168  0.24842265  1
  Cu  Cu95  1  0.83187816  0.17711792  0.75654725  1
  Cu  Cu96  1  0.00432298  0.66480130  0.49865979  1
  Cu  Cu97  1  0.67089734  -0.00396790  0.48953496  1
  Cu  Cu98  1  0.32787890  0.67279614  0.49921720  1
  Cu  Cu99  1  0.66591960  0.66774352  0.00212066  1
  Cu  Cu100  1  0.67010003  0.33857796  0.50518439  1
  Cu  Cu101  1  -0.00436053  0.33933425  -0.00198668  1
  Cu  Cu102  1  0.83355360  0.50172097  0.75170674  1
  Cu  Cu103  1  0.49501819  0.83177628  0.75528015  1
  Cu  Cu104  1  0.00018644  0.33034093  0.50418167  1
  Cu  Cu105  1  0.50264554  0.16487255  0.24381288  1
  Cu  Cu106  1  0.50562251  0.50347589  0.75624852  1
  Cu  Cu107  1  0.33484296  -0.00646538  0.00008840  1
  Cu  Cu108  1  0.00032814  -0.00773212  0.49821639  1
  Cu  Cu109  1  0.66197150  0.00434675  0.00061178  1
  Cu  Cu110  1  0.17044750  0.16439777  0.25279623  1
  Cu  Cu111  1  0.68059978  0.66029620  0.50377043  1
  Cu  Cu112  1  0.82691984  0.83303390  0.75601576  1
  Cu  Cu113  1  0.83543044  0.49731986  0.24843659  1
  Cu  Cu114  1  0.16788764  0.51129112  0.24706242  1
  Se  Se115  1  0.08515859  0.08098684  0.06592179  1
  Se  Se116  1  0.07845833  0.07808208  0.55371477  1
  Se  Se117  1  0.08567659  0.41931695  0.04721564  1
  Se  Se118  1  0.08270926  0.41679235  0.55495542  1
  Se  Se119  1  0.08125301  0.74926081  0.05244797  1
  Se  Se120  1  0.08713292  0.75107373  0.54960876  1
  Se  Se121  1  0.41577934  0.08279488  0.05005276  1
  Se  Se122  1  0.40565343  0.08137259  0.56179714  1
  Se  Se123  1  0.41021441  0.41267577  0.06298510  1
  Se  Se124  1  0.40714183  0.40965036  0.55929147  1
  Se  Se125  1  0.41485169  0.74966540  0.04637209  1
  Se  Se126  1  0.41231596  0.74770633  0.56059742  1
  Se  Se127  1  0.74743943  0.08507694  0.05462506  1
  Se  Se128  1  0.74460793  0.07605370  0.55456233  1
  Se  Se129  1  0.74898536  0.42375185  0.04851325  1
  Se  Se130  1  0.75388614  0.41952555  0.55816291  1
  Se  Se131  1  0.75270209  0.75270376  0.05248072  1
  Se  Se132  1  0.75624196  0.75127229  0.55628606  1
  Se  Se133  1  0.25601839  0.25423756  0.05994231  1
  Se  Se134  1  0.24000505  0.24494347  0.55708391  1
  Se  Se135  1  0.23603742  0.57489826  0.05134086  1
  Se  Se136  1  0.24962017  0.58474457  0.55237006  1
  Se  Se137  1  0.24613077  0.91439891  0.05112787  1
  Se  Se138  1  0.24927627  0.91056860  0.55450259  1
  Se  Se139  1  0.58661926  0.25120035  0.05293641  1
  Se  Se140  1  0.58536496  0.25577556  0.55877216  1
  Se  Se141  1  0.58517788  0.58954250  0.06290896  1
  Se  Se142  1  0.59060391  0.58946338  0.56361233  1
  Se  Se143  1  0.57901619  0.91523865  0.04880298  1
  Se  Se144  1  0.58993799  0.92194383  0.55425032  1
  Se  Se145  1  0.91304777  0.25482386  0.04994498  1
  Se  Se146  1  0.91936709  0.25096737  0.56549914  1
  Se  Se147  1  0.91477990  0.58153708  0.05056246  1
  Se  Se148  1  0.91977628  0.58267515  0.55305462  1
  Se  Se149  1  0.92220903  0.92527599  0.05206978  1
  Se  Se150  1  0.91220592  0.91229481  0.54915120  1
  Se  Se151  1  0.08142798  0.24390070  0.45173463  1
  Se  Se152  1  0.07865305  0.25981808  0.93745713  1
  Se  Se153  1  0.08439500  0.58203414  0.44134537  1
  Se  Se154  1  0.08283304  0.58097424  0.94668742  1
  Se  Se155  1  0.08697415  0.91083460  0.44644400  1
  Se  Se156  1  0.06635796  0.94059492  0.95181903  1
  Se  Se157  1  0.40095336  0.25797066  0.44310684  1
  Se  Se158  1  0.42099117  0.24814091  0.95825467  1
  Se  Se159  1  0.41172880  0.59395720  0.43991697  1
  Se  Se160  1  0.40764490  0.59417701  0.94445144  1
  Se  Se161  1  0.40888310  0.92844119  0.43880872  1
  Se  Se162  1  0.41835313  0.90929510  0.94686169  1
  Se  Se163  1  0.74056264  0.25370069  0.43988197  1
  Se  Se164  1  0.75563206  0.24839157  0.94441451  1
  Se  Se165  1  0.76054925  0.57603825  0.44930578  1
  Se  Se166  1  0.75037082  0.58467013  0.95011259  1
  Se  Se167  1  0.75344147  0.90696251  0.44317554  1
  Se  Se168  1  0.74917768  0.91960087  0.95086044  1
  Se  Se169  1  0.24325032  0.08597570  0.44594319  1
  Se  Se170  1  0.25899661  0.07675789  0.93782390  1
  Se  Se171  1  0.24064207  0.42221270  0.45194682  1
  Se  Se172  1  0.26113608  0.39989029  0.94374398  1
  Se  Se173  1  0.24926709  0.75486590  0.44124620  1
  Se  Se174  1  0.22798029  0.77154123  0.94515073  1
  Se  Se175  1  0.59138492  0.07924368  0.43293537  1
  Se  Se176  1  0.57998893  0.08827178  0.94649318  1
  Se  Se177  1  0.58827853  0.41132514  0.44055328  1
  Se  Se178  1  0.59014596  0.41119846  0.93795930  1
  Se  Se179  1  0.59709382  0.73659525  0.44241816  1
  Se  Se180  1  0.58246879  0.75082623  0.94952688  1
  Se  Se181  1  0.92382539  0.07106777  0.43355778  1
  Se  Se182  1  0.92223921  0.09240994  0.95922579  1
  Se  Se183  1  0.91673612  0.41045191  0.44743132  1
  Se  Se184  1  0.91336372  0.42367081  0.94445886  1
  Se  Se185  1  0.91938429  0.74801183  0.44477960  1
  Se  Se186  1  0.91467060  0.75339388  0.94928341  1
  Se  Se187  1  0.24277906  0.25294372  0.31226459  1
  Se  Se188  1  0.24922187  0.24083640  0.80936220  1
  Se  Se189  1  0.25497771  0.58739876  0.30276738  1
  Se  Se190  1  0.24529774  0.58416943  0.80473313  1
  Se  Se191  1  0.25096799  0.91663282  0.30064462  1
  Se  Se192  1  0.25043885  0.91294567  0.80563691  1
  Se  Se193  1  0.58247727  0.25124344  0.29734673  1
  Se  Se194  1  0.58506261  0.25006735  0.80473787  1
  Se  Se195  1  0.57797603  0.57544552  0.30971827  1
  Se  Se196  1  0.58779925  0.59068118  0.80678563  1
  Se  Se197  1  0.58586103  0.91238286  0.29484124  1
  Se  Se198  1  0.57748705  0.91093649  0.81583051  1
  Se  Se199  1  0.90179042  0.23722967  0.30265938  1
  Se  Se200  1  0.92228931  0.25431339  0.80695290  1
  Se  Se201  1  0.91974457  0.58039274  0.30089675  1
  Se  Se202  1  0.91050196  0.58098213  0.81465818  1
  Se  Se203  1  0.91608289  0.90763347  0.30711660  1
  Se  Se204  1  0.91059030  0.91188575  0.81310460  1
  Se  Se205  1  0.08512521  0.08412937  0.30892612  1
  Se  Se206  1  0.09387516  0.09180680  0.81195258  1
  Se  Se207  1  0.09012953  0.42440902  0.30613676  1
  Se  Se208  1  0.08551069  0.42209342  0.79743827  1
  Se  Se209  1  0.08457755  0.74632458  0.30004220  1
  Se  Se210  1  0.08435566  0.75451261  0.81320423  1
  Se  Se211  1  0.41828930  0.08587554  0.30052747  1
  Se  Se212  1  0.41765920  0.08460487  0.80602449  1
  Se  Se213  1  0.42276857  0.42500112  0.31394396  1
  Se  Se214  1  0.42545332  0.42580299  0.81799747  1
  Se  Se215  1  0.41632568  0.75075259  0.29510171  1
  Se  Se216  1  0.41295226  0.74554129  0.80665714  1
  Se  Se217  1  0.74635837  0.07162557  0.29308894  1
  Se  Se218  1  0.76397258  0.08492059  0.81594787  1
  Se  Se219  1  0.75093035  0.41563053  0.30131157  1
  Se  Se220  1  0.75003532  0.41788939  0.80560235  1
  Se  Se221  1  0.75765334  0.74940885  0.30709225  1
  Se  Se222  1  0.74441509  0.74739354  0.80545464  1
  Se  Se223  1  0.25616733  0.08064378  0.20388829  1
  Se  Se224  1  0.25013047  0.06352599  0.69931213  1
  Se  Se225  1  0.24290528  0.42330143  0.18929006  1
  Se  Se226  1  0.24916057  0.42075156  0.68993542  1
  Se  Se227  1  0.25502821  0.74586269  0.19044311  1
  Se  Se228  1  0.25362414  0.74388613  0.69790748  1
  Se  Se229  1  0.58332533  0.07963539  0.19017059  1
  Se  Se230  1  0.57736028  0.08612231  0.68571605  1
  Se  Se231  1  0.58033784  0.42048672  0.20359997  1
  Se  Se232  1  0.58767339  0.41671142  0.70474443  1
  Se  Se233  1  0.57845376  0.75436702  0.18119728  1
  Se  Se234  1  0.58351188  0.75467851  0.70110853  1
  Se  Se235  1  0.90492394  0.09280593  0.18917988  1
  Se  Se236  1  0.90919827  0.09425982  0.69492844  1
  Se  Se237  1  0.91329163  0.42218648  0.18188737  1
  Se  Se238  1  0.91928571  0.41812902  0.70056223  1
  Se  Se239  1  0.92157110  0.74594944  0.19529968  1
  Se  Se240  1  0.91096638  0.75965854  0.69359274  1
  Se  Se241  1  0.08900719  0.24282234  0.19418054  1
  Se  Se242  1  0.09019998  0.24782911  0.70343961  1
  Se  Se243  1  0.07986275  0.58909452  0.19415563  1
  Se  Se244  1  0.09036038  0.57862439  0.68737891  1
  Se  Se245  1  0.09140984  0.90477955  0.18732453  1
  Se  Se246  1  0.08516257  0.90393252  0.69278098  1
  Se  Se247  1  0.42146067  0.24545188  0.18471603  1
  Se  Se248  1  0.42359139  0.24198386  0.69016384  1
  Se  Se249  1  0.42339356  0.57314986  0.19972689  1
  Se  Se250  1  0.41932326  0.58199498  0.70140614  1
  Se  Se251  1  0.41206912  0.91807816  0.18801452  1
  Se  Se252  1  0.41369040  0.91914079  0.70446685  1
  Se  Se253  1  0.74322915  0.25918709  0.19456601  1
  Se  Se254  1  0.74496358  0.25552380  0.70292261  1
  Se  Se255  1  0.75647566  0.57747404  0.18600803  1
  Se  Se256  1  0.75220429  0.58838436  0.69841463  1
  Se  Se257  1  0.75100828  0.91508402  0.19443514  1
  Se  Se258  1  0.75413978  0.91747326  0.69290943  1
