# generated using pymatgen
data_In86Cu29Se144
_symmetry_space_group_name_H-M   'P 1'
_cell_length_a   17.58322433
_cell_length_b   17.58193110
_cell_length_c   23.44478660
_cell_angle_alpha   89.98664686
_cell_angle_beta   90.00515543
_cell_angle_gamma   89.97468734
_symmetry_Int_Tables_number   1
_chemical_formula_structural   In86Cu29Se144
_chemical_formula_sum   'In86 Cu29 Se144'
_cell_volume   7247.88541635
_cell_formula_units_Z   1
loop_
 _symmetry_equiv_pos_site_id
 _symmetry_equiv_pos_as_xyz
  1  'x, y, z'
loop_
 _atom_site_type_symbol
 _atom_site_label
 _atom_site_symmetry_multiplicity
 _atom_site_fract_x
 _atom_site_fract_y
 _atom_site_fract_z
 _atom_site_occupancy
  In  In0  1  -0.00032137  0.17786299  0.12801659  1
  In  In1  1  0.00975493  0.17294566  0.61101396  1
  In  In2  1  0.01145153  0.48567611  0.13876615  1
  In  In3  1  -0.00058188  0.49931535  0.62933251  1
  In  In4  1  0.00589653  0.83525170  0.13257447  1
  In  In5  1  -0.00322285  0.82854357  0.61951926  1
  In  In6  1  0.32103810  0.16478067  0.12626768  1
  In  In7  1  0.32957494  0.17451033  0.61694412  1
  In  In8  1  0.33206502  0.49738633  0.11301679  1
  In  In9  1  0.33426321  0.49063208  0.63450077  1
  In  In10  1  0.33422296  0.84956650  0.12716347  1
  In  In11  1  0.32450952  0.83459265  0.63695310  1
  In  In12  1  0.67501043  0.15908430  0.13521986  1
  In  In13  1  0.67445810  0.17856424  0.61544905  1
  In  In14  1  0.66103203  0.49909827  0.12688720  1
  In  In15  1  0.65749159  0.48584172  0.61648784  1
  In  In16  1  0.66818201  0.83465296  0.13486790  1
  In  In17  1  0.67696357  0.82563052  0.61847304  1
  In  In18  1  0.17689009  0.01155060  0.36341490  1
  In  In19  1  0.17734105  0.00342753  0.87711063  1
  In  In20  1  0.15785265  0.33153063  0.37533403  1
  In  In21  1  0.16500773  0.32981748  0.87009156  1
  In  In22  1  0.16423394  0.66646636  0.37880688  1
  In  In23  1  0.15107978  0.64671957  0.84933786  1
  In  In24  1  0.51408840  0.01207084  0.36502318  1
  In  In25  1  0.48331198  0.00885486  0.87903195  1
  In  In26  1  0.50613638  0.32401360  0.39187965  1
  In  In27  1  0.50868591  0.34132336  0.86935552  1
  In  In28  1  0.49116966  0.65489069  0.38613269  1
  In  In29  1  0.47935641  0.65803644  0.86800061  1
  In  In30  1  0.83379907  0.00377193  0.37441843  1
  In  In31  1  0.85142323  0.00845151  0.87853020  1
  In  In32  1  0.82914059  0.33322682  0.37547748  1
  In  In33  1  0.82921549  0.33096116  0.86895051  1
  In  In34  1  0.85056892  0.65443674  0.38454497  1
  In  In35  1  0.83925943  0.65554971  0.87194189  1
  In  In36  1  0.00173657  0.16171078  0.37411960  1
  In  In37  1  -0.00819500  0.17994371  0.88068548  1
  In  In38  1  -0.01851289  0.48023701  0.35509411  1
  In  In39  1  0.00978006  0.50082060  0.85851511  1
  In  In40  1  -0.00578308  0.82490449  0.36900172  1
  In  In41  1  0.01416091  0.82937805  0.87239200  1
  In  In42  1  0.33985367  0.17181023  0.38575582  1
  In  In43  1  0.32450650  0.15565902  0.86866071  1
  In  In44  1  0.34381817  0.50083275  0.39185603  1
  In  In45  1  0.33140705  0.49712387  0.87008243  1
  In  In46  1  0.32774198  0.82970939  0.37786597  1
  In  In47  1  0.30543378  0.82018083  0.84968735  1
  In  In48  1  0.66779551  0.17187552  0.37462461  1
  In  In49  1  0.66503150  0.17938894  0.87515998  1
  In  In50  1  0.68122027  0.48733327  0.38101724  1
  In  In51  1  0.67056073  0.48159994  0.87511050  1
  In  In52  1  0.66776184  0.85247488  0.37036985  1
  In  In53  1  0.67302073  0.82522473  0.87810020  1
  In  In54  1  0.14058225  0.03439229  0.15479054  1
  In  In55  1  0.16913017  0.01258906  0.62154224  1
  In  In56  1  0.15797479  0.32604059  0.11346706  1
  In  In57  1  0.17705448  0.32343629  0.64474127  1
  In  In58  1  0.17125954  0.65267272  0.12001890  1
  In  In59  1  0.17533506  0.65153563  0.64801615  1
  In  In60  1  0.49564050  0.00180171  0.14495622  1
  In  In61  1  0.48136760  0.00663108  0.62089816  1
  In  In62  1  0.49781571  0.34682812  0.12658482  1
  In  In63  1  0.49717302  0.33776030  0.62112509  1
  In  In64  1  0.49965501  0.65636853  0.12254248  1
  In  In65  1  0.48891400  0.65246182  0.61762983  1
  In  In66  1  0.82544173  0.01189503  0.13632378  1
  In  In67  1  0.83654227  -0.00134761  0.61078973  1
  In  In68  1  0.85354155  0.32054731  0.14294095  1
  In  In69  1  0.83253585  0.32985357  0.62254410  1
  In  In70  1  0.83522870  0.66793153  0.12907714  1
  In  In71  1  0.84260713  0.66763971  0.61234257  1
  In  In72  1  0.49302295  0.83346577  0.00772414  1
  In  In73  1  0.17327601  0.83559417  -0.00325724  1
  In  In74  1  0.00352564  0.00006434  0.74657266  1
  In  In75  1  0.16253344  0.82801158  0.49916459  1
  In  In76  1  0.66813346  0.67029040  0.25281741  1
  In  In77  1  0.32819722  0.66906672  0.25610056  1
  In  In78  1  0.65999522  0.66086036  0.73262332  1
  In  In79  1  0.83938918  0.49178024  0.00599930  1
  In  In80  1  0.50792593  0.83911146  0.50097461  1
  In  In81  1  0.16669568  0.49431065  0.51040053  1
  In  In82  1  0.83155905  0.83598541  0.01513881  1
  In  In83  1  0.49765685  0.17334353  0.00181206  1
  In  In84  1  0.32952319  0.33131126  0.25621832  1
  In  In85  1  0.65886851  0.00561632  0.74743286  1
  Cu  Cu86  1  0.66822650  0.01027005  0.49396892  1
  Cu  Cu87  1  0.16596344  0.83276331  0.25543054  1
  Cu  Cu88  1  0.33000285  0.33630950  -0.00662696  1
  Cu  Cu89  1  0.32888245  0.00071890  0.00097500  1
  Cu  Cu90  1  0.33040966  0.65457189  -0.00755273  1
  Cu  Cu91  1  0.83335693  0.16881448  0.25734686  1
  Cu  Cu92  1  0.01010931  0.65277776  0.50037097  1
  Cu  Cu93  1  0.00656782  0.33737779  0.00073339  1
  Cu  Cu94  1  0.00238511  0.66510324  -0.00880590  1
  Cu  Cu95  1  0.67254990  0.33041206  0.00083895  1
  Cu  Cu96  1  0.50044094  0.49882690  0.25423307  1
  Cu  Cu97  1  0.49931361  0.84564156  0.74788193  1
  Cu  Cu98  1  0.83514679  0.49445247  0.74642713  1
  Cu  Cu99  1  0.00065540  -0.00361852  0.49219681  1
  Cu  Cu100  1  0.33358807  0.00516968  0.49390372  1
  Cu  Cu101  1  0.65068953  0.65411353  -0.00082123  1
  Cu  Cu102  1  0.16836681  0.16662019  0.74625604  1
  Cu  Cu103  1  0.67318808  0.00560058  0.00865664  1
  Cu  Cu104  1  0.16609712  0.49817683  0.24797728  1
  Cu  Cu105  1  0.50016671  0.49697007  0.74580576  1
  Cu  Cu106  1  0.67705298  0.67129043  0.49816055  1
  Cu  Cu107  1  0.49798549  0.17358285  0.26033113  1
  Cu  Cu108  1  0.66546001  0.33471804  0.49826820  1
  Cu  Cu109  1  0.83663719  0.82456779  0.74068113  1
  Cu  Cu110  1  0.00165815  0.01855601  0.00651478  1
  Cu  Cu111  1  0.49086670  0.17615655  0.74549945  1
  Cu  Cu112  1  -0.00666165  0.33368351  0.49397498  1
  Cu  Cu113  1  0.83338631  0.83672813  0.25137215  1
  Cu  Cu114  1  0.83431750  0.16807641  0.74484759  1
  Se  Se115  1  0.08908682  0.09364002  0.06145595  1
  Se  Se116  1  0.08404919  0.07809488  0.54632552  1
  Se  Se117  1  0.08388206  0.42726357  0.05300059  1
  Se  Se118  1  0.07499375  0.39999782  0.56278184  1
  Se  Se119  1  0.07804248  0.74532309  0.05534223  1
  Se  Se120  1  0.08825903  0.73002970  0.56393412  1
  Se  Se121  1  0.41751988  0.07350429  0.06074320  1
  Se  Se122  1  0.41477807  0.09132831  0.54660977  1
  Se  Se123  1  0.41783272  0.41302228  0.04818261  1
  Se  Se124  1  0.42169994  0.43320740  0.55729828  1
  Se  Se125  1  0.39771000  0.73683057  0.06093296  1
  Se  Se126  1  0.41093450  0.75778341  0.56073412  1
  Se  Se127  1  0.75655058  0.09106308  0.05738324  1
  Se  Se128  1  0.75392958  0.08901918  0.54948798  1
  Se  Se129  1  0.75106113  0.40410622  0.06687839  1
  Se  Se130  1  0.75353801  0.41521457  0.55105429  1
  Se  Se131  1  0.73120839  0.73622136  0.05941158  1
  Se  Se132  1  0.76227151  0.75742482  0.54554569  1
  Se  Se133  1  0.25552469  0.25094512  0.05135109  1
  Se  Se134  1  0.23077560  0.25205039  0.55800834  1
  Se  Se135  1  0.24328213  0.57406506  0.04461749  1
  Se  Se136  1  0.25502919  0.58998104  0.56519966  1
  Se  Se137  1  0.24316322  0.93099297  0.06389724  1
  Se  Se138  1  0.25776820  0.92122584  0.55425379  1
  Se  Se139  1  0.59107598  0.25473499  0.06417846  1
  Se  Se140  1  0.57964677  0.25289707  0.55117747  1
  Se  Se141  1  0.57263874  0.56824569  0.05291348  1
  Se  Se142  1  0.59481028  0.59389642  0.55599197  1
  Se  Se143  1  0.58805415  0.92612132  0.06432475  1
  Se  Se144  1  0.59518859  0.93241472  0.56295935  1
  Se  Se145  1  0.91921277  0.25955797  0.05527146  1
  Se  Se146  1  0.91242564  0.24781436  0.54942489  1
  Se  Se147  1  0.92555994  0.59142455  0.05874258  1
  Se  Se148  1  0.92148096  0.57226488  0.55093677  1
  Se  Se149  1  0.92693654  0.93060573  0.06505643  1
  Se  Se150  1  0.92143793  0.91143243  0.54766039  1
  Se  Se151  1  0.07965573  0.24880705  0.44569165  1
  Se  Se152  1  0.08690862  0.25090899  0.94686528  1
  Se  Se153  1  0.07981161  0.57024788  0.43640969  1
  Se  Se154  1  0.08202138  0.58323664  0.93459019  1
  Se  Se155  1  0.08453640  0.91908906  0.43252318  1
  Se  Se156  1  0.07298851  0.93091808  0.94471066  1
  Se  Se157  1  0.40771118  0.26037294  0.45710320  1
  Se  Se158  1  0.41156179  0.25421229  0.93394672  1
  Se  Se159  1  0.41904230  0.58205107  0.46334129  1
  Se  Se160  1  0.41921928  0.57251120  0.94467808  1
  Se  Se161  1  0.41704730  0.92373201  0.43767115  1
  Se  Se162  1  0.40213067  0.91350319  0.94110066  1
  Se  Se163  1  0.74977796  0.25020119  0.44690333  1
  Se  Se164  1  0.75494556  0.24984850  0.94530059  1
  Se  Se165  1  0.75524987  0.58075532  0.44769345  1
  Se  Se166  1  0.74457845  0.58430220  0.94333402  1
  Se  Se167  1  0.75017947  0.92076273  0.44581957  1
  Se  Se168  1  0.74839426  0.92377041  0.94492784  1
  Se  Se169  1  0.24505774  0.08546568  0.44427607  1
  Se  Se170  1  0.24835960  0.08898899  0.95023956  1
  Se  Se171  1  0.25336261  0.40538443  0.44512546  1
  Se  Se172  1  0.24658951  0.41612391  0.93868515  1
  Se  Se173  1  0.26147990  0.73381447  0.44916077  1
  Se  Se174  1  0.25121675  0.73943469  0.93503080  1
  Se  Se175  1  0.58032166  0.09033398  0.44416998  1
  Se  Se176  1  0.58965678  0.07726539  0.94371836  1
  Se  Se177  1  0.58287520  0.42529357  0.44957067  1
  Se  Se178  1  0.58611571  0.41144007  0.94903579  1
  Se  Se179  1  0.59409283  0.74749856  0.43752878  1
  Se  Se180  1  0.57807087  0.74235002  0.94084186  1
  Se  Se181  1  0.91571561  0.08380329  0.44563611  1
  Se  Se182  1  0.91325972  0.09551716  0.95338363  1
  Se  Se183  1  0.91423596  0.42065105  0.44232264  1
  Se  Se184  1  0.92598436  0.41394258  0.93565381  1
  Se  Se185  1  0.93106179  0.74504321  0.45007724  1
  Se  Se186  1  0.91647832  0.75120191  0.94172474  1
  Se  Se187  1  0.24152129  0.23751593  0.31044832  1
  Se  Se188  1  0.25218092  0.24779372  0.80143392  1
  Se  Se189  1  0.24793456  0.56773822  0.31372058  1
  Se  Se190  1  0.27506714  0.60181843  0.80350614  1
  Se  Se191  1  0.25599253  0.91217678  0.30461649  1
  Se  Se192  1  0.24618056  0.93265137  0.79739952  1
  Se  Se193  1  0.58117355  0.25970554  0.30979232  1
  Se  Se194  1  0.58210324  0.24857447  0.80060940  1
  Se  Se195  1  0.57954559  0.57950199  0.31368527  1
  Se  Se196  1  0.58348426  0.57618568  0.80828881  1
  Se  Se197  1  0.57779315  0.91353033  0.29803872  1
  Se  Se198  1  0.57923109  0.91280760  0.81545124  1
  Se  Se199  1  0.91814493  0.25096083  0.30928278  1
  Se  Se200  1  0.91574361  0.24946071  0.80134022  1
  Se  Se201  1  0.93048890  0.59869372  0.30262265  1
  Se  Se202  1  0.91564407  0.58345776  0.79692065  1
  Se  Se203  1  0.91657233  0.91857792  0.30543334  1
  Se  Se204  1  0.90951400  0.90647617  0.80631451  1
  Se  Se205  1  0.07488226  0.07610141  0.30108556  1
  Se  Se206  1  0.08487233  0.09202106  0.81151459  1
  Se  Se207  1  0.08609856  0.40862323  0.29736142  1
  Se  Se208  1  0.08706299  0.40915735  0.79630729  1
  Se  Se209  1  0.08658347  0.74321118  0.30525496  1
  Se  Se210  1  0.08476586  0.75708237  0.79579412  1
  Se  Se211  1  0.41175782  0.09015342  0.30970784  1
  Se  Se212  1  0.41749373  0.08379882  0.79921183  1
  Se  Se213  1  0.42163439  0.41989672  0.31522013  1
  Se  Se214  1  0.41732115  0.41418692  0.80144300  1
  Se  Se215  1  0.42656538  0.75029432  0.31312303  1
  Se  Se216  1  0.42102908  0.75699243  0.80004416  1
  Se  Se217  1  0.74678733  0.08401289  0.30589707  1
  Se  Se218  1  0.75821484  0.08640061  0.80922005  1
  Se  Se219  1  0.75218997  0.41640408  0.30286848  1
  Se  Se220  1  0.74846672  0.41310303  0.79772488  1
  Se  Se221  1  0.76000083  0.75407960  0.31525795  1
  Se  Se222  1  0.75226618  0.74719024  0.80064357  1
  Se  Se223  1  0.27157726  0.06601308  0.19720944  1
  Se  Se224  1  0.25446792  0.08733965  0.69151663  1
  Se  Se225  1  0.24863609  0.42011625  0.18766304  1
  Se  Se226  1  0.22765242  0.43830205  0.70016992  1
  Se  Se227  1  0.24214709  0.75573742  0.18878745  1
  Se  Se228  1  0.24549564  0.75482663  0.70628548  1
  Se  Se229  1  0.58131614  0.09042027  0.20465841  1
  Se  Se230  1  0.57309419  0.09471213  0.68539262  1
  Se  Se231  1  0.58328321  0.41714962  0.19972555  1
  Se  Se232  1  0.58469661  0.41257561  0.69495898  1
  Se  Se233  1  0.56846238  0.75064321  0.19285833  1
  Se  Se234  1  0.56974991  0.76235079  0.68289569  1
  Se  Se235  1  0.91746370  0.09219888  0.19800929  1
  Se  Se236  1  0.91171927  0.08592768  0.68491243  1
  Se  Se237  1  0.90870210  0.42952003  0.20329503  1
  Se  Se238  1  0.91630309  0.40934132  0.69326294  1
  Se  Se239  1  0.91473736  0.75380084  0.19553960  1
  Se  Se240  1  0.92017533  0.74224362  0.68960419  1
  Se  Se241  1  0.08916000  0.25705255  0.19389114  1
  Se  Se242  1  0.07383839  0.24123571  0.69649237  1
  Se  Se243  1  0.08754610  0.58864348  0.19646355  1
  Se  Se244  1  0.07585419  0.57739765  0.70418159  1
  Se  Se245  1  0.08028943  0.91740541  0.20537376  1
  Se  Se246  1  0.09032621  0.91235827  0.68398512  1
  Se  Se247  1  0.42198324  0.24577247  0.19087175  1
  Se  Se248  1  0.40997021  0.25686285  0.68934188  1
  Se  Se249  1  0.41473738  0.57307502  0.19484940  1
  Se  Se250  1  0.41627054  0.58539002  0.69847079  1
  Se  Se251  1  0.42421270  0.90111849  0.20308333  1
  Se  Se252  1  0.41195263  0.92573122  0.69651462  1
  Se  Se253  1  0.74914191  0.25106038  0.20214119  1
  Se  Se254  1  0.74723736  0.25080101  0.69501407  1
  Se  Se255  1  0.75611958  0.57592853  0.19488226  1
  Se  Se256  1  0.75858456  0.57318206  0.68118046  1
  Se  Se257  1  0.74662647  0.92034626  0.20164778  1
  Se  Se258  1  0.75584112  0.91436157  0.69059067  1
