# generated using pymatgen
data_In86Cu29Se144
_symmetry_space_group_name_H-M   'P 1'
_cell_length_a   17.58894651
_cell_length_b   17.58602067
_cell_length_c   23.44641430
_cell_angle_alpha   90.00338938
_cell_angle_beta   90.02654712
_cell_angle_gamma   89.99541035
_symmetry_Int_Tables_number   1
_chemical_formula_structural   In86Cu29Se144
_chemical_formula_sum   'In86 Cu29 Se144'
_cell_volume   7252.43413576
_cell_formula_units_Z   1
loop_
 _symmetry_equiv_pos_site_id
 _symmetry_equiv_pos_as_xyz
  1  'x, y, z'
loop_
 _atom_site_type_symbol
 _atom_site_label
 _atom_site_symmetry_multiplicity
 _atom_site_fract_x
 _atom_site_fract_y
 _atom_site_fract_z
 _atom_site_occupancy
  In  In0  1  0.00368609  0.16582733  0.11901578  1
  In  In1  1  -0.01370577  0.16014456  0.62875601  1
  In  In2  1  0.00245906  0.48640295  0.12551213  1
  In  In3  1  0.00267196  0.51493952  0.62539847  1
  In  In4  1  0.01449478  0.84009479  0.11103278  1
  In  In5  1  0.00545431  0.82844835  0.63782731  1
  In  In6  1  0.31901735  0.17583440  0.13108421  1
  In  In7  1  0.35037946  0.16520808  0.62835248  1
  In  In8  1  0.32589729  0.49119157  0.12093506  1
  In  In9  1  0.33485645  0.50493190  0.63577149  1
  In  In10  1  0.33687540  0.83539732  0.11924498  1
  In  In11  1  0.32868564  0.82564777  0.62230972  1
  In  In12  1  0.66904173  0.15107353  0.11366399  1
  In  In13  1  0.66201538  0.17669168  0.63395609  1
  In  In14  1  0.66922904  0.51248547  0.12455881  1
  In  In15  1  0.66145239  0.48721982  0.62551305  1
  In  In16  1  0.65479375  0.83094152  0.11184046  1
  In  In17  1  0.67303351  0.84470661  0.62764862  1
  In  In18  1  0.16330416  -0.00513957  0.36811140  1
  In  In19  1  0.16437612  0.00040297  0.87784951  1
  In  In20  1  0.16953334  0.34079660  0.35692072  1
  In  In21  1  0.17570055  0.32844726  0.87970195  1
  In  In22  1  0.17752291  0.67330172  0.37403711  1
  In  In23  1  0.16249559  0.66762265  0.88401497  1
  In  In24  1  0.49468715  0.00587980  0.38360829  1
  In  In25  1  0.49913213  -0.01102280  0.87685227  1
  In  In26  1  0.48505722  0.33887953  0.37303631  1
  In  In27  1  0.51273623  0.34351398  0.87397152  1
  In  In28  1  0.50999628  0.66790063  0.37422715  1
  In  In29  1  0.48927968  0.67467968  0.87946091  1
  In  In30  1  0.84058840  -0.00814223  0.37059157  1
  In  In31  1  0.83351577  -0.00283145  0.88154642  1
  In  In32  1  0.84424247  0.33465279  0.37072393  1
  In  In33  1  0.81521311  0.33051238  0.87973808  1
  In  In34  1  0.81798108  0.66886119  0.37397142  1
  In  In35  1  0.85851117  0.67613800  0.87523030  1
  In  In36  1  0.00491144  0.17027330  0.36362348  1
  In  In37  1  0.00989713  0.15623283  0.88118610  1
  In  In38  1  0.00203842  0.48782236  0.37250299  1
  In  In39  1  0.00681092  0.52146786  0.87960229  1
  In  In40  1  0.00311946  0.84673083  0.36945801  1
  In  In41  1  -0.00128697  0.82720367  0.88256327  1
  In  In42  1  0.33932243  0.17331218  0.37161792  1
  In  In43  1  0.31858703  0.16805649  0.87583530  1
  In  In44  1  0.34296943  0.49553653  0.36468963  1
  In  In45  1  0.33565982  0.50162314  0.87946396  1
  In  In46  1  0.32699721  0.84051125  0.38216005  1
  In  In47  1  0.33286673  0.83077079  0.87842033  1
  In  In48  1  0.66253909  0.15420521  0.37564693  1
  In  In49  1  0.67548482  0.17210730  0.87758928  1
  In  In50  1  0.66314050  0.52848983  0.37464227  1
  In  In51  1  0.66602538  0.48365226  0.87877002  1
  In  In52  1  0.66125640  0.81670612  0.37359843  1
  In  In53  1  0.65839873  0.84808158  0.88480181  1
  In  In54  1  0.16609746  -0.00054895  0.12231379  1
  In  In55  1  0.16846041  -0.02144182  0.63193698  1
  In  In56  1  0.16913714  0.33293084  0.12187297  1
  In  In57  1  0.17092501  0.35047430  0.62940736  1
  In  In58  1  0.15717429  0.65995568  0.10629267  1
  In  In59  1  0.16077664  0.68444651  0.63975396  1
  In  In60  1  0.49731565  -0.01473496  0.12305265  1
  In  In61  1  0.50826412  0.00772958  0.62292042  1
  In  In62  1  0.48452822  0.33246419  0.12756911  1
  In  In63  1  0.50568379  0.33193448  0.63286381  1
  In  In64  1  0.50677342  0.67099244  0.11864547  1
  In  In65  1  0.48714403  0.65973515  0.62693620  1
  In  In66  1  0.83892726  0.01148390  0.11227989  1
  In  In67  1  0.83651234  -0.00676342  0.63887626  1
  In  In68  1  0.84697601  0.33581487  0.12034522  1
  In  In69  1  0.82207891  0.32918028  0.62491647  1
  In  In70  1  0.81774851  0.66343030  0.12266353  1
  In  In71  1  0.84329809  0.67420512  0.62536415  1
  In  In72  1  -0.00204127  0.66249751  0.23461889  1
  In  In73  1  0.32959438  -0.00422318  0.75613906  1
  In  In74  1  0.82779074  0.83230939  0.50012078  1
  In  In75  1  0.83499468  0.50086458  -0.00389981  1
  In  In76  1  0.50088513  0.50292378  0.49613345  1
  In  In77  1  0.82835824  0.16282402  0.49781710  1
  In  In78  1  0.66718495  0.33387190  0.24294778  1
  In  In79  1  0.00219665  0.33176533  0.75523997  1
  In  In80  1  0.16961760  0.16429772  0.49937275  1
  In  In81  1  0.17083614  0.50815740  0.49316055  1
  In  In82  1  0.66848919  -0.00531936  0.24623223  1
  In  In83  1  0.33095789  0.66477112  0.24539621  1
  In  In84  1  0.66992763  0.66540596  0.74945075  1
  In  In85  1  0.49772469  0.16834115  0.00321560  1
  Cu  Cu86  1  0.66156703  0.33283706  0.50461573  1
  Cu  Cu87  1  0.83064492  0.16032069  0.75604075  1
  Cu  Cu88  1  0.83024906  0.50325551  0.24760183  1
  Cu  Cu89  1  0.50346994  0.17153273  0.75196610  1
  Cu  Cu90  1  -0.00197901  0.33876817  0.49078247  1
  Cu  Cu91  1  0.49732180  0.49973623  0.75450080  1
  Cu  Cu92  1  0.32738436  -0.00204358  0.00000257  1
  Cu  Cu93  1  0.00134341  0.00131517  -0.00219592  1
  Cu  Cu94  1  0.66092928  0.00151172  0.50437699  1
  Cu  Cu95  1  0.33990645  0.32884492  0.49896503  1
  Cu  Cu96  1  0.33864037  -0.00453500  0.50414781  1
  Cu  Cu97  1  0.17635433  0.50727003  0.75607709  1
  Cu  Cu98  1  0.16639894  0.16712191  0.75498860  1
  Cu  Cu99  1  0.84493329  0.16784160  0.24110948  1
  Cu  Cu100  1  0.49296789  0.16276017  0.25268956  1
  Cu  Cu101  1  0.32891835  0.67522687  0.50396324  1
  Cu  Cu102  1  0.33960527  0.66596541  0.00025629  1
  Cu  Cu103  1  0.83471992  0.83500022  0.75778043  1
  Cu  Cu104  1  0.16710783  0.83499338  0.24413470  1
  Cu  Cu105  1  0.50038239  0.83570353  0.75510027  1
  Cu  Cu106  1  0.49842556  0.83028673  0.24366517  1
  Cu  Cu107  1  0.83683643  0.49753910  0.75754710  1
  Cu  Cu108  1  -0.00352909  0.67305152  0.50544510  1
  Cu  Cu109  1  0.00745229  -0.00741699  0.49949266  1
  Cu  Cu110  1  0.66583399  0.66800485  -0.00570962  1
  Cu  Cu111  1  0.83556326  0.83621987  0.24658109  1
  Cu  Cu112  1  0.33044028  0.33485624  0.00161666  1
  Cu  Cu113  1  0.16346715  0.16029378  0.24331992  1
  Cu  Cu114  1  0.00383252  0.32995642  -0.00196822  1
  Se  Se115  1  0.08761275  0.08339820  0.05090340  1
  Se  Se116  1  0.07917185  0.07755137  0.56211153  1
  Se  Se117  1  0.08496929  0.41498033  0.05112322  1
  Se  Se118  1  0.07806135  0.41583930  0.55335095  1
  Se  Se119  1  0.07503300  0.74326910  0.04121919  1
  Se  Se120  1  0.08036003  0.75206225  0.56074333  1
  Se  Se121  1  0.40532003  0.07917138  0.06270195  1
  Se  Se122  1  0.42000579  0.08480234  0.55298811  1
  Se  Se123  1  0.41755247  0.41639899  0.05164984  1
  Se  Se124  1  0.41152054  0.41618952  0.56030589  1
  Se  Se125  1  0.42144620  0.75343901  0.05196843  1
  Se  Se126  1  0.42096451  0.75040365  0.55501975  1
  Se  Se127  1  0.74680430  0.07699485  0.04109507  1
  Se  Se128  1  0.74717547  0.07505571  0.56517406  1
  Se  Se129  1  0.74631103  0.41391154  0.05928764  1
  Se  Se130  1  0.74919918  0.41527349  0.55349687  1
  Se  Se131  1  0.74824498  0.74921635  0.04969166  1
  Se  Se132  1  0.73956428  0.74182317  0.55987718  1
  Se  Se133  1  0.24740995  0.24664156  0.05044646  1
  Se  Se134  1  0.25504257  0.25814552  0.56190349  1
  Se  Se135  1  0.25483222  0.58021109  0.04947961  1
  Se  Se136  1  0.25157655  0.59128450  0.56404430  1
  Se  Se137  1  0.24563169  0.91226057  0.05312458  1
  Se  Se138  1  0.25034095  0.91473809  0.55412054  1
  Se  Se139  1  0.58713629  0.25842851  0.06339227  1
  Se  Se140  1  0.58051124  0.24994554  0.55862417  1
  Se  Se141  1  0.58669048  0.58388822  0.04983320  1
  Se  Se142  1  0.58869203  0.58842768  0.56077333  1
  Se  Se143  1  0.58586093  0.92906329  0.04807752  1
  Se  Se144  1  0.58276339  0.91332861  0.55663750  1
  Se  Se145  1  0.91770637  0.24825077  0.04964835  1
  Se  Se146  1  0.92333342  0.25698389  0.55386061  1
  Se  Se147  1  0.92062155  0.58460105  0.06283674  1
  Se  Se148  1  0.91474392  0.58512692  0.55371551  1
  Se  Se149  1  0.91788415  0.91738423  0.04990766  1
  Se  Se150  1  0.92029609  0.92018422  0.56007823  1
  Se  Se151  1  0.08369856  0.25835750  0.43712373  1
  Se  Se152  1  0.08922087  0.24682233  0.94582631  1
  Se  Se153  1  0.07281120  0.59647951  0.43779430  1
  Se  Se154  1  0.08888925  0.58099896  0.95724461  1
  Se  Se155  1  0.08975495  0.91274038  0.44426665  1
  Se  Se156  1  0.08527597  0.91607605  0.94683582  1
  Se  Se157  1  0.42276017  0.24656418  0.44627376  1
  Se  Se158  1  0.41004092  0.25566871  0.93913041  1
  Se  Se159  1  0.40236807  0.59186147  0.44050032  1
  Se  Se160  1  0.42360066  0.58006371  0.94895196  1
  Se  Se161  1  0.42115649  0.91181977  0.44947292  1
  Se  Se162  1  0.41327977  0.91666110  0.94762473  1
  Se  Se163  1  0.74138919  0.25745269  0.43832623  1
  Se  Se164  1  0.74533534  0.25177881  0.95475360  1
  Se  Se165  1  0.75324666  0.58464452  0.44886261  1
  Se  Se166  1  0.74880114  0.59207549  0.93219102  1
  Se  Se167  1  0.73970956  0.92619953  0.43873784  1
  Se  Se168  1  0.75853833  0.90791076  0.95025414  1
  Se  Se169  1  0.25900993  0.07432073  0.44048612  1
  Se  Se170  1  0.24622286  0.08381455  0.94771307  1
  Se  Se171  1  0.25874934  0.40793551  0.43882690  1
  Se  Se172  1  0.24859233  0.41963847  0.94749267  1
  Se  Se173  1  0.24335541  0.75554374  0.45016554  1
  Se  Se174  1  0.25342779  0.74975840  0.94968897  1
  Se  Se175  1  0.58064559  0.08799842  0.45173158  1
  Se  Se176  1  0.58361166  0.08073067  0.94013968  1
  Se  Se177  1  0.59071116  0.41189507  0.43618768  1
  Se  Se178  1  0.58340422  0.41643742  0.95324615  1
  Se  Se179  1  0.58322575  0.74584954  0.44843680  1
  Se  Se180  1  0.57864145  0.75328764  0.94580294  1
  Se  Se181  1  0.92839059  0.07657768  0.44092793  1
  Se  Se182  1  0.91563327  0.08688773  0.94799996  1
  Se  Se183  1  0.91010060  0.42303420  0.44509979  1
  Se  Se184  1  0.92576954  0.41011509  0.93443509  1
  Se  Se185  1  0.92264910  0.74985204  0.43690313  1
  Se  Se186  1  0.92124325  0.74695103  0.95783505  1
  Se  Se187  1  0.24646481  0.24050929  0.30138694  1
  Se  Se188  1  0.25098960  0.25406169  0.80086223  1
  Se  Se189  1  0.23886673  0.57320328  0.30516856  1
  Se  Se190  1  0.25293266  0.58985223  0.81410110  1
  Se  Se191  1  0.25061005  0.91126994  0.30297541  1
  Se  Se192  1  0.23642938  0.90348267  0.80753545  1
  Se  Se193  1  0.58001915  0.24249823  0.30806800  1
  Se  Se194  1  0.58816198  0.25104592  0.80787425  1
  Se  Se195  1  0.56525329  0.57389844  0.30182612  1
  Se  Se196  1  0.58079030  0.57975540  0.81334583  1
  Se  Se197  1  0.57601405  0.91090196  0.30874531  1
  Se  Se198  1  0.58575697  0.91996341  0.80318387  1
  Se  Se199  1  0.92022659  0.25410130  0.29790984  1
  Se  Se200  1  0.91140874  0.24378407  0.81500468  1
  Se  Se201  1  0.91247905  0.58354694  0.30781554  1
  Se  Se202  1  0.92231226  0.58513893  0.80161708  1
  Se  Se203  1  0.92085311  0.92062450  0.29543731  1
  Se  Se204  1  0.91889794  0.91512459  0.81284640  1
  Se  Se205  1  0.08086949  0.07816967  0.29993519  1
  Se  Se206  1  0.08496236  0.08098376  0.80416075  1
  Se  Se207  1  0.07654987  0.41747638  0.29581387  1
  Se  Se208  1  0.09085521  0.42532794  0.81252975  1
  Se  Se209  1  0.08595276  0.75156176  0.30217672  1
  Se  Se210  1  0.07046864  0.73568214  0.81355433  1
  Se  Se211  1  0.41466338  0.07691559  0.30732081  1
  Se  Se212  1  0.42192793  0.09141350  0.81164230  1
  Se  Se213  1  0.41231961  0.40829322  0.29460869  1
  Se  Se214  1  0.41614507  0.41555835  0.80911118  1
  Se  Se215  1  0.41749870  0.75539755  0.30828491  1
  Se  Se216  1  0.41437255  0.75331981  0.80436186  1
  Se  Se217  1  0.76214794  0.09106611  0.30337150  1
  Se  Se218  1  0.74847725  0.07852303  0.81067431  1
  Se  Se219  1  0.75044198  0.42329620  0.30987531  1
  Se  Se220  1  0.74882357  0.41377149  0.80250657  1
  Se  Se221  1  0.75081811  0.75438334  0.29892742  1
  Se  Se222  1  0.75194787  0.75377046  0.81565165  1
  Se  Se223  1  0.25085848  0.07586980  0.19522130  1
  Se  Se224  1  0.24545826  0.08896518  0.68987705  1
  Se  Se225  1  0.25743919  0.40433109  0.19346588  1
  Se  Se226  1  0.25470508  0.41813679  0.70359567  1
  Se  Se227  1  0.23839654  0.74928240  0.18279493  1
  Se  Se228  1  0.26023101  0.75247608  0.70146063  1
  Se  Se229  1  0.57477815  0.08793971  0.19086816  1
  Se  Se230  1  0.58428207  0.08466662  0.69888288  1
  Se  Se231  1  0.57642253  0.42529344  0.18852279  1
  Se  Se232  1  0.58411026  0.41725046  0.70270014  1
  Se  Se233  1  0.58649437  0.75242177  0.19156392  1
  Se  Se234  1  0.57692495  0.75527122  0.69088719  1
  Se  Se235  1  0.92183074  0.07956721  0.18863636  1
  Se  Se236  1  0.91857966  0.08002328  0.70505394  1
  Se  Se237  1  0.91333254  0.41728933  0.19800895  1
  Se  Se238  1  0.91481107  0.41934411  0.69050843  1
  Se  Se239  1  0.91078893  0.75948171  0.18058806  1
  Se  Se240  1  0.91460221  0.74880830  0.70298761  1
  Se  Se241  1  0.08410567  0.24782998  0.18994780  1
  Se  Se242  1  0.08973557  0.24449781  0.68773761  1
  Se  Se243  1  0.09815264  0.57196593  0.18825583  1
  Se  Se244  1  0.08816433  0.58169618  0.69878972  1
  Se  Se245  1  0.08115151  0.91624488  0.19178634  1
  Se  Se246  1  0.06865503  0.92958099  0.70159920  1
  Se  Se247  1  0.41213210  0.24769377  0.19963222  1
  Se  Se248  1  0.41664211  0.25381335  0.70077217  1
  Se  Se249  1  0.42047850  0.58048491  0.18405086  1
  Se  Se250  1  0.41454584  0.58780763  0.70602164  1
  Se  Se251  1  0.41176178  0.91436163  0.19617054  1
  Se  Se252  1  0.42235232  0.91595815  0.69089262  1
  Se  Se253  1  0.75519413  0.23959372  0.18403510  1
  Se  Se254  1  0.75413592  0.24976630  0.70196266  1
  Se  Se255  1  0.74457927  0.58898374  0.20134184  1
  Se  Se256  1  0.75959104  0.57356707  0.68999859  1
  Se  Se257  1  0.75597263  0.91191787  0.18153216  1
  Se  Se258  1  0.74743426  0.91624835  0.70609879  1
