# generated using pymatgen
data_In86Cu29Se144
_symmetry_space_group_name_H-M   'P 1'
_cell_length_a   17.59115353
_cell_length_b   17.59201707
_cell_length_c   23.45292939
_cell_angle_alpha   89.97713811
_cell_angle_beta   90.00234878
_cell_angle_gamma   90.01404994
_symmetry_Int_Tables_number   1
_chemical_formula_structural   In86Cu29Se144
_chemical_formula_sum   'In86 Cu29 Se144'
_cell_volume   7257.83356282
_cell_formula_units_Z   1
loop_
 _symmetry_equiv_pos_site_id
 _symmetry_equiv_pos_as_xyz
  1  'x, y, z'
loop_
 _atom_site_type_symbol
 _atom_site_label
 _atom_site_symmetry_multiplicity
 _atom_site_fract_x
 _atom_site_fract_y
 _atom_site_fract_z
 _atom_site_occupancy
  In  In0  1  -0.00569421  0.16168328  0.11550418  1
  In  In1  1  -0.00928523  0.17691823  0.63416726  1
  In  In2  1  -0.00149880  0.50525286  0.11536410  1
  In  In3  1  -0.00948068  0.50622934  0.63300303  1
  In  In4  1  0.01241711  0.83144769  0.12648714  1
  In  In5  1  -0.01041880  0.82103297  0.61920445  1
  In  In6  1  0.33183170  0.16216679  0.10835774  1
  In  In7  1  0.33781994  0.16705508  0.63928887  1
  In  In8  1  0.32799826  0.51282223  0.11874221  1
  In  In9  1  0.34936713  0.49223492  0.64726431  1
  In  In10  1  0.33779293  0.83081452  0.11381363  1
  In  In11  1  0.32904184  0.83534927  0.62966777  1
  In  In12  1  0.66864121  0.16340101  0.10960919  1
  In  In13  1  0.67609014  0.16028503  0.63365952  1
  In  In14  1  0.67523571  0.49817875  0.12294886  1
  In  In15  1  0.66663586  0.50209729  0.62330098  1
  In  In16  1  0.65712558  0.83106901  0.12718940  1
  In  In17  1  0.67524771  0.82564636  0.62501319  1
  In  In18  1  0.15030847  0.00251424  0.37121727  1
  In  In19  1  0.17840277  -0.00807672  0.88254377  1
  In  In20  1  0.15446519  0.33765191  0.37673949  1
  In  In21  1  0.16505569  0.33555463  0.87553966  1
  In  In22  1  0.18294563  0.67329824  0.38015740  1
  In  In23  1  0.16398600  0.66767050  0.87253277  1
  In  In24  1  0.50776426  0.00164875  0.37531577  1
  In  In25  1  0.49936911  -0.00002814  0.87139849  1
  In  In26  1  0.51511497  0.34025181  0.38124192  1
  In  In27  1  0.49039429  0.32813053  0.86066726  1
  In  In28  1  0.49269178  0.66045059  0.37882312  1
  In  In29  1  0.50969108  0.66664978  0.85800889  1
  In  In30  1  0.84495045  -0.01747098  0.39289077  1
  In  In31  1  0.83118659  0.01078411  0.87480199  1
  In  In32  1  0.81103729  0.35230905  0.40100270  1
  In  In33  1  0.83657495  0.33318070  0.86885695  1
  In  In34  1  0.80774272  0.68593064  0.40353972  1
  In  In35  1  0.82135828  0.65495964  0.86429970  1
  In  In36  1  -0.00758220  0.15502076  0.36947352  1
  In  In37  1  -0.00832343  0.17687902  0.88115734  1
  In  In38  1  -0.00556015  0.49406356  0.37081830  1
  In  In39  1  -0.00165524  0.49885000  0.87079105  1
  In  In40  1  -0.00788666  0.84287446  0.37902333  1
  In  In41  1  0.01056568  0.83372369  0.87769197  1
  In  In42  1  0.34124122  0.16517806  0.37416655  1
  In  In43  1  0.33622078  0.16614641  0.87518812  1
  In  In44  1  0.33648694  0.51318447  0.38103153  1
  In  In45  1  0.32636655  0.49165113  0.86182969  1
  In  In46  1  0.33606331  0.81842849  0.38312750  1
  In  In47  1  0.33372831  0.83487435  0.87138090  1
  In  In48  1  0.67432649  0.17044390  0.38555854  1
  In  In49  1  0.66686182  0.16717497  0.86923517  1
  In  In50  1  0.64383650  0.51865135  0.40628659  1
  In  In51  1  0.67326878  0.50356084  0.86260522  1
  In  In52  1  0.68076483  0.83441458  0.37383440  1
  In  In53  1  0.65393094  0.82304420  0.86473630  1
  In  In54  1  0.16042291  -0.00488476  0.11778518  1
  In  In55  1  0.17789082  -0.00479860  0.63063026  1
  In  In56  1  0.17086575  0.33962467  0.11189988  1
  In  In57  1  0.16854932  0.33090372  0.63778053  1
  In  In58  1  0.16246747  0.66764115  0.11080021  1
  In  In59  1  0.16167013  0.66889429  0.63212709  1
  In  In60  1  0.49999455  -0.00720197  0.11301428  1
  In  In61  1  0.50253729  -0.00286771  0.63452850  1
  In  In62  1  0.51558660  0.32985708  0.11674140  1
  In  In63  1  0.49869017  0.34735917  0.64088136  1
  In  In64  1  0.50283068  0.67273826  0.12118923  1
  In  In65  1  0.51967651  0.64256941  0.64860355  1
  In  In66  1  0.82918134  0.01339302  0.12574341  1
  In  In67  1  0.81801799  -0.01162289  0.61083480  1
  In  In68  1  0.83610424  0.33603912  0.11396484  1
  In  In69  1  0.82888748  0.33641860  0.62699396  1
  In  In70  1  0.83735120  0.65852934  0.12414052  1
  In  In71  1  0.82941059  0.66762067  0.61944856  1
  In  In72  1  0.16573803  0.50413364  0.50155289  1
  In  In73  1  -0.00233704  0.00097606  0.75741007  1
  In  In74  1  0.16233245  0.16046451  0.50812503  1
  In  In75  1  0.33362917  0.32984793  0.23766918  1
  In  In76  1  0.83290175  0.83303274  0.00457411  1
  In  In77  1  0.50529359  0.17406669  0.51335218  1
  In  In78  1  0.67649571  -0.00633715  0.25617198  1
  In  In79  1  0.50494463  0.82687714  0.51056602  1
  In  In80  1  0.49329826  0.49409426  -0.01437064  1
  In  In81  1  0.33593107  0.66682379  0.25055044  1
  In  In82  1  -0.00568036  0.33395396  0.25231308  1
  In  In83  1  0.32515105  -0.01215364  0.23159982  1
  In  In84  1  0.67248492  0.32912704  0.25807606  1
  In  In85  1  -0.00248784  0.66971540  0.24928959  1
  Cu  Cu86  1  0.00601565  0.00396136  -0.00423665  1
  Cu  Cu87  1  0.32757416  -0.00626615  0.50398231  1
  Cu  Cu88  1  0.34004250  0.00096783  -0.00590408  1
  Cu  Cu89  1  0.83861098  0.17088598  0.24808920  1
  Cu  Cu90  1  0.82806537  0.82841550  0.74498863  1
  Cu  Cu91  1  0.17057389  0.16757656  0.75783829  1
  Cu  Cu92  1  0.00480769  0.67077103  0.50643254  1
  Cu  Cu93  1  -0.00508535  0.66210118  -0.00549417  1
  Cu  Cu94  1  0.16882115  0.83712206  0.24856581  1
  Cu  Cu95  1  -0.00328177  0.33072974  0.50896038  1
  Cu  Cu96  1  0.32916832  0.67015387  -0.00756897  1
  Cu  Cu97  1  0.16223140  0.50057901  0.75230994  1
  Cu  Cu98  1  0.50309483  0.49572888  0.26036300  1
  Cu  Cu99  1  0.66420736  -0.00224901  -0.00591778  1
  Cu  Cu100  1  0.66263846  0.66052035  -0.01250661  1
  Cu  Cu101  1  0.83931369  0.49671193  0.74396404  1
  Cu  Cu102  1  0.83095699  0.16705562  0.75121347  1
  Cu  Cu103  1  0.16268682  0.83272936  0.75346271  1
  Cu  Cu104  1  0.00036836  0.33718730  -0.00531367  1
  Cu  Cu105  1  0.49548392  0.84231855  0.74779671  1
  Cu  Cu106  1  0.67222622  0.32707542  -0.00875597  1
  Cu  Cu107  1  0.15847494  0.17531721  0.24885824  1
  Cu  Cu108  1  0.33853224  0.66287238  0.51089283  1
  Cu  Cu109  1  0.50143192  0.16801420  0.75243750  1
  Cu  Cu110  1  0.33428057  0.33431738  -0.01183962  1
  Cu  Cu111  1  0.33965521  0.34054955  0.51153219  1
  Cu  Cu112  1  0.00115806  -0.00172734  0.49943749  1
  Cu  Cu113  1  0.82658635  0.50860342  0.25071936  1
  Cu  Cu114  1  0.50341306  0.15364720  0.24429179  1
  Se  Se115  1  0.08888628  0.08842440  0.04981310  1
  Se  Se116  1  0.07236530  0.07320950  0.56930825  1
  Se  Se117  1  0.08224420  0.42204572  0.04896860  1
  Se  Se118  1  0.08241601  0.41025384  0.56370978  1
  Se  Se119  1  0.07530258  0.75030812  0.04681720  1
  Se  Se120  1  0.09185786  0.75249600  0.55576198  1
  Se  Se121  1  0.42576366  0.08452229  0.04680997  1
  Se  Se122  1  0.40709409  0.07644672  0.56199294  1
  Se  Se123  1  0.40922965  0.40853271  0.05920118  1
  Se  Se124  1  0.41982021  0.42427044  0.56417225  1
  Se  Se125  1  0.41839984  0.74387726  0.04805357  1
  Se  Se126  1  0.41867279  0.73946252  0.57265664  1
  Se  Se127  1  0.75331122  0.07903877  0.04464482  1
  Se  Se128  1  0.75514561  0.09692349  0.55357138  1
  Se  Se129  1  0.74554674  0.41445239  0.04915341  1
  Se  Se130  1  0.76505339  0.43254535  0.55835062  1
  Se  Se131  1  0.73905898  0.73708414  0.05530614  1
  Se  Se132  1  0.75373533  0.75403034  0.54917491  1
  Se  Se133  1  0.25113745  0.25294821  0.04600365  1
  Se  Se134  1  0.25843210  0.25354378  0.56246343  1
  Se  Se135  1  0.24681855  0.58371806  0.04441848  1
  Se  Se136  1  0.25580514  0.58047499  0.56845035  1
  Se  Se137  1  0.25609384  0.92196711  0.05281926  1
  Se  Se138  1  0.24485709  0.91087947  0.55503564  1
  Se  Se139  1  0.58419011  0.24619968  0.04291637  1
  Se  Se140  1  0.58922805  0.26235302  0.57489564  1
  Se  Se141  1  0.58381759  0.57931865  0.05143048  1
  Se  Se142  1  0.58460580  0.59188046  0.55843467  1
  Se  Se143  1  0.58793837  0.90989976  0.04903005  1
  Se  Se144  1  0.59126370  0.92729187  0.56126468  1
  Se  Se145  1  0.91775074  0.25149706  0.04825249  1
  Se  Se146  1  0.91185501  0.24753712  0.55850163  1
  Se  Se147  1  0.90943619  0.58087738  0.04746447  1
  Se  Se148  1  0.92160408  0.58405282  0.55506999  1
  Se  Se149  1  0.92556067  0.92601341  0.06055314  1
  Se  Se150  1  0.91757608  0.91352061  0.55118103  1
  Se  Se151  1  0.07448253  0.25074188  0.44553503  1
  Se  Se152  1  0.08568937  0.25095273  0.94655019  1
  Se  Se153  1  0.07718972  0.59246121  0.43756868  1
  Se  Se154  1  0.08100648  0.58246815  0.94092975  1
  Se  Se155  1  0.08732324  0.91707437  0.44682715  1
  Se  Se156  1  0.08770231  0.91404772  0.94961693  1
  Se  Se157  1  0.41129523  0.25692201  0.44598022  1
  Se  Se158  1  0.42304521  0.25186089  0.94146293  1
  Se  Se159  1  0.41949484  0.58033959  0.45551096  1
  Se  Se160  1  0.40864091  0.59114928  0.93005830  1
  Se  Se161  1  0.41546717  0.92078790  0.44436311  1
  Se  Se162  1  0.41984242  0.91438453  0.94153888  1
  Se  Se163  1  0.74044070  0.25322340  0.46015332  1
  Se  Se164  1  0.75598847  0.24556358  0.93779722  1
  Se  Se165  1  0.77070115  0.55931461  0.45059020  1
  Se  Se166  1  0.74977710  0.57569305  0.94158731  1
  Se  Se167  1  0.73353992  0.92628617  0.44875140  1
  Se  Se168  1  0.74456155  0.91360776  0.93586399  1
  Se  Se169  1  0.25528589  0.07822138  0.44136433  1
  Se  Se170  1  0.25306119  0.08640972  0.94719215  1
  Se  Se171  1  0.25714133  0.40762849  0.44317841  1
  Se  Se172  1  0.25044760  0.42247839  0.94200253  1
  Se  Se173  1  0.25496942  0.74766149  0.45846894  1
  Se  Se174  1  0.24637343  0.75439678  0.94041237  1
  Se  Se175  1  0.58684823  0.07914836  0.44974360  1
  Se  Se176  1  0.58509248  0.08296319  0.93950305  1
  Se  Se177  1  0.58324194  0.40778006  0.46168257  1
  Se  Se178  1  0.59098770  0.40793644  0.93146915  1
  Se  Se179  1  0.58687604  0.74608314  0.44009369  1
  Se  Se180  1  0.57683632  0.74377228  0.93902963  1
  Se  Se181  1  0.91906033  0.08717757  0.44990026  1
  Se  Se182  1  0.91607829  0.08305652  0.94673176  1
  Se  Se183  1  0.92648380  0.41820519  0.44960822  1
  Se  Se184  1  0.91460431  0.41742658  0.94112375  1
  Se  Se185  1  0.92301943  0.75326277  0.45065531  1
  Se  Se186  1  0.91300004  0.74421458  0.93593045  1
  Se  Se187  1  0.24304751  0.24653976  0.30982994  1
  Se  Se188  1  0.25306981  0.25319376  0.80846790  1
  Se  Se189  1  0.24152181  0.57428699  0.30633614  1
  Se  Se190  1  0.24595603  0.58719449  0.80141617  1
  Se  Se191  1  0.25046753  0.91079506  0.31312560  1
  Se  Se192  1  0.24810234  0.91839377  0.80257399  1
  Se  Se193  1  0.57376977  0.23490561  0.30970366  1
  Se  Se194  1  0.58878384  0.25316048  0.79899931  1
  Se  Se195  1  0.58312084  0.57770022  0.31572576  1
  Se  Se196  1  0.57786341  0.56846272  0.79264815  1
  Se  Se197  1  0.57543228  0.90550466  0.30715013  1
  Se  Se198  1  0.58478241  0.92148308  0.80025085  1
  Se  Se199  1  0.90147196  0.25493594  0.31683934  1
  Se  Se200  1  0.92073538  0.24776287  0.80030867  1
  Se  Se201  1  0.90764200  0.58569900  0.31191637  1
  Se  Se202  1  0.91809643  0.58336378  0.79988179  1
  Se  Se203  1  0.91800213  0.92655187  0.30832523  1
  Se  Se204  1  0.90513251  0.90465329  0.81170928  1
  Se  Se205  1  0.07848871  0.08490068  0.29705440  1
  Se  Se206  1  0.08945305  0.08759298  0.81769959  1
  Se  Se207  1  0.09467251  0.42888079  0.30006026  1
  Se  Se208  1  0.08095418  0.41294914  0.80337545  1
  Se  Se209  1  0.09356860  0.75527795  0.31125891  1
  Se  Se210  1  0.07703680  0.74888653  0.80290269  1
  Se  Se211  1  0.41556263  0.07702189  0.29956332  1
  Se  Se212  1  0.41549312  0.08396154  0.80307774  1
  Se  Se213  1  0.41604977  0.41393638  0.31226501  1
  Se  Se214  1  0.42594837  0.42833164  0.79706749  1
  Se  Se215  1  0.42752264  0.75913220  0.30584853  1
  Se  Se216  1  0.41711835  0.75455075  0.80110403  1
  Se  Se217  1  0.75769980  0.09472506  0.31083204  1
  Se  Se218  1  0.74787034  0.07928207  0.80007445  1
  Se  Se219  1  0.75251352  0.42826824  0.31418401  1
  Se  Se220  1  0.75531408  0.41463317  0.79815473  1
  Se  Se221  1  0.76170489  0.74728055  0.31036207  1
  Se  Se222  1  0.74327391  0.74471219  0.79814680  1
  Se  Se223  1  0.24098723  0.09783576  0.18728445  1
  Se  Se224  1  0.24877465  0.08294482  0.70141830  1
  Se  Se225  1  0.24264471  0.42763580  0.18899572  1
  Se  Se226  1  0.24961725  0.41425660  0.70506817  1
  Se  Se227  1  0.24408828  0.75449537  0.18695236  1
  Se  Se228  1  0.24632603  0.75243326  0.69885051  1
  Se  Se229  1  0.58772892  0.07939460  0.18519609  1
  Se  Se230  1  0.58441336  0.08333493  0.69992684  1
  Se  Se231  1  0.57960005  0.41833250  0.19615308  1
  Se  Se232  1  0.57851105  0.44137783  0.70313394  1
  Se  Se233  1  0.58897808  0.73713029  0.19447068  1
  Se  Se234  1  0.58247007  0.76034424  0.69675867  1
  Se  Se235  1  0.91944987  0.08787726  0.19426005  1
  Se  Se236  1  0.90549808  0.07869012  0.69164544  1
  Se  Se237  1  0.90651677  0.42786771  0.19046061  1
  Se  Se238  1  0.92332135  0.40674204  0.69732700  1
  Se  Se239  1  0.90885245  0.76054783  0.18924947  1
  Se  Se240  1  0.91348145  0.74552594  0.69437545  1
  Se  Se241  1  0.08491722  0.25430197  0.18497288  1
  Se  Se242  1  0.08490343  0.24468695  0.70196665  1
  Se  Se243  1  0.08839584  0.58267839  0.18731798  1
  Se  Se244  1  0.07936105  0.58459532  0.69934423  1
  Se  Se245  1  0.08587056  0.92091789  0.19640927  1
  Se  Se246  1  0.07953821  0.91021995  0.69195267  1
  Se  Se247  1  0.42873215  0.23739514  0.18381231  1
  Se  Se248  1  0.41618802  0.25574866  0.70389972  1
  Se  Se249  1  0.42692810  0.57098268  0.19354813  1
  Se  Se250  1  0.39157784  0.61460667  0.69860563  1
  Se  Se251  1  0.43060782  0.90085103  0.18816195  1
  Se  Se252  1  0.40685244  0.92412711  0.69815308  1
  Se  Se253  1  0.75487805  0.24471560  0.18629405  1
  Se  Se254  1  0.74972622  0.25432538  0.69992642  1
  Se  Se255  1  0.74455144  0.58730905  0.19376986  1
  Se  Se256  1  0.75595248  0.58253893  0.69236850  1
  Se  Se257  1  0.76058465  0.90836222  0.18887381  1
  Se  Se258  1  0.75001634  0.91826316  0.69374252  1
