# generated using pymatgen
data_In86Cu29Se144
_symmetry_space_group_name_H-M   'P 1'
_cell_length_a   17.59101857
_cell_length_b   17.59345518
_cell_length_c   23.46283808
_cell_angle_alpha   89.99420010
_cell_angle_beta   89.97864559
_cell_angle_gamma   90.01174030
_symmetry_Int_Tables_number   1
_chemical_formula_structural   In86Cu29Se144
_chemical_formula_sum   'In86 Cu29 Se144'
_cell_volume   7261.43790536
_cell_formula_units_Z   1
loop_
 _symmetry_equiv_pos_site_id
 _symmetry_equiv_pos_as_xyz
  1  'x, y, z'
loop_
 _atom_site_type_symbol
 _atom_site_label
 _atom_site_symmetry_multiplicity
 _atom_site_fract_x
 _atom_site_fract_y
 _atom_site_fract_z
 _atom_site_occupancy
  In  In0  1  0.00955836  0.17473093  0.11774896  1
  In  In1  1  0.01695287  0.16515912  0.62825403  1
  In  In2  1  0.00118489  0.50020850  0.11776786  1
  In  In3  1  -0.00013195  0.49719489  0.62665794  1
  In  In4  1  0.00871791  0.82950679  0.12324618  1
  In  In5  1  0.00459449  0.83143718  0.61707964  1
  In  In6  1  0.32400668  0.15974142  0.11212662  1
  In  In7  1  0.31904365  0.17899804  0.63778601  1
  In  In8  1  0.34499777  0.50196414  0.11153405  1
  In  In9  1  0.33334179  0.49789144  0.62289061  1
  In  In10  1  0.33601727  0.83444689  0.12283253  1
  In  In11  1  0.32518757  0.83983500  0.63335753  1
  In  In12  1  0.67013043  0.17182839  0.11783582  1
  In  In13  1  0.67434624  0.16998968  0.62439169  1
  In  In14  1  0.65905632  0.49579995  0.12503395  1
  In  In15  1  0.67489246  0.50692326  0.61819367  1
  In  In16  1  0.65088648  0.83483298  0.12672635  1
  In  In17  1  0.65764195  0.81774483  0.61965615  1
  In  In18  1  0.18070388  -0.01086194  0.38197098  1
  In  In19  1  0.17656756  -0.01202073  0.88203213  1
  In  In20  1  0.16497490  0.33378975  0.38390248  1
  In  In21  1  0.17195858  0.34186547  0.87496406  1
  In  In22  1  0.17141391  0.67117877  0.38777357  1
  In  In23  1  0.18957559  0.64596631  0.88124810  1
  In  In24  1  0.48859155  0.01268223  0.37065067  1
  In  In25  1  0.48666492  0.01124305  0.88441598  1
  In  In26  1  0.50736404  0.33951095  0.36673396  1
  In  In27  1  0.46402525  0.35581500  0.90512018  1
  In  In28  1  0.49753819  0.63723951  0.37944965  1
  In  In29  1  0.49631320  0.66714690  0.87298019  1
  In  In30  1  0.82432905  -0.01607817  0.37700169  1
  In  In31  1  0.84149720  0.01033150  0.87782242  1
  In  In32  1  0.82889903  0.34699481  0.37645874  1
  In  In33  1  0.84459685  0.33350982  0.88036984  1
  In  In34  1  0.82806503  0.67053648  0.38178093  1
  In  In35  1  0.81743518  0.66571220  0.87162276  1
  In  In36  1  0.00628924  0.18067242  0.37327733  1
  In  In37  1  -0.00256435  0.18035489  0.88013072  1
  In  In38  1  -0.00107810  0.50234477  0.38548834  1
  In  In39  1  0.01540740  0.48686566  0.87975954  1
  In  In40  1  0.00798455  0.82463671  0.38311184  1
  In  In41  1  0.00475900  0.84492789  0.87400778  1
  In  In42  1  0.33695526  0.15658835  0.37095223  1
  In  In43  1  0.33272220  0.16711826  0.87815473  1
  In  In44  1  0.33110478  0.50301023  0.39297673  1
  In  In45  1  0.32953175  0.50272644  0.87048726  1
  In  In46  1  0.32100763  0.83278705  0.36930539  1
  In  In47  1  0.33368673  0.83056200  0.87344265  1
  In  In48  1  0.64535146  0.17232826  0.36835038  1
  In  In49  1  0.66064518  0.17857162  0.88618462  1
  In  In50  1  0.66364984  0.50299902  0.37302527  1
  In  In51  1  0.65435150  0.51244796  0.88174047  1
  In  In52  1  0.68085107  0.83163167  0.37613499  1
  In  In53  1  0.66076753  0.81712219  0.87179305  1
  In  In54  1  0.17415159  0.00193837  0.12165017  1
  In  In55  1  0.17037955  0.00919480  0.62125523  1
  In  In56  1  0.18431073  0.33875083  0.10514680  1
  In  In57  1  0.16990419  0.33436720  0.62884922  1
  In  In58  1  0.17385986  0.66898511  0.11601973  1
  In  In59  1  0.17827970  0.66246228  0.62364379  1
  In  In60  1  0.49213965  -0.01191946  0.11865537  1
  In  In61  1  0.49156452  -0.00977154  0.62564286  1
  In  In62  1  0.50249725  0.34168342  0.10893210  1
  In  In63  1  0.48134505  0.33658566  0.62998746  1
  In  In64  1  0.50286698  0.66689313  0.12366855  1
  In  In65  1  0.50628857  0.65904392  0.63188915  1
  In  In66  1  0.81920564  0.00359864  0.12515891  1
  In  In67  1  0.84627247  0.00014205  0.61777879  1
  In  In68  1  0.82190605  0.32574472  0.11892465  1
  In  In69  1  0.83127527  0.34944489  0.62721749  1
  In  In70  1  0.82786056  0.65071914  0.12399209  1
  In  In71  1  0.82777666  0.65694070  0.61989200  1
  In  In72  1  0.49706667  0.16951310  0.49358792  1
  In  In73  1  0.83603808  0.83646921  -0.00103813  1
  In  In74  1  0.49873909  0.83041550  0.50205270  1
  In  In75  1  0.33773131  0.66383250  0.24705353  1
  In  In76  1  0.66135480  -0.00047008  0.25119302  1
  In  In77  1  0.66069113  -0.00123650  0.74711156  1
  In  In78  1  0.65559478  0.34371999  0.76417485  1
  In  In79  1  0.00194351  0.00535036  0.75046759  1
  In  In80  1  0.00102046  0.33558350  0.24135507  1
  In  In81  1  0.00544482  0.00423328  0.24444484  1
  In  In82  1  0.34487663  0.33295495  0.24137990  1
  In  In83  1  0.00926295  0.66135273  0.74763905  1
  In  In84  1  0.00188343  0.66477351  0.26245981  1
  In  In85  1  0.83726147  0.16477969  0.49437116  1
  Cu  Cu86  1  0.82528960  0.82808962  0.74333408  1
  Cu  Cu87  1  0.00493277  0.00889833  -0.00238004  1
  Cu  Cu88  1  0.00247568  0.34121571  -0.00075859  1
  Cu  Cu89  1  0.00373417  0.66703313  -0.00169445  1
  Cu  Cu90  1  0.00466776  -0.00484162  0.49780628  1
  Cu  Cu91  1  0.49138114  0.16315062  0.75785930  1
  Cu  Cu92  1  0.17030432  0.82972562  0.75299720  1
  Cu  Cu93  1  0.66611360  -0.00264197  0.00390229  1
  Cu  Cu94  1  0.81550579  0.49734609  0.24923659  1
  Cu  Cu95  1  0.82332532  0.17129523  0.24459568  1
  Cu  Cu96  1  0.66140176  0.66464224  -0.00039947  1
  Cu  Cu97  1  0.83055074  0.17707378  0.75846049  1
  Cu  Cu98  1  0.33617965  0.66865217  -0.00426207  1
  Cu  Cu99  1  0.17615987  0.16498502  0.24582976  1
  Cu  Cu100  1  0.49796451  0.82801197  0.24741510  1
  Cu  Cu101  1  0.49720297  0.50131058  0.75586530  1
  Cu  Cu102  1  0.83500536  0.50482143  0.74831279  1
  Cu  Cu103  1  0.00372758  0.66139457  0.50571306  1
  Cu  Cu104  1  0.66719311  0.66152946  0.49917115  1
  Cu  Cu105  1  0.83779156  0.82133711  0.25524068  1
  Cu  Cu106  1  0.65948308  0.34079484  0.49765012  1
  Cu  Cu107  1  0.32953017  0.00519870  0.50281633  1
  Cu  Cu108  1  0.00243686  0.33097436  0.50465492  1
  Cu  Cu109  1  0.16948035  0.50157433  0.24959962  1
  Cu  Cu110  1  0.49374631  0.83184004  0.74965278  1
  Cu  Cu111  1  0.67441085  0.33938611  -0.00090327  1
  Cu  Cu112  1  0.17010891  0.16902689  0.75436057  1
  Cu  Cu113  1  0.33115295  -0.00617936  -0.00213236  1
  Cu  Cu114  1  0.32713512  0.33331567  0.50752796  1
  Se  Se115  1  0.09019007  0.08618614  0.05414760  1
  Se  Se116  1  0.08200942  0.08341191  0.55100119  1
  Se  Se117  1  0.08902071  0.42429029  0.04980818  1
  Se  Se118  1  0.08410674  0.41403213  0.55923271  1
  Se  Se119  1  0.08602125  0.75155993  0.05059051  1
  Se  Se120  1  0.08984595  0.74439309  0.55625143  1
  Se  Se121  1  0.41657962  0.07609864  0.05008699  1
  Se  Se122  1  0.40961484  0.08643801  0.56251643  1
  Se  Se123  1  0.39859597  0.40017938  0.04271172  1
  Se  Se124  1  0.41940375  0.41627986  0.55081361  1
  Se  Se125  1  0.41696236  0.74769310  0.05623207  1
  Se  Se126  1  0.41409797  0.74887750  0.56915186  1
  Se  Se127  1  0.75234966  0.08457570  0.04941656  1
  Se  Se128  1  0.74412238  0.07683452  0.55439602  1
  Se  Se129  1  0.75289062  0.42445973  0.05516096  1
  Se  Se130  1  0.75064942  0.41646140  0.55004451  1
  Se  Se131  1  0.74389656  0.74777979  0.05870751  1
  Se  Se132  1  0.75004471  0.74642951  0.55220917  1
  Se  Se133  1  0.24618736  0.24017552  0.04049643  1
  Se  Se134  1  0.24505943  0.24461515  0.55624722  1
  Se  Se135  1  0.25296841  0.58322333  0.04949325  1
  Se  Se136  1  0.25386458  0.57959829  0.55191594  1
  Se  Se137  1  0.24832208  0.91096503  0.05336302  1
  Se  Se138  1  0.25045473  0.91837345  0.55699850  1
  Se  Se139  1  0.58926227  0.25221397  0.04744493  1
  Se  Se140  1  0.58612280  0.25756303  0.56032339  1
  Se  Se141  1  0.57913676  0.58041722  0.05345526  1
  Se  Se142  1  0.58082820  0.58263848  0.55369887  1
  Se  Se143  1  0.58041316  0.90993908  0.04920152  1
  Se  Se144  1  0.59083483  0.92628209  0.55713996  1
  Se  Se145  1  0.92100831  0.25632939  0.05447715  1
  Se  Se146  1  0.91857775  0.25146061  0.56353943  1
  Se  Se147  1  0.91850312  0.58660473  0.05185986  1
  Se  Se148  1  0.91762848  0.57706524  0.55576934  1
  Se  Se149  1  0.92447344  0.92904543  0.06099932  1
  Se  Se150  1  0.91925124  0.91260603  0.54900317  1
  Se  Se151  1  0.08471988  0.24672419  0.45159658  1
  Se  Se152  1  0.08632175  0.25888301  0.94520635  1
  Se  Se153  1  0.08778280  0.58100168  0.45000246  1
  Se  Se154  1  0.08686830  0.58277271  0.94568342  1
  Se  Se155  1  0.09052483  0.91167552  0.44758981  1
  Se  Se156  1  0.08260977  0.91565861  0.95026795  1
  Se  Se157  1  0.40607481  0.26247856  0.43747616  1
  Se  Se158  1  0.44013586  0.22202976  0.94296330  1
  Se  Se159  1  0.39851349  0.60364956  0.45518203  1
  Se  Se160  1  0.41583876  0.58306999  0.94161561  1
  Se  Se161  1  0.41176235  0.92640138  0.44309235  1
  Se  Se162  1  0.41643871  0.90996034  0.94564955  1
  Se  Se163  1  0.73677733  0.25330463  0.43939705  1
  Se  Se164  1  0.75763791  0.25295473  0.94781206  1
  Se  Se165  1  0.75055286  0.57737235  0.44534136  1
  Se  Se166  1  0.75045049  0.58467803  0.94878423  1
  Se  Se167  1  0.75069501  0.91009349  0.45216764  1
  Se  Se168  1  0.74383905  0.92173552  0.93612455  1
  Se  Se169  1  0.25081113  0.08933143  0.44559238  1
  Se  Se170  1  0.24913221  0.08199932  0.94710914  1
  Se  Se171  1  0.24274990  0.41678463  0.45375376  1
  Se  Se172  1  0.26551473  0.41066732  0.94423690  1
  Se  Se173  1  0.25522492  0.75932264  0.44905838  1
  Se  Se174  1  0.24913468  0.75140927  0.94488729  1
  Se  Se175  1  0.59124126  0.07274857  0.44246409  1
  Se  Se176  1  0.58686744  0.08024103  0.94740938  1
  Se  Se177  1  0.57702522  0.42109472  0.44254132  1
  Se  Se178  1  0.58414623  0.41954467  0.94970835  1
  Se  Se179  1  0.58694436  0.74216471  0.43844204  1
  Se  Se180  1  0.57867269  0.74859494  0.94648194  1
  Se  Se181  1  0.92756254  0.07349736  0.43286923  1
  Se  Se182  1  0.91758640  0.09148106  0.94860609  1
  Se  Se183  1  0.91797375  0.41163755  0.44938122  1
  Se  Se184  1  0.91632209  0.42524248  0.94896674  1
  Se  Se185  1  0.92140663  0.74357577  0.44832569  1
  Se  Se186  1  0.92196709  0.74481561  0.93635669  1
  Se  Se187  1  0.24612209  0.25359043  0.30722153  1
  Se  Se188  1  0.25287018  0.25079149  0.80839267  1
  Se  Se189  1  0.24571433  0.57901527  0.31251882  1
  Se  Se190  1  0.25446950  0.58435407  0.79635908  1
  Se  Se191  1  0.26226993  0.93225581  0.30190548  1
  Se  Se192  1  0.25186919  0.91684327  0.80401802  1
  Se  Se193  1  0.56726383  0.24512091  0.29567320  1
  Se  Se194  1  0.56745854  0.24751204  0.81602259  1
  Se  Se195  1  0.58447204  0.58526986  0.30235552  1
  Se  Se196  1  0.58385816  0.58732150  0.80285505  1
  Se  Se197  1  0.57445913  0.90760648  0.31326214  1
  Se  Se198  1  0.57358595  0.91331478  0.81133783  1
  Se  Se199  1  0.90731061  0.24839579  0.30408229  1
  Se  Se200  1  0.92119555  0.25756841  0.80395753  1
  Se  Se201  1  0.90460009  0.56920357  0.30996273  1
  Se  Se202  1  0.91551196  0.58064441  0.81204731  1
  Se  Se203  1  0.91868151  0.90858712  0.30754541  1
  Se  Se204  1  0.90302816  0.91029377  0.80334345  1
  Se  Se205  1  0.09222153  0.09231592  0.30831330  1
  Se  Se206  1  0.08942881  0.08837794  0.81572501  1
  Se  Se207  1  0.08621701  0.42326304  0.30849382  1
  Se  Se208  1  0.08547310  0.41435377  0.80224401  1
  Se  Se209  1  0.10008607  0.75820468  0.30843269  1
  Se  Se210  1  0.09028269  0.75225403  0.81375058  1
  Se  Se211  1  0.42698303  0.09891768  0.29645438  1
  Se  Se212  1  0.40739278  0.07643205  0.80544347  1
  Se  Se213  1  0.41058336  0.43043662  0.31165511  1
  Se  Se214  1  0.41987645  0.41341592  0.80915696  1
  Se  Se215  1  0.42511630  0.74929206  0.31383276  1
  Se  Se216  1  0.41207091  0.74637436  0.80246770  1
  Se  Se217  1  0.75541515  0.08909761  0.31107647  1
  Se  Se218  1  0.74872688  0.09107592  0.80996117  1
  Se  Se219  1  0.73949405  0.40979696  0.30376578  1
  Se  Se220  1  0.75662188  0.42957770  0.81579153  1
  Se  Se221  1  0.74872437  0.74177294  0.30421595  1
  Se  Se222  1  0.74339132  0.74613484  0.79702147  1
  Se  Se223  1  0.25655429  0.08098200  0.19282600  1
  Se  Se224  1  0.24663818  0.07892770  0.70026370  1
  Se  Se225  1  0.24772060  0.42612740  0.18651493  1
  Se  Se226  1  0.27800441  0.39315701  0.68963878  1
  Se  Se227  1  0.24308390  0.75396281  0.19342511  1
  Se  Se228  1  0.25067204  0.74559923  0.69869442  1
  Se  Se229  1  0.58033392  0.08172708  0.18240803  1
  Se  Se230  1  0.57271488  0.09589535  0.68962705  1
  Se  Se231  1  0.57248962  0.41292377  0.18958068  1
  Se  Se232  1  0.57792243  0.42538123  0.68995341  1
  Se  Se233  1  0.58371901  0.74521346  0.19794632  1
  Se  Se234  1  0.58293223  0.75105759  0.69943557  1
  Se  Se235  1  0.90934549  0.09480300  0.18813399  1
  Se  Se236  1  0.90577800  0.09685842  0.69381036  1
  Se  Se237  1  0.90514765  0.42654284  0.18918409  1
  Se  Se238  1  0.91790670  0.41762094  0.69973942  1
  Se  Se239  1  0.91525094  0.74759828  0.19007737  1
  Se  Se240  1  0.91467689  0.75223784  0.68902940  1
  Se  Se241  1  0.10274907  0.25207647  0.18724159  1
  Se  Se242  1  0.08603420  0.25087715  0.70000838  1
  Se  Se243  1  0.08763503  0.58187486  0.19146898  1
  Se  Se244  1  0.09993535  0.56883652  0.69366614  1
  Se  Se245  1  0.09494039  0.90754910  0.19393381  1
  Se  Se246  1  0.08842107  0.90996117  0.69307331  1
  Se  Se247  1  0.42077609  0.24265723  0.17512250  1
  Se  Se248  1  0.41373285  0.25078339  0.70376591  1
  Se  Se249  1  0.42583937  0.56930801  0.19189862  1
  Se  Se250  1  0.41595211  0.57923572  0.69573982  1
  Se  Se251  1  0.41649495  0.91313006  0.19619110  1
  Se  Se252  1  0.41211567  0.92115473  0.70148264  1
  Se  Se253  1  0.73977417  0.25483091  0.19455182  1
  Se  Se254  1  0.74856281  0.25607127  0.69851384  1
  Se  Se255  1  0.73886894  0.58462558  0.19539347  1
  Se  Se256  1  0.74784872  0.58398905  0.69597604  1
  Se  Se257  1  0.75714684  0.90382584  0.19585644  1
  Se  Se258  1  0.75342815  0.91459314  0.68334519  1
