# generated using pymatgen
data_In86Cu29Se144
_symmetry_space_group_name_H-M   'P 1'
_cell_length_a   17.57814606
_cell_length_b   17.57815534
_cell_length_c   23.43463936
_cell_angle_alpha   89.99256244
_cell_angle_beta   90.00442587
_cell_angle_gamma   89.98802770
_symmetry_Int_Tables_number   1
_chemical_formula_structural   In86Cu29Se144
_chemical_formula_sum   'In86 Cu29 Se144'
_cell_volume   7241.10136277
_cell_formula_units_Z   1
loop_
 _symmetry_equiv_pos_site_id
 _symmetry_equiv_pos_as_xyz
  1  'x, y, z'
loop_
 _atom_site_type_symbol
 _atom_site_label
 _atom_site_symmetry_multiplicity
 _atom_site_fract_x
 _atom_site_fract_y
 _atom_site_fract_z
 _atom_site_occupancy
  In  In0  1  0.01091174  0.17512328  0.11627197  1
  In  In1  1  0.00882255  0.15443588  0.63029265  1
  In  In2  1  -0.00979398  0.49486045  0.11998776  1
  In  In3  1  0.00240964  0.49202438  0.64059680  1
  In  In4  1  0.00325527  0.82353912  0.11974883  1
  In  In5  1  -0.00576122  0.83652732  0.61990875  1
  In  In6  1  0.33353119  0.17200513  0.11050980  1
  In  In7  1  0.31727782  0.15359151  0.62143200  1
  In  In8  1  0.32831375  0.51141531  0.11786313  1
  In  In9  1  0.31956118  0.50973412  0.62701048  1
  In  In10  1  0.33192015  0.83083282  0.11596050  1
  In  In11  1  0.34426178  0.83923520  0.62326892  1
  In  In12  1  0.66051036  0.15777931  0.11765203  1
  In  In13  1  0.64989457  0.15549433  0.61831098  1
  In  In14  1  0.67763018  0.49625134  0.12452364  1
  In  In15  1  0.68786769  0.50852228  0.62904081  1
  In  In16  1  0.65998613  0.84661902  0.13187034  1
  In  In17  1  0.66503080  0.83918189  0.62787618  1
  In  In18  1  0.15384498  0.00391120  0.39606767  1
  In  In19  1  0.16444598  -0.00148108  0.86876649  1
  In  In20  1  0.15386402  0.33631385  0.38653342  1
  In  In21  1  0.16079416  0.34297631  0.88435086  1
  In  In22  1  0.15209355  0.67243888  0.38843194  1
  In  In23  1  0.15652247  0.66972970  0.87189922  1
  In  In24  1  0.52316368  -0.01624052  0.39405570  1
  In  In25  1  0.49794850  -0.00077634  0.87396920  1
  In  In26  1  0.49221627  0.33384207  0.37478693  1
  In  In27  1  0.48792721  0.32146021  0.88085499  1
  In  In28  1  0.51647510  0.66528730  0.37293481  1
  In  In29  1  0.51729980  0.67073229  0.87623756  1
  In  In30  1  0.81898828  -0.00310286  0.38117562  1
  In  In31  1  0.84140714  0.00847154  0.86476912  1
  In  In32  1  0.84551053  0.33087381  0.37089722  1
  In  In33  1  0.84335693  0.32506401  0.87910650  1
  In  In34  1  0.83109420  0.68310848  0.38195337  1
  In  In35  1  0.83314345  0.65699835  0.86333004  1
  In  In36  1  -0.00130591  0.17617086  0.37681372  1
  In  In37  1  -0.00148835  0.16701675  0.87120034  1
  In  In38  1  0.01064483  0.49981817  0.37946931  1
  In  In39  1  -0.00091398  0.50067699  0.87164888  1
  In  In40  1  -0.01945214  0.84191403  0.40917306  1
  In  In41  1  0.00595367  0.83913299  0.86308057  1
  In  In42  1  0.33672739  0.16654382  0.37980606  1
  In  In43  1  0.34089752  0.16101092  0.88383128  1
  In  In44  1  0.32349218  0.49109144  0.37237051  1
  In  In45  1  0.32298416  0.48635137  0.87874649  1
  In  In46  1  0.32801246  0.84650648  0.38213643  1
  In  In47  1  0.32215157  0.84451487  0.87574790  1
  In  In48  1  0.67230220  0.15049783  0.37609602  1
  In  In49  1  0.67176054  0.16115520  0.87897638  1
  In  In50  1  0.65497413  0.52004454  0.37044864  1
  In  In51  1  0.67147369  0.51377810  0.87458877  1
  In  In52  1  0.66736611  0.83025564  0.37782087  1
  In  In53  1  0.66154880  0.82892570  0.87129125  1
  In  In54  1  0.17059512  0.00401937  0.11536140  1
  In  In55  1  0.16544721  0.00233868  0.62511911  1
  In  In56  1  0.15851347  0.32393703  0.11569050  1
  In  In57  1  0.14252064  0.31574236  0.61301945  1
  In  In58  1  0.16602772  0.66716904  0.11507925  1
  In  In59  1  0.14385231  0.65664044  0.60647518  1
  In  In60  1  0.50520130  0.00487889  0.12112479  1
  In  In61  1  0.49665225  -0.00367291  0.63010250  1
  In  In62  1  0.51055654  0.32730772  0.12148185  1
  In  In63  1  0.50157251  0.32313595  0.62343732  1
  In  In64  1  0.49924829  0.67950015  0.12493801  1
  In  In65  1  0.50552333  0.68624127  0.62607754  1
  In  In66  1  0.82014603  -0.00186539  0.12298621  1
  In  In67  1  0.83918481  -0.01155423  0.62645428  1
  In  In68  1  0.84349556  0.34339162  0.11805658  1
  In  In69  1  0.85350462  0.33460519  0.63230976  1
  In  In70  1  0.83615480  0.65512680  0.12443366  1
  In  In71  1  0.82095526  0.67108890  0.63884425  1
  In  In72  1  0.49822179  0.49941086  0.49366461  1
  In  In73  1  -0.00137858  0.66504817  0.25916917  1
  In  In74  1  0.33624632  0.33564799  0.24604580  1
  In  In75  1  0.33634361  0.00322866  0.25240081  1
  In  In76  1  0.32743372  0.33244772  0.75691349  1
  In  In77  1  -0.00716844  0.00206026  0.25785826  1
  In  In78  1  0.33272385  0.67626577  0.74633151  1
  In  In79  1  0.67177978  0.33252137  0.24180262  1
  In  In80  1  0.83748838  0.83539242  -0.00419591  1
  In  In81  1  0.84099347  0.15238310  0.50912283  1
  In  In82  1  0.33384165  0.66886986  0.24746622  1
  In  In83  1  0.67299617  0.33286138  0.75034257  1
  In  In84  1  0.84605650  0.49876246  0.50287029  1
  In  In85  1  0.49950249  0.49721280  -0.00109565  1
  Cu  Cu86  1  0.66567359  0.67381949  0.50599842  1
  Cu  Cu87  1  0.49486848  0.15791539  0.75075094  1
  Cu  Cu88  1  0.34060861  0.00733793  0.50622586  1
  Cu  Cu89  1  0.33082448  0.33586416  0.49851485  1
  Cu  Cu90  1  0.32937694  0.66957628  -0.00575229  1
  Cu  Cu91  1  0.83589818  0.16444232  0.25161367  1
  Cu  Cu92  1  0.33025580  -0.00647248  -0.00484494  1
  Cu  Cu93  1  0.50997764  0.15699331  0.24996490  1
  Cu  Cu94  1  0.50457738  0.83985341  0.74957599  1
  Cu  Cu95  1  0.16494736  0.17646910  0.24666360  1
  Cu  Cu96  1  0.16146923  0.16501877  0.74989580  1
  Cu  Cu97  1  0.82254246  0.82982811  0.25471452  1
  Cu  Cu98  1  -0.00096034  0.33571634  -0.00339860  1
  Cu  Cu99  1  0.16151562  0.49687297  0.74866949  1
  Cu  Cu100  1  0.33142742  0.66895109  0.50365069  1
  Cu  Cu101  1  0.67295384  0.67297228  -0.00308473  1
  Cu  Cu102  1  0.83161078  0.49893175  0.24616536  1
  Cu  Cu103  1  0.15721770  0.83752331  0.25346566  1
  Cu  Cu104  1  0.00626998  0.66415647  -0.00522945  1
  Cu  Cu105  1  0.83044061  0.16691718  0.74923743  1
  Cu  Cu106  1  0.16184999  0.49674810  0.25155271  1
  Cu  Cu107  1  0.67176344  0.32928541  -0.00002833  1
  Cu  Cu108  1  0.50551967  0.83406879  0.25337970  1
  Cu  Cu109  1  0.16423354  0.83457024  0.74053886  1
  Cu  Cu110  1  0.83273774  0.83706770  0.74861049  1
  Cu  Cu111  1  0.00255993  0.00388838  -0.01146748  1
  Cu  Cu112  1  0.67483114  0.32470832  0.49931572  1
  Cu  Cu113  1  0.51022330  0.50549374  0.75049395  1
  Cu  Cu114  1  0.66201194  0.00102367  -0.00180371  1
  Se  Se115  1  0.08475219  0.08385182  0.04843370  1
  Se  Se116  1  0.09366190  0.09186544  0.55406764  1
  Se  Se117  1  0.08047741  0.41912951  0.05324581  1
  Se  Se118  1  0.08287779  0.42908646  0.56062977  1
  Se  Se119  1  0.08616312  0.75287391  0.04637395  1
  Se  Se120  1  0.09645544  0.77438012  0.55109729  1
  Se  Se121  1  0.41293618  0.07507789  0.05253678  1
  Se  Se122  1  0.42320596  0.09005626  0.56044308  1
  Se  Se123  1  0.41093675  0.40883488  0.06055076  1
  Se  Se124  1  0.40953608  0.41561170  0.56176091  1
  Se  Se125  1  0.41594105  0.74737527  0.04923269  1
  Se  Se126  1  0.41928901  0.75113547  0.55168398  1
  Se  Se127  1  0.75085570  0.08225256  0.04872920  1
  Se  Se128  1  0.73892594  0.06607018  0.55715909  1
  Se  Se129  1  0.75232205  0.41892604  0.04983469  1
  Se  Se130  1  0.75092722  0.40460207  0.56034254  1
  Se  Se131  1  0.74897053  0.75155985  0.06247127  1
  Se  Se132  1  0.75013111  0.75129734  0.56174375  1
  Se  Se133  1  0.24310717  0.24746105  0.04711399  1
  Se  Se134  1  0.25172733  0.25290638  0.55539488  1
  Se  Se135  1  0.24584638  0.58400694  0.04514566  1
  Se  Se136  1  0.24640035  0.58077124  0.54849041  1
  Se  Se137  1  0.24558809  0.91152528  0.05004959  1
  Se  Se138  1  0.25762528  0.92319126  0.55863523  1
  Se  Se139  1  0.58374093  0.24614063  0.04843087  1
  Se  Se140  1  0.58164671  0.24978253  0.54896865  1
  Se  Se141  1  0.59083927  0.59043293  0.05753102  1
  Se  Se142  1  0.58764790  0.58375799  0.56111327  1
  Se  Se143  1  0.58230472  0.91504714  0.05297923  1
  Se  Se144  1  0.56739571  0.90498499  0.56101562  1
  Se  Se145  1  0.91683284  0.25068743  0.05140985  1
  Se  Se146  1  0.92913198  0.25244869  0.55864234  1
  Se  Se147  1  0.91891926  0.58616925  0.04972602  1
  Se  Se148  1  0.91690103  0.58661427  0.57401794  1
  Se  Se149  1  0.92724611  0.92726895  0.05719111  1
  Se  Se150  1  0.91247912  0.91647919  0.54812266  1
  Se  Se151  1  0.09322293  0.23214248  0.44889182  1
  Se  Se152  1  0.07862571  0.24814163  0.94373149  1
  Se  Se153  1  0.07370459  0.58526510  0.45394608  1
  Se  Se154  1  0.08828430  0.57775163  0.94240692  1
  Se  Se155  1  0.09853422  0.89684542  0.45967771  1
  Se  Se156  1  0.08281798  0.91415416  0.93985539  1
  Se  Se157  1  0.41756203  0.25386714  0.44746270  1
  Se  Se158  1  0.41014045  0.25097127  0.95512184  1
  Se  Se159  1  0.40682803  0.59152232  0.43552228  1
  Se  Se160  1  0.41202946  0.58910370  0.93509630  1
  Se  Se161  1  0.41735063  0.91731258  0.45225157  1
  Se  Se162  1  0.41776749  0.91247188  0.94362380  1
  Se  Se163  1  0.75738351  0.24785191  0.44023685  1
  Se  Se164  1  0.75418397  0.24601902  0.94581600  1
  Se  Se165  1  0.74219407  0.58594112  0.44818857  1
  Se  Se166  1  0.75633302  0.58932494  0.94566936  1
  Se  Se167  1  0.75917598  0.89921573  0.44799279  1
  Se  Se168  1  0.74675167  0.92506438  0.93702147  1
  Se  Se169  1  0.25512235  0.08486172  0.44902958  1
  Se  Se170  1  0.24649835  0.07689656  0.94220482  1
  Se  Se171  1  0.24582338  0.42015509  0.44814521  1
  Se  Se172  1  0.25717413  0.40635843  0.95400795  1
  Se  Se173  1  0.25211641  0.75094971  0.44492337  1
  Se  Se174  1  0.24522404  0.74950823  0.93874249  1
  Se  Se175  1  0.58083943  0.09576148  0.44987955  1
  Se  Se176  1  0.57856335  0.08500944  0.94417966  1
  Se  Se177  1  0.59802022  0.40957165  0.43875172  1
  Se  Se178  1  0.59214914  0.40910233  0.93684176  1
  Se  Se179  1  0.58062542  0.74985517  0.44835637  1
  Se  Se180  1  0.58474497  0.75676327  0.95070233  1
  Se  Se181  1  0.92723312  0.07072198  0.43909832  1
  Se  Se182  1  0.91302818  0.08632889  0.94217469  1
  Se  Se183  1  0.93119566  0.40090541  0.44647489  1
  Se  Se184  1  0.91638174  0.42075856  0.94413860  1
  Se  Se185  1  0.92937800  0.72076497  0.45663697  1
  Se  Se186  1  0.92446898  0.74555954  0.93495290  1
  Se  Se187  1  0.24747312  0.25002452  0.30977350  1
  Se  Se188  1  0.24017585  0.24091644  0.81553238  1
  Se  Se189  1  0.23666850  0.58503500  0.30911302  1
  Se  Se190  1  0.25009153  0.57483826  0.80483325  1
  Se  Se191  1  0.23418151  0.92289448  0.31114890  1
  Se  Se192  1  0.24663442  0.91551451  0.79733315  1
  Se  Se193  1  0.58305762  0.24713137  0.30816549  1
  Se  Se194  1  0.57446402  0.24523615  0.80704217  1
  Se  Se195  1  0.57807304  0.58701446  0.29298814  1
  Se  Se196  1  0.59097345  0.59107582  0.80135247  1
  Se  Se197  1  0.58706821  0.91753378  0.30815268  1
  Se  Se198  1  0.58697143  0.92204735  0.80509405  1
  Se  Se199  1  0.92218988  0.24939585  0.29869646  1
  Se  Se200  1  0.91545343  0.24980234  0.80047240  1
  Se  Se201  1  0.90503136  0.57485600  0.31586382  1
  Se  Se202  1  0.93571804  0.59529998  0.80065604  1
  Se  Se203  1  0.91148795  0.90137815  0.31564157  1
  Se  Se204  1  0.91967621  0.92151262  0.79747584  1
  Se  Se205  1  0.09487379  0.08898168  0.30916607  1
  Se  Se206  1  0.07704289  0.08008033  0.80190384  1
  Se  Se207  1  0.08246434  0.41326216  0.30693987  1
  Se  Se208  1  0.08389477  0.41227826  0.80542563  1
  Se  Se209  1  0.07720654  0.76577644  0.31739316  1
  Se  Se210  1  0.08488194  0.74958739  0.79597431  1
  Se  Se211  1  0.43045869  0.08353906  0.31460936  1
  Se  Se212  1  0.40916809  0.08027517  0.80621432  1
  Se  Se213  1  0.42703698  0.43088327  0.30320537  1
  Se  Se214  1  0.42850494  0.42551365  0.80823883  1
  Se  Se215  1  0.41699571  0.76082388  0.31192024  1
  Se  Se216  1  0.42474042  0.75758845  0.81115414  1
  Se  Se217  1  0.75387624  0.07811504  0.30164165  1
  Se  Se218  1  0.74500140  0.08491361  0.80142193  1
  Se  Se219  1  0.75179872  0.42298753  0.31196415  1
  Se  Se220  1  0.75767485  0.42034844  0.81330705  1
  Se  Se221  1  0.74284240  0.74190144  0.30562808  1
  Se  Se222  1  0.75200113  0.75318091  0.80443811  1
  Se  Se223  1  0.24708801  0.09452414  0.19006239  1
  Se  Se224  1  0.24748409  0.08048978  0.70086927  1
  Se  Se225  1  0.24275985  0.42438680  0.18750598  1
  Se  Se226  1  0.23953912  0.41396842  0.68917786  1
  Se  Se227  1  0.23676031  0.75993537  0.19224886  1
  Se  Se228  1  0.24128936  0.75140017  0.67957552  1
  Se  Se229  1  0.59136835  0.07558559  0.19488386  1
  Se  Se230  1  0.58327867  0.07970672  0.69871954  1
  Se  Se231  1  0.57501550  0.42539038  0.19110994  1
  Se  Se232  1  0.58114372  0.42223719  0.68707665  1
  Se  Se233  1  0.58540277  0.75113594  0.19689227  1
  Se  Se234  1  0.58861459  0.75175178  0.70171576  1
  Se  Se235  1  0.91464771  0.08705227  0.18630074  1
  Se  Se236  1  0.91199792  0.08233540  0.69407302  1
  Se  Se237  1  0.91823342  0.41616933  0.19734659  1
  Se  Se238  1  0.90688839  0.42384511  0.70783574  1
  Se  Se239  1  0.90926185  0.75641262  0.19438409  1
  Se  Se240  1  0.91767304  0.75574700  0.69492767  1
  Se  Se241  1  0.07893085  0.25615970  0.19458580  1
  Se  Se242  1  0.07791514  0.25094718  0.69919189  1
  Se  Se243  1  0.08624138  0.58231581  0.19062601  1
  Se  Se244  1  0.08787111  0.59029563  0.69649930  1
  Se  Se245  1  0.08300370  0.91759347  0.18925611  1
  Se  Se246  1  0.07802009  0.91920516  0.69065747  1
  Se  Se247  1  0.42680569  0.23645839  0.19146683  1
  Se  Se248  1  0.41541292  0.24298053  0.69361427  1
  Se  Se249  1  0.42332105  0.57715048  0.18932894  1
  Se  Se250  1  0.42581351  0.58020588  0.68931624  1
  Se  Se251  1  0.41974388  0.90754547  0.19135076  1
  Se  Se252  1  0.41156511  0.91861341  0.70242628  1
  Se  Se253  1  0.76039598  0.24088495  0.18412708  1
  Se  Se254  1  0.75102266  0.24001914  0.68287592  1
  Se  Se255  1  0.74878952  0.58472273  0.19664012  1
  Se  Se256  1  0.75068745  0.58088642  0.70977519  1
  Se  Se257  1  0.74992770  0.92074480  0.20085079  1
  Se  Se258  1  0.74736267  0.92132044  0.69818446  1
