# generated using pymatgen
data_In86Cu29Se144
_symmetry_space_group_name_H-M   'P 1'
_cell_length_a   17.57301378
_cell_length_b   17.57693732
_cell_length_c   23.42740181
_cell_angle_alpha   90.01201106
_cell_angle_beta   89.99606759
_cell_angle_gamma   89.99014048
_symmetry_Int_Tables_number   1
_chemical_formula_structural   In86Cu29Se144
_chemical_formula_sum   'In86 Cu29 Se144'
_cell_volume   7236.25000780
_cell_formula_units_Z   1
loop_
 _symmetry_equiv_pos_site_id
 _symmetry_equiv_pos_as_xyz
  1  'x, y, z'
loop_
 _atom_site_type_symbol
 _atom_site_label
 _atom_site_symmetry_multiplicity
 _atom_site_fract_x
 _atom_site_fract_y
 _atom_site_fract_z
 _atom_site_occupancy
  In  In0  1  -0.00190466  0.16789303  0.12042758  1
  In  In1  1  -0.00854097  0.16292128  0.63291651  1
  In  In2  1  0.00735098  0.50885691  0.12420404  1
  In  In3  1  0.00101920  0.50001349  0.61658088  1
  In  In4  1  -0.00065903  0.83465201  0.12432039  1
  In  In5  1  0.01329475  0.84204616  0.62935536  1
  In  In6  1  0.31835705  0.16057618  0.11944211  1
  In  In7  1  0.33697622  0.13896359  0.63225655  1
  In  In8  1  0.31878454  0.49710592  0.10657979  1
  In  In9  1  0.33549660  0.51372493  0.62732672  1
  In  In10  1  0.34313783  0.83734111  0.11450157  1
  In  In11  1  0.34900292  0.82492626  0.64404898  1
  In  In12  1  0.67152391  0.15320160  0.12594242  1
  In  In13  1  0.67093837  0.18287805  0.62614221  1
  In  In14  1  0.67025946  0.50626620  0.11929744  1
  In  In15  1  0.67121815  0.49808439  0.63354947  1
  In  In16  1  0.67260135  0.83820440  0.11596045  1
  In  In17  1  0.64932185  0.83111051  0.63013232  1
  In  In18  1  0.16706295  -0.00014944  0.36168115  1
  In  In19  1  0.16399832  0.00121679  0.88353246  1
  In  In20  1  0.16310552  0.34228656  0.37103877  1
  In  In21  1  0.15870890  0.33112378  0.89185140  1
  In  In22  1  0.15579930  0.66303217  0.36820604  1
  In  In23  1  0.18117937  0.66503613  0.88740168  1
  In  In24  1  0.49934062  -0.00585442  0.37621155  1
  In  In25  1  0.48311910  -0.00711854  0.86737798  1
  In  In26  1  0.48411882  0.33310945  0.37945921  1
  In  In27  1  0.51638548  0.33309863  0.86956819  1
  In  In28  1  0.51403499  0.68114413  0.37816025  1
  In  In29  1  0.49438563  0.66670954  0.87493417  1
  In  In30  1  0.83515179  0.00771698  0.36224350  1
  In  In31  1  0.84074299  -0.00748561  0.87975831  1
  In  In32  1  0.84788906  0.33458184  0.36944663  1
  In  In33  1  0.82912984  0.33882259  0.88976704  1
  In  In34  1  0.82908069  0.65332712  0.37541987  1
  In  In35  1  0.82553106  0.67046009  0.88117403  1
  In  In36  1  -0.00130860  0.16965960  0.36119865  1
  In  In37  1  0.00782619  0.16052258  0.89303430  1
  In  In38  1  0.00190738  0.49677958  0.37044173  1
  In  In39  1  -0.00092461  0.48922318  0.89376255  1
  In  In40  1  0.00092291  0.83637699  0.36074279  1
  In  In41  1  -0.00490358  0.84448568  0.88476347  1
  In  In42  1  0.34309019  0.15940132  0.37999301  1
  In  In43  1  0.32228821  0.15508931  0.87139250  1
  In  In44  1  0.32647138  0.49314412  0.37496676  1
  In  In45  1  0.32717634  0.51816866  0.88485382  1
  In  In46  1  0.33439828  0.84057342  0.37195978  1
  In  In47  1  0.33327797  0.82487546  0.88360698  1
  In  In48  1  0.66789770  0.15465125  0.37522559  1
  In  In49  1  0.67039040  0.17691677  0.86997714  1
  In  In50  1  0.68076207  0.51859279  0.37531179  1
  In  In51  1  0.66620232  0.49895824  0.87768870  1
  In  In52  1  0.65177546  0.82792453  0.37779037  1
  In  In53  1  0.66867737  0.82614880  0.87331617  1
  In  In54  1  0.16577400  0.00047187  0.12449332  1
  In  In55  1  0.17933369  0.00013461  0.64258245  1
  In  In56  1  0.15255594  0.32995272  0.11089213  1
  In  In57  1  0.15551674  0.33777820  0.62428749  1
  In  In58  1  0.15135974  0.65271834  0.10823285  1
  In  In59  1  0.17754638  0.66850852  0.62628769  1
  In  In60  1  0.51235531  -0.00849109  0.13005146  1
  In  In61  1  0.49363333  -0.01150944  0.61935122  1
  In  In62  1  0.48917048  0.33711677  0.12211887  1
  In  In63  1  0.51474768  0.34026942  0.62585980  1
  In  In64  1  0.49198082  0.66878451  0.10766576  1
  In  In65  1  0.49639040  0.67540341  0.63742248  1
  In  In66  1  0.83205009  0.00086243  0.12082606  1
  In  In67  1  0.84100337  0.01372912  0.63343160  1
  In  In68  1  0.86691359  0.35758791  0.09847318  1
  In  In69  1  0.82188150  0.33777497  0.62948261  1
  In  In70  1  0.84384075  0.68058223  0.11716498  1
  In  In71  1  0.83502325  0.65027381  0.62898862  1
  In  In72  1  0.82738465  0.83040123  0.50101076  1
  In  In73  1  -0.00101690  0.66911507  0.76191589  1
  In  In74  1  0.50263149  0.50295942  0.50072818  1
  In  In75  1  0.83165500  0.17238703  0.50474342  1
  In  In76  1  0.66496384  -0.00243614  0.75269278  1
  In  In77  1  0.17184218  0.16748632  0.50402674  1
  In  In78  1  0.49969650  0.16467106  -0.01133117  1
  In  In79  1  -0.00289859  0.32632430  0.76134149  1
  In  In80  1  0.32384343  0.66294892  0.24173675  1
  In  In81  1  0.67025381  0.67427550  0.24992356  1
  In  In82  1  0.17061518  0.83142031  0.50104953  1
  In  In83  1  0.67185319  0.31854243  0.24742072  1
  In  In84  1  0.33368077  0.33304185  0.75925070  1
  In  In85  1  0.31649530  0.32545180  0.23560976  1
  Cu  Cu86  1  0.34268933  -0.01097114  0.50293244  1
  Cu  Cu87  1  0.66389497  0.33053084  -0.00070272  1
  Cu  Cu88  1  0.33456595  0.66517230  0.50623696  1
  Cu  Cu89  1  0.50115144  0.83791551  0.24600938  1
  Cu  Cu90  1  0.33210940  0.00093345  -0.00233263  1
  Cu  Cu91  1  0.32927474  0.32848239  0.49867145  1
  Cu  Cu92  1  0.00099043  0.34512765  0.49524197  1
  Cu  Cu93  1  0.16477187  0.16289068  0.24284587  1
  Cu  Cu94  1  0.66727280  0.34039531  0.50270401  1
  Cu  Cu95  1  0.66531774  0.66164937  -0.00534324  1
  Cu  Cu96  1  0.82882361  0.49338838  0.75744182  1
  Cu  Cu97  1  0.49563107  0.15263901  0.25349525  1
  Cu  Cu98  1  0.16970819  0.50727463  0.75641379  1
  Cu  Cu99  1  0.49456041  0.49897668  0.24412608  1
  Cu  Cu100  1  -0.00346760  0.67060917  -0.00093647  1
  Cu  Cu101  1  0.83412872  0.84136079  0.24080251  1
  Cu  Cu102  1  0.16740046  0.83354609  0.24102427  1
  Cu  Cu103  1  0.00020431  -0.00313291  0.00656214  1
  Cu  Cu104  1  0.66442447  -0.00740380  -0.00379426  1
  Cu  Cu105  1  -0.00299472  0.65811791  0.49349511  1
  Cu  Cu106  1  0.65880572  -0.00307340  0.49741887  1
  Cu  Cu107  1  0.17279214  0.84110539  0.75989997  1
  Cu  Cu108  1  0.84524837  0.49960274  0.24643246  1
  Cu  Cu109  1  0.50272525  0.16935538  0.74834438  1
  Cu  Cu110  1  0.50470002  0.50811643  0.75266879  1
  Cu  Cu111  1  0.83477286  0.83093027  0.75596841  1
  Cu  Cu112  1  0.33368802  0.33904973  -0.00318241  1
  Cu  Cu113  1  0.83501162  0.16964152  0.23802967  1
  Cu  Cu114  1  0.00383836  0.00410445  0.49897821  1
  Se  Se115  1  0.08606484  0.08422320  0.05432863  1
  Se  Se116  1  0.08255028  0.07677328  0.56432902  1
  Se  Se117  1  0.08848408  0.43281169  0.04987802  1
  Se  Se118  1  0.08972995  0.42221736  0.54868092  1
  Se  Se119  1  0.07993925  0.75662650  0.05040616  1
  Se  Se120  1  0.07383210  0.73946451  0.55693022  1
  Se  Se121  1  0.41842962  0.07847544  0.05797309  1
  Se  Se122  1  0.41965999  0.08304567  0.55158335  1
  Se  Se123  1  0.42026304  0.42014793  0.04839641  1
  Se  Se124  1  0.40932334  0.41162585  0.55947882  1
  Se  Se125  1  0.41501218  0.75388837  0.04070918  1
  Se  Se126  1  0.41346777  0.74839245  0.56192507  1
  Se  Se127  1  0.74557566  0.07853647  0.04872853  1
  Se  Se128  1  0.74153478  0.07399268  0.55896400  1
  Se  Se129  1  0.74531440  0.41617177  0.05218528  1
  Se  Se130  1  0.75000725  0.42198417  0.55654399  1
  Se  Se131  1  0.74702368  0.74680896  0.04970950  1
  Se  Se132  1  0.74640622  0.74464768  0.56816375  1
  Se  Se133  1  0.25304005  0.25345941  0.05034441  1
  Se  Se134  1  0.26023665  0.25247343  0.56916170  1
  Se  Se135  1  0.26359844  0.60479750  0.04512123  1
  Se  Se136  1  0.24717402  0.58077039  0.55327610  1
  Se  Se137  1  0.24953049  0.92027019  0.05395507  1
  Se  Se138  1  0.25747299  0.91702402  0.56567430  1
  Se  Se139  1  0.58313234  0.24936794  0.05995420  1
  Se  Se140  1  0.58495381  0.25359114  0.55224030  1
  Se  Se141  1  0.58221752  0.58000108  0.05018490  1
  Se  Se142  1  0.58374162  0.58772051  0.56784677  1
  Se  Se143  1  0.57818316  0.91347796  0.05004495  1
  Se  Se144  1  0.58153637  0.91008732  0.55155627  1
  Se  Se145  1  0.90635194  0.23446030  0.04854205  1
  Se  Se146  1  0.92743791  0.26315388  0.56028845  1
  Se  Se147  1  0.91623615  0.58454947  0.05375769  1
  Se  Se148  1  0.91329948  0.58043934  0.55067373  1
  Se  Se149  1  0.91170295  0.91182230  0.05424755  1
  Se  Se150  1  0.92253656  0.92390445  0.55860233  1
  Se  Se151  1  0.07486494  0.24990107  0.44195186  1
  Se  Se152  1  0.06887544  0.26122230  0.95993459  1
  Se  Se153  1  0.08547820  0.57894045  0.44185831  1
  Se  Se154  1  0.08232687  0.58757930  0.94762362  1
  Se  Se155  1  0.08005518  0.92160304  0.43907789  1
  Se  Se156  1  0.08671667  0.91435161  0.95430833  1
  Se  Se157  1  0.41713553  0.24472608  0.45207332  1
  Se  Se158  1  0.40832439  0.25818843  0.93199738  1
  Se  Se159  1  0.41148791  0.59130309  0.43670272  1
  Se  Se160  1  0.42964480  0.57610534  0.94902248  1
  Se  Se161  1  0.42146332  0.90523923  0.44648443  1
  Se  Se162  1  0.41801849  0.91754401  0.94797100  1
  Se  Se163  1  0.74463409  0.26007951  0.43785432  1
  Se  Se164  1  0.74613254  0.24260720  0.95054614  1
  Se  Se165  1  0.74329276  0.59721952  0.45376813  1
  Se  Se166  1  0.75389683  0.57633397  0.94802104  1
  Se  Se167  1  0.74833462  0.92800369  0.43688956  1
  Se  Se168  1  0.74972606  0.91013506  0.94282086  1
  Se  Se169  1  0.25324528  0.06569257  0.44494242  1
  Se  Se170  1  0.24701204  0.08946767  0.95221338  1
  Se  Se171  1  0.24754180  0.41242300  0.44624425  1
  Se  Se172  1  0.24745683  0.42338076  0.94725635  1
  Se  Se173  1  0.25650453  0.73948371  0.43808782  1
  Se  Se174  1  0.25255039  0.75069695  0.95954158  1
  Se  Se175  1  0.57893445  0.08398447  0.44474665  1
  Se  Se176  1  0.58938887  0.07178030  0.93044438  1
  Se  Se177  1  0.59156508  0.41534691  0.43442347  1
  Se  Se178  1  0.58109756  0.41463352  0.94714472  1
  Se  Se179  1  0.59075987  0.74677928  0.45625280  1
  Se  Se180  1  0.58356882  0.74843108  0.94313615  1
  Se  Se181  1  0.92176215  0.08374678  0.44079736  1
  Se  Se182  1  0.91362182  0.07695273  0.95310385  1
  Se  Se183  1  0.91191884  0.42262690  0.44314463  1
  Se  Se184  1  0.91422655  0.41211028  0.96152193  1
  Se  Se185  1  0.92515998  0.75017535  0.43792586  1
  Se  Se186  1  0.91162569  0.75348415  0.94675758  1
  Se  Se187  1  0.24402500  0.23656636  0.31165903  1
  Se  Se188  1  0.23268722  0.24963823  0.81237257  1
  Se  Se189  1  0.23956426  0.56821676  0.30274446  1
  Se  Se190  1  0.25250228  0.59207623  0.80615778  1
  Se  Se191  1  0.25146327  0.91219698  0.29856092  1
  Se  Se192  1  0.25401170  0.91923385  0.81792758  1
  Se  Se193  1  0.56911557  0.24376043  0.31082560  1
  Se  Se194  1  0.59069328  0.25243212  0.79512958  1
  Se  Se195  1  0.57440675  0.57815259  0.30492607  1
  Se  Se196  1  0.58821393  0.58672821  0.80930308  1
  Se  Se197  1  0.58458707  0.91514950  0.30442731  1
  Se  Se198  1  0.57222201  0.90439169  0.80433239  1
  Se  Se199  1  0.91652958  0.25346401  0.29354172  1
  Se  Se200  1  0.91067261  0.24261961  0.82418028  1
  Se  Se201  1  0.91904842  0.58667617  0.30438327  1
  Se  Se202  1  0.91353729  0.57004493  0.81693287  1
  Se  Se203  1  0.91848466  0.92377568  0.29651380  1
  Se  Se204  1  0.91980584  0.91474450  0.80467025  1
  Se  Se205  1  0.07932989  0.08065980  0.29695137  1
  Se  Se206  1  0.07828763  0.08207152  0.81598437  1
  Se  Se207  1  0.07169905  0.40388943  0.30123240  1
  Se  Se208  1  0.08950684  0.42540621  0.81326984  1
  Se  Se209  1  0.08606861  0.75067698  0.29698853  1
  Se  Se210  1  0.09183876  0.75789384  0.81866056  1
  Se  Se211  1  0.41042284  0.07266087  0.30683567  1
  Se  Se212  1  0.41617657  0.09008137  0.80067671  1
  Se  Se213  1  0.41347324  0.41515627  0.29916676  1
  Se  Se214  1  0.42306903  0.42829773  0.81323339  1
  Se  Se215  1  0.42268581  0.74996941  0.30255494  1
  Se  Se216  1  0.40948410  0.74840205  0.80768443  1
  Se  Se217  1  0.75022885  0.09223441  0.29653125  1
  Se  Se218  1  0.75889716  0.08404177  0.80948465  1
  Se  Se219  1  0.75384491  0.42498807  0.30330554  1
  Se  Se220  1  0.74882250  0.40863707  0.81141076  1
  Se  Se221  1  0.76086210  0.76397108  0.31063772  1
  Se  Se222  1  0.75105505  0.74423229  0.80241340  1
  Se  Se223  1  0.25320662  0.07868003  0.19664034  1
  Se  Se224  1  0.24286101  0.09770389  0.70863464  1
  Se  Se225  1  0.23467315  0.42579451  0.18357138  1
  Se  Se226  1  0.24439081  0.42333106  0.69420941  1
  Se  Se227  1  0.24397788  0.75474601  0.17847919  1
  Se  Se228  1  0.24468560  0.75206858  0.70118366  1
  Se  Se229  1  0.58716459  0.08082452  0.19923020  1
  Se  Se230  1  0.58093815  0.08804684  0.68610415  1
  Se  Se231  1  0.58178030  0.41805361  0.19138201  1
  Se  Se232  1  0.58552936  0.41802445  0.70260819  1
  Se  Se233  1  0.57515830  0.75205932  0.18534035  1
  Se  Se234  1  0.58393026  0.75061803  0.70632196  1
  Se  Se235  1  0.91787609  0.08076270  0.19006438  1
  Se  Se236  1  0.92896661  0.07570341  0.70646730  1
  Se  Se237  1  0.92424457  0.41711782  0.18990972  1
  Se  Se238  1  0.91717397  0.42367803  0.69536451  1
  Se  Se239  1  0.91806786  0.75114755  0.19651633  1
  Se  Se240  1  0.91630841  0.75517707  0.69059618  1
  Se  Se241  1  0.08558651  0.24888761  0.18947607  1
  Se  Se242  1  0.08979456  0.24444291  0.69599736  1
  Se  Se243  1  0.08641778  0.59279473  0.19454118  1
  Se  Se244  1  0.08443054  0.58020802  0.69384765  1
  Se  Se245  1  0.08067730  0.91944344  0.19355669  1
  Se  Se246  1  0.08624499  0.91897248  0.70457215  1
  Se  Se247  1  0.42205970  0.23472262  0.18970355  1
  Se  Se248  1  0.42065309  0.25101658  0.68868372  1
  Se  Se249  1  0.41720479  0.57515508  0.18161366  1
  Se  Se250  1  0.41341865  0.58607060  0.70230136  1
  Se  Se251  1  0.41420809  0.91726960  0.19287249  1
  Se  Se252  1  0.40557841  0.93823472  0.69853460  1
  Se  Se253  1  0.76363811  0.25382140  0.17538052  1
  Se  Se254  1  0.77031963  0.23482774  0.69598016  1
  Se  Se255  1  0.76037139  0.58243219  0.19109073  1
  Se  Se256  1  0.75133709  0.58225764  0.70429137  1
  Se  Se257  1  0.74437749  0.92020652  0.19112356  1
  Se  Se258  1  0.75842081  0.90955508  0.68979442  1
