# generated using pymatgen
data_In86Cu29Se144
_symmetry_space_group_name_H-M   'P 1'
_cell_length_a   17.57922570
_cell_length_b   17.57911860
_cell_length_c   23.43528697
_cell_angle_alpha   90.01624397
_cell_angle_beta   89.97431998
_cell_angle_gamma   89.97641657
_symmetry_Int_Tables_number   1
_chemical_formula_structural   In86Cu29Se144
_chemical_formula_sum   'In86 Cu29 Se144'
_cell_volume   7242.14167264
_cell_formula_units_Z   1
loop_
 _symmetry_equiv_pos_site_id
 _symmetry_equiv_pos_as_xyz
  1  'x, y, z'
loop_
 _atom_site_type_symbol
 _atom_site_label
 _atom_site_symmetry_multiplicity
 _atom_site_fract_x
 _atom_site_fract_y
 _atom_site_fract_z
 _atom_site_occupancy
  In  In0  1  0.01242262  0.16738324  0.12480780  1
  In  In1  1  0.01052029  0.17830852  0.62033977  1
  In  In2  1  -0.00991233  0.49647824  0.12872690  1
  In  In3  1  -0.00126104  0.49527929  0.62459792  1
  In  In4  1  -0.00354450  0.82818602  0.10673913  1
  In  In5  1  -0.00262289  0.83309051  0.62026463  1
  In  In6  1  0.33343720  0.16477975  0.11532261  1
  In  In7  1  0.33940226  0.16404632  0.62314878  1
  In  In8  1  0.33337822  0.48356565  0.11723049  1
  In  In9  1  0.31552720  0.49206078  0.62493848  1
  In  In10  1  0.33369170  0.84293966  0.11840366  1
  In  In11  1  0.35023636  0.85624601  0.60639470  1
  In  In12  1  0.65307296  0.16147166  0.12310169  1
  In  In13  1  0.66754908  0.16491446  0.62444131  1
  In  In14  1  0.67277957  0.51143650  0.12263602  1
  In  In15  1  0.67411741  0.49222080  0.63006094  1
  In  In16  1  0.66898081  0.82914757  0.13034959  1
  In  In17  1  0.67136528  0.83916455  0.63450270  1
  In  In18  1  0.16553494  0.00749495  0.39218515  1
  In  In19  1  0.17810536  -0.00779393  0.87322373  1
  In  In20  1  0.16574994  0.33848290  0.38940925  1
  In  In21  1  0.15742599  0.32603515  0.86095409  1
  In  In22  1  0.16224245  0.66613703  0.38449419  1
  In  In23  1  0.17449125  0.67520035  0.87815458  1
  In  In24  1  0.50391970  -0.00889822  0.38745406  1
  In  In25  1  0.51152455  0.01434352  0.86902860  1
  In  In26  1  0.49162975  0.32385482  0.38226657  1
  In  In27  1  0.49774092  0.33125727  0.86971202  1
  In  In28  1  0.51807056  0.66607267  0.37362302  1
  In  In29  1  0.49837115  0.65026952  0.87660671  1
  In  In30  1  0.81970958  0.00903470  0.38321856  1
  In  In31  1  0.81751073  -0.00939207  0.87047611  1
  In  In32  1  0.84579821  0.32190229  0.38671006  1
  In  In33  1  0.83755056  0.33748523  0.86251686  1
  In  In34  1  0.82227060  0.67655099  0.38489431  1
  In  In35  1  0.83119323  0.69358746  0.87424171  1
  In  In36  1  -0.00496186  0.17147051  0.38080127  1
  In  In37  1  0.00304901  0.18051255  0.87118519  1
  In  In38  1  0.00878487  0.48667968  0.38419199  1
  In  In39  1  0.01153265  0.49572657  0.86731244  1
  In  In40  1  -0.00222159  0.82915664  0.38487158  1
  In  In41  1  0.00076766  0.83081715  0.88445262  1
  In  In42  1  0.33499788  0.16606588  0.40252798  1
  In  In43  1  0.33382167  0.16557943  0.86977401  1
  In  In44  1  0.32534340  0.48771228  0.38381229  1
  In  In45  1  0.34349343  0.50374689  0.86806693  1
  In  In46  1  0.32974671  0.84521620  0.39157494  1
  In  In47  1  0.32093643  0.83318808  0.87003394  1
  In  In48  1  0.67294592  0.15821618  0.38232093  1
  In  In49  1  0.65443287  0.15485373  0.86449321  1
  In  In50  1  0.66770689  0.51706777  0.37763029  1
  In  In51  1  0.65971462  0.49178914  0.86488725  1
  In  In52  1  0.66746216  0.83587878  0.37841643  1
  In  In53  1  0.68143086  0.84762335  0.85727754  1
  In  In54  1  0.16531803  0.00274270  0.11396616  1
  In  In55  1  0.18681078  0.01898636  0.60735955  1
  In  In56  1  0.16791685  0.32348437  0.12660548  1
  In  In57  1  0.17302891  0.33034953  0.63242254  1
  In  In58  1  0.15560618  0.67308725  0.12127733  1
  In  In59  1  0.16664131  0.66704132  0.61972268  1
  In  In60  1  0.49705084  0.00728455  0.12490990  1
  In  In61  1  0.50170239  0.00480120  0.62829800  1
  In  In62  1  0.49441879  0.32683468  0.11130281  1
  In  In63  1  0.50702164  0.32390917  0.62905073  1
  In  In64  1  0.51552897  0.67377468  0.12133841  1
  In  In65  1  0.49762290  0.68345179  0.62585480  1
  In  In66  1  0.82941978  -0.01205919  0.12361823  1
  In  In67  1  0.81871622  -0.00981367  0.62212459  1
  In  In68  1  0.83750748  0.34669176  0.12859719  1
  In  In69  1  0.83459690  0.33405541  0.62413297  1
  In  In70  1  0.82463736  0.66434521  0.12450232  1
  In  In71  1  0.83044985  0.66507997  0.62430037  1
  In  In72  1  0.67308886  0.33728494  0.25081869  1
  In  In73  1  -0.00660039  0.66423723  0.24810791  1
  In  In74  1  0.33488805  0.32635528  0.26440508  1
  In  In75  1  0.49853403  0.83032184  -0.00384706  1
  In  In76  1  0.33641502  0.00363777  0.25689907  1
  In  In77  1  0.17379134  0.50555623  -0.00975496  1
  In  In78  1  0.33172048  0.66541278  0.74994881  1
  In  In79  1  0.83059191  0.16516993  -0.00370178  1
  In  In80  1  0.50096271  0.50053772  0.50023209  1
  In  In81  1  -0.00651924  0.66509222  0.74699032  1
  In  In82  1  0.83345749  0.50554477  0.00145814  1
  In  In83  1  0.34474720  0.66795595  0.24901830  1
  In  In84  1  -0.00803023  -0.00167855  0.24828733  1
  In  In85  1  -0.00231526  0.00028787  0.74446620  1
  Cu  Cu86  1  0.83358191  0.17047703  0.74513492  1
  Cu  Cu87  1  0.82407258  0.83459528  0.25393923  1
  Cu  Cu88  1  0.16683209  0.49372755  0.26086552  1
  Cu  Cu89  1  0.50896464  0.50289704  0.24603191  1
  Cu  Cu90  1  0.16275991  0.16873752  0.25197291  1
  Cu  Cu91  1  0.00356675  0.00656534  -0.00444747  1
  Cu  Cu92  1  -0.00799707  -0.00096589  0.50372351  1
  Cu  Cu93  1  0.00883884  0.33237156  -0.00271508  1
  Cu  Cu94  1  0.33395858  0.00419519  -0.00550214  1
  Cu  Cu95  1  0.33621787  0.32684903  -0.00799452  1
  Cu  Cu96  1  0.83090970  0.16763202  0.25830600  1
  Cu  Cu97  1  0.65832284  0.32876977  -0.01092336  1
  Cu  Cu98  1  0.00238409  0.33218292  0.50587197  1
  Cu  Cu99  1  0.50135233  0.83785678  0.74564120  1
  Cu  Cu100  1  0.16418615  0.83867708  0.24768478  1
  Cu  Cu101  1  0.33201330  0.66893375  0.50360479  1
  Cu  Cu102  1  -0.00567252  0.65801207  0.50260056  1
  Cu  Cu103  1  0.50056456  0.16213902  0.25172083  1
  Cu  Cu104  1  0.83053320  0.50178858  0.74556086  1
  Cu  Cu105  1  0.49913815  0.49458898  0.74672534  1
  Cu  Cu106  1  0.84073608  0.49929565  0.25538954  1
  Cu  Cu107  1  0.50979279  0.83191177  0.25722238  1
  Cu  Cu108  1  0.17164844  0.16345852  0.74243249  1
  Cu  Cu109  1  0.66901160  0.33057769  0.50660924  1
  Cu  Cu110  1  0.66674044  0.67603597  0.50383403  1
  Cu  Cu111  1  0.49771849  0.16860940  0.74709114  1
  Cu  Cu112  1  0.16865288  0.83592849  0.74252422  1
  Cu  Cu113  1  0.66320686  -0.00178102  0.50487694  1
  Cu  Cu114  1  0.66595061  0.66733847  -0.00268190  1
  Se  Se115  1  0.08565144  0.09169803  0.04805602  1
  Se  Se116  1  0.07862678  0.08494992  0.55061575  1
  Se  Se117  1  0.08282690  0.41768326  0.05857376  1
  Se  Se118  1  0.08715818  0.41195304  0.56094030  1
  Se  Se119  1  0.09465306  0.75784373  0.04602504  1
  Se  Se120  1  0.07687203  0.74471502  0.55361907  1
  Se  Se121  1  0.41954399  0.08309830  0.04989003  1
  Se  Se122  1  0.41362578  0.07273076  0.55496079  1
  Se  Se123  1  0.41766820  0.41473886  0.04327118  1
  Se  Se124  1  0.41634856  0.41311460  0.56344497  1
  Se  Se125  1  0.40917199  0.74046630  0.05840971  1
  Se  Se126  1  0.42249469  0.75315450  0.54685425  1
  Se  Se127  1  0.74258142  0.07555130  0.05650920  1
  Se  Se128  1  0.75020425  0.08411306  0.55284869  1
  Se  Se129  1  0.73952637  0.40583296  0.05338022  1
  Se  Se130  1  0.75192970  0.41863406  0.55376442  1
  Se  Se131  1  0.74614120  0.74868250  0.05559125  1
  Se  Se132  1  0.74943864  0.75593040  0.56030124  1
  Se  Se133  1  0.25025902  0.25289265  0.05196745  1
  Se  Se134  1  0.23611996  0.23431566  0.56310925  1
  Se  Se135  1  0.25519450  0.58851534  0.06198170  1
  Se  Se136  1  0.24938011  0.58192060  0.55210099  1
  Se  Se137  1  0.25118621  0.91993873  0.04839955  1
  Se  Se138  1  0.22337867  0.89180372  0.55918858  1
  Se  Se139  1  0.58308542  0.24444932  0.04818150  1
  Se  Se140  1  0.58261093  0.24599450  0.55351664  1
  Se  Se141  1  0.58478126  0.58155063  0.05086057  1
  Se  Se142  1  0.58789883  0.59054659  0.56255765  1
  Se  Se143  1  0.58452400  0.91730072  0.06103122  1
  Se  Se144  1  0.58531251  0.91533443  0.56265732  1
  Se  Se145  1  0.92130771  0.25881112  0.05778439  1
  Se  Se146  1  0.91381495  0.24863555  0.55392917  1
  Se  Se147  1  0.92895295  0.59524006  0.05823890  1
  Se  Se148  1  0.91224201  0.57785153  0.55831401  1
  Se  Se149  1  0.91749949  0.92522130  0.04865498  1
  Se  Se150  1  0.90957579  0.91399409  0.55427646  1
  Se  Se151  1  0.08271971  0.24647696  0.45014182  1
  Se  Se152  1  0.09072466  0.24997118  0.94379718  1
  Se  Se153  1  0.08425737  0.57837960  0.45070088  1
  Se  Se154  1  0.07281018  0.59347727  0.93950470  1
  Se  Se155  1  0.07830311  0.91653233  0.45002797  1
  Se  Se156  1  0.08708067  0.92106371  0.94356130  1
  Se  Se157  1  0.41308388  0.26266997  0.46047851  1
  Se  Se158  1  0.42098086  0.24372612  0.94022521  1
  Se  Se159  1  0.41168395  0.59245578  0.43767882  1
  Se  Se160  1  0.40245131  0.58819864  0.94545137  1
  Se  Se161  1  0.40958538  0.92841029  0.45789190  1
  Se  Se162  1  0.41377418  0.92337748  0.93403213  1
  Se  Se163  1  0.75039906  0.24695651  0.44944446  1
  Se  Se164  1  0.74747756  0.25606941  0.93188302  1
  Se  Se165  1  0.74843628  0.58544227  0.45424284  1
  Se  Se166  1  0.74433627  0.58587661  0.93525355  1
  Se  Se167  1  0.74881199  0.91545056  0.45052244  1
  Se  Se168  1  0.74841255  0.90733380  0.94386062  1
  Se  Se169  1  0.25651734  0.07239817  0.46181852  1
  Se  Se170  1  0.24877202  0.08621024  0.94137291  1
  Se  Se171  1  0.25568715  0.40976344  0.45832734  1
  Se  Se172  1  0.25464849  0.40653706  0.93211307  1
  Se  Se173  1  0.24630234  0.75055958  0.44950091  1
  Se  Se174  1  0.25577096  0.75295639  0.94728326  1
  Se  Se175  1  0.58268193  0.08488853  0.45046032  1
  Se  Se176  1  0.59207403  0.08059205  0.94632540  1
  Se  Se177  1  0.59399592  0.40997537  0.43979326  1
  Se  Se178  1  0.57835141  0.41856409  0.93983058  1
  Se  Se179  1  0.58138900  0.75371356  0.44776705  1
  Se  Se180  1  0.58939261  0.74587822  0.93340700  1
  Se  Se181  1  0.91356011  0.08476619  0.44675574  1
  Se  Se182  1  0.92099903  0.07926807  0.93217703  1
  Se  Se183  1  0.91658801  0.41675481  0.45341183  1
  Se  Se184  1  0.92411933  0.41248373  0.94147644  1
  Se  Se185  1  0.91364599  0.74897766  0.45272623  1
  Se  Se186  1  0.91794038  0.74793863  0.95127484  1
  Se  Se187  1  0.24474515  0.23425068  0.32005617  1
  Se  Se188  1  0.25202562  0.24747917  0.79914508  1
  Se  Se189  1  0.24937593  0.58096955  0.31103490  1
  Se  Se190  1  0.23667773  0.57680646  0.80670507  1
  Se  Se191  1  0.23935862  0.91500307  0.31234682  1
  Se  Se192  1  0.25351363  0.91872271  0.79490573  1
  Se  Se193  1  0.57976224  0.24757887  0.30889595  1
  Se  Se194  1  0.58370842  0.25173573  0.79996545  1
  Se  Se195  1  0.59138655  0.58660602  0.29784319  1
  Se  Se196  1  0.57877819  0.58161915  0.79923117  1
  Se  Se197  1  0.58490757  0.92222565  0.31009442  1
  Se  Se198  1  0.58313267  0.92387297  0.79824028  1
  Se  Se199  1  0.91809720  0.25045542  0.30561589  1
  Se  Se200  1  0.92058362  0.25164798  0.79683869  1
  Se  Se201  1  0.91451909  0.58048882  0.31927777  1
  Se  Se202  1  0.90526242  0.57867863  0.81344640  1
  Se  Se203  1  0.90815989  0.90986653  0.31369141  1
  Se  Se204  1  0.91649418  0.90784307  0.80877478  1
  Se  Se205  1  0.08662768  0.08173819  0.30981620  1
  Se  Se206  1  0.08965762  0.08669549  0.80652056  1
  Se  Se207  1  0.08590170  0.40687219  0.31025124  1
  Se  Se208  1  0.07953671  0.41389616  0.79412988  1
  Se  Se209  1  0.08743366  0.75496020  0.30677701  1
  Se  Se210  1  0.08936965  0.75812033  0.80446684  1
  Se  Se211  1  0.41990560  0.09428894  0.31948490  1
  Se  Se212  1  0.41654687  0.08200046  0.80050801  1
  Se  Se213  1  0.42969671  0.42837405  0.31058920  1
  Se  Se214  1  0.41393620  0.41296003  0.79893876  1
  Se  Se215  1  0.41966074  0.76203621  0.31685095  1
  Se  Se216  1  0.42534482  0.75547354  0.80876718  1
  Se  Se217  1  0.74525053  0.08163098  0.30383454  1
  Se  Se218  1  0.75404341  0.08541023  0.80007853  1
  Se  Se219  1  0.75883763  0.42180414  0.31713004  1
  Se  Se220  1  0.74772150  0.41436133  0.79677588  1
  Se  Se221  1  0.74506834  0.74759028  0.30721243  1
  Se  Se222  1  0.73633839  0.73594431  0.79827581  1
  Se  Se223  1  0.24360566  0.08915499  0.19168233  1
  Se  Se224  1  0.25566627  0.07808939  0.69386487  1
  Se  Se225  1  0.24837793  0.41709140  0.19876580  1
  Se  Se226  1  0.24957949  0.41629846  0.70348932  1
  Se  Se227  1  0.24699249  0.75725594  0.19175453  1
  Se  Se228  1  0.25350024  0.75746129  0.68402951  1
  Se  Se229  1  0.58233813  0.07872702  0.19871766  1
  Se  Se230  1  0.58617070  0.08546305  0.69732305  1
  Se  Se231  1  0.57853577  0.41562498  0.18420332  1
  Se  Se232  1  0.58625568  0.41210478  0.69610202  1
  Se  Se233  1  0.58648101  0.74633586  0.20072506  1
  Se  Se234  1  0.58498873  0.74974796  0.69884794  1
  Se  Se235  1  0.90647218  0.09338977  0.18830177  1
  Se  Se236  1  0.91134545  0.09045603  0.68288057  1
  Se  Se237  1  0.92233537  0.41298372  0.20437329  1
  Se  Se238  1  0.91575314  0.41692922  0.69601253  1
  Se  Se239  1  0.90902178  0.76253886  0.19023808  1
  Se  Se240  1  0.90617127  0.76236353  0.69439989  1
  Se  Se241  1  0.08112079  0.25331017  0.19954941  1
  Se  Se242  1  0.08166177  0.24976979  0.70037778  1
  Se  Se243  1  0.09310962  0.57279390  0.19505178  1
  Se  Se244  1  0.09086315  0.57932035  0.69287079  1
  Se  Se245  1  0.08365759  0.91256788  0.18513117  1
  Se  Se246  1  0.09183231  0.91869237  0.68237867  1
  Se  Se247  1  0.42003701  0.24301043  0.19242800  1
  Se  Se248  1  0.41272236  0.25162046  0.69572132  1
  Se  Se249  1  0.42330879  0.57294739  0.18419796  1
  Se  Se250  1  0.42076660  0.57704425  0.68543342  1
  Se  Se251  1  0.42409542  0.90734005  0.19670854  1
  Se  Se252  1  0.41352748  0.91826577  0.69437954  1
  Se  Se253  1  0.75638483  0.24266615  0.18780132  1
  Se  Se254  1  0.74816894  0.25303172  0.69234591  1
  Se  Se255  1  0.75644846  0.57836629  0.19899802  1
  Se  Se256  1  0.74697617  0.58727844  0.69606455  1
  Se  Se257  1  0.74531611  0.91987270  0.19890131  1
  Se  Se258  1  0.74868249  0.92529638  0.70448563  1
