# generated using pymatgen
data_In86Cu29Se144
_symmetry_space_group_name_H-M   'P 1'
_cell_length_a   17.59090812
_cell_length_b   17.59166922
_cell_length_c   23.45225454
_cell_angle_alpha   89.99270539
_cell_angle_beta   89.98084984
_cell_angle_gamma   89.97223491
_symmetry_Int_Tables_number   1
_chemical_formula_structural   In86Cu29Se144
_chemical_formula_sum   'In86 Cu29 Se144'
_cell_volume   7257.37945488
_cell_formula_units_Z   1
loop_
 _symmetry_equiv_pos_site_id
 _symmetry_equiv_pos_as_xyz
  1  'x, y, z'
loop_
 _atom_site_type_symbol
 _atom_site_label
 _atom_site_symmetry_multiplicity
 _atom_site_fract_x
 _atom_site_fract_y
 _atom_site_fract_z
 _atom_site_occupancy
  In  In0  1  0.00685178  0.17506527  0.12954597  1
  In  In1  1  0.00608162  0.16896392  0.62577528  1
  In  In2  1  -0.03320491  0.52347727  0.15759590  1
  In  In3  1  -0.00119815  0.49641918  0.62358029  1
  In  In4  1  -0.01682902  0.82328505  0.11765203  1
  In  In5  1  0.00358201  0.81852295  0.63424114  1
  In  In6  1  0.33559900  0.17245504  0.12837359  1
  In  In7  1  0.33477082  0.16609978  0.62295395  1
  In  In8  1  0.33498751  0.49785395  0.13536612  1
  In  In9  1  0.31591260  0.49848052  0.62060346  1
  In  In10  1  0.33220761  0.81805006  0.12578545  1
  In  In11  1  0.33841700  0.84137231  0.62017853  1
  In  In12  1  0.66151663  0.16971490  0.13397481  1
  In  In13  1  0.67447720  0.17772822  0.62131245  1
  In  In14  1  0.68141387  0.49490440  0.13952679  1
  In  In15  1  0.66086055  0.48730582  0.61791288  1
  In  In16  1  0.66768284  0.83210332  0.12781229  1
  In  In17  1  0.66634454  0.84123374  0.62238203  1
  In  In18  1  0.16825302  0.00040835  0.38738628  1
  In  In19  1  0.16878070  -0.00278150  0.86057074  1
  In  In20  1  0.16507697  0.33628312  0.38546396  1
  In  In21  1  0.16659477  0.33570460  0.86658034  1
  In  In22  1  0.16403896  0.66349723  0.37405617  1
  In  In23  1  0.15693114  0.67909722  0.87455233  1
  In  In24  1  0.50584501  -0.00852978  0.38068522  1
  In  In25  1  0.49635442  -0.00019206  0.87356414  1
  In  In26  1  0.49169089  0.32955297  0.37193374  1
  In  In27  1  0.49801811  0.32604589  0.86780183  1
  In  In28  1  0.51034438  0.67890928  0.37135720  1
  In  In29  1  0.51586031  0.66385219  0.88148539  1
  In  In30  1  0.82586715  0.00848249  0.37069118  1
  In  In31  1  0.83923487  -0.03039310  0.87147195  1
  In  In32  1  0.85493765  0.35863669  0.35280271  1
  In  In33  1  0.84160942  0.33919137  0.86951507  1
  In  In34  1  0.82185839  0.64537829  0.35706919  1
  In  In35  1  0.83709419  0.66616242  0.88236311  1
  In  In36  1  0.00249909  0.18454220  0.38502789  1
  In  In37  1  0.00888580  0.17205791  0.86431254  1
  In  In38  1  -0.00550887  0.50016896  0.37687508  1
  In  In39  1  -0.00800756  0.49746986  0.87090838  1
  In  In40  1  0.01314105  0.82774278  0.37958176  1
  In  In41  1  -0.02426534  0.81518218  0.84322931  1
  In  In42  1  0.32407383  0.17928457  0.38953861  1
  In  In43  1  0.33692946  0.16554590  0.86501764  1
  In  In44  1  0.32484691  0.49203908  0.37301632  1
  In  In45  1  0.33617845  0.48968950  0.87054706  1
  In  In46  1  0.33626020  0.82649187  0.37946134  1
  In  In47  1  0.33011218  0.84078130  0.87327590  1
  In  In48  1  0.66176791  0.16559704  0.37057713  1
  In  In49  1  0.65923489  0.16562475  0.87259769  1
  In  In50  1  0.68202355  0.50816363  0.36564901  1
  In  In51  1  0.68159482  0.50197664  0.87735509  1
  In  In52  1  0.65245163  0.82054962  0.36785843  1
  In  In53  1  0.67441072  0.83200894  0.89315254  1
  In  In54  1  0.16483961  0.00363985  0.12558738  1
  In  In55  1  0.17003814  0.00253888  0.62240395  1
  In  In56  1  0.15928054  0.34114466  0.13429523  1
  In  In57  1  0.16495755  0.33870525  0.62371243  1
  In  In58  1  0.16614470  0.66465868  0.13361015  1
  In  In59  1  0.15087589  0.65227645  0.61363856  1
  In  In60  1  0.51601627  -0.00395580  0.12339216  1
  In  In61  1  0.49105149  -0.00629903  0.61945891  1
  In  In62  1  0.49468588  0.33751245  0.13475939  1
  In  In63  1  0.50923408  0.31890950  0.62339646  1
  In  In64  1  0.49681035  0.67386461  0.13366408  1
  In  In65  1  0.49293947  0.66639463  0.61554231  1
  In  In66  1  0.82551811  -0.01457774  0.11764832  1
  In  In67  1  0.83517837  0.00315201  0.63095665  1
  In  In68  1  0.82376276  0.34680023  0.13763606  1
  In  In69  1  0.83041105  0.33671192  0.62623340  1
  In  In70  1  0.83007918  0.66298357  0.13352741  1
  In  In71  1  0.84877862  0.66883746  0.62573312  1
  In  In72  1  0.16647979  0.16862312  0.00041159  1
  In  In73  1  0.32818643  0.66265245  0.74728840  1
  In  In74  1  0.83323927  0.16609028  -0.00101767  1
  In  In75  1  0.33579921  0.00205903  0.25638147  1
  In  In76  1  -0.00343541  0.00085845  0.24608817  1
  In  In77  1  0.83470538  0.17400141  0.50075825  1
  In  In78  1  0.66994455  0.66226161  0.75514472  1
  In  In79  1  0.15732326  0.49836255  -0.00436332  1
  In  In80  1  0.50065852  0.50194105  0.48863231  1
  In  In81  1  0.16012854  0.83407807  0.00288497  1
  In  In82  1  0.50556896  0.50057704  0.01341675  1
  In  In83  1  0.67026983  0.00075507  0.75365645  1
  In  In84  1  0.50230677  0.16430703  -0.00801780  1
  In  In85  1  0.83105504  0.82658552  0.49998511  1
  Cu  Cu86  1  0.67682780  0.67242032  0.00788075  1
  Cu  Cu87  1  0.33960460  0.66297889  0.00681907  1
  Cu  Cu88  1  0.16944598  0.49613376  0.25945626  1
  Cu  Cu89  1  0.83726813  0.17134139  0.74828395  1
  Cu  Cu90  1  0.50137039  0.16511707  0.74663460  1
  Cu  Cu91  1  0.49831163  0.83045243  0.74873917  1
  Cu  Cu92  1  0.83161049  0.83425265  0.24639939  1
  Cu  Cu93  1  0.49579090  0.17013959  0.25321433  1
  Cu  Cu94  1  0.33433523  0.00450597  0.50251831  1
  Cu  Cu95  1  0.83294186  0.49707977  0.74961596  1
  Cu  Cu96  1  0.49854495  0.48259326  0.74419097  1
  Cu  Cu97  1  0.17017652  0.83444442  0.74214898  1
  Cu  Cu98  1  0.82688408  0.16880991  0.25084544  1
  Cu  Cu99  1  0.50038315  0.50504763  0.25553731  1
  Cu  Cu100  1  0.34103187  -0.00307730  -0.00663972  1
  Cu  Cu101  1  0.67629537  0.33105104  0.49468175  1
  Cu  Cu102  1  0.16604978  0.17584076  0.26472094  1
  Cu  Cu103  1  0.00352225  -0.00143296  0.50627432  1
  Cu  Cu104  1  0.17296760  0.16950431  0.74149142  1
  Cu  Cu105  1  -0.00302616  -0.00591837  -0.01205495  1
  Cu  Cu106  1  0.50467096  0.83652455  0.25224580  1
  Cu  Cu107  1  0.33447694  0.33532328  0.50191684  1
  Cu  Cu108  1  -0.00906901  0.34481607  0.00173865  1
  Cu  Cu109  1  0.15828689  0.49907658  0.74352047  1
  Cu  Cu110  1  0.32840970  0.67764344  0.49690367  1
  Cu  Cu111  1  0.65711967  -0.00325546  0.49568006  1
  Cu  Cu112  1  0.66806692  0.34061310  0.00521713  1
  Cu  Cu113  1  -0.00144817  0.66245610  0.49787648  1
  Cu  Cu114  1  0.16407449  0.82485268  0.25044822  1
  Se  Se115  1  0.06929544  0.07403159  0.05410991  1
  Se  Se116  1  0.08514427  0.08668452  0.55484900  1
  Se  Se117  1  0.07151015  0.41897830  0.06430729  1
  Se  Se118  1  0.09971571  0.43608826  0.55669630  1
  Se  Se119  1  0.07646425  0.73400457  0.05720978  1
  Se  Se120  1  0.07682370  0.75173008  0.55172866  1
  Se  Se121  1  0.41115564  0.07910264  0.05869340  1
  Se  Se122  1  0.42139605  0.08780811  0.55220518  1
  Se  Se123  1  0.40554352  0.40831366  0.05856521  1
  Se  Se124  1  0.41845765  0.41665984  0.55993911  1
  Se  Se125  1  0.42240282  0.75016533  0.05468848  1
  Se  Se126  1  0.41657773  0.75506427  0.54989513  1
  Se  Se127  1  0.73839712  0.08343465  0.05971666  1
  Se  Se128  1  0.74424015  0.07244349  0.55460410  1
  Se  Se129  1  0.75197729  0.42147329  0.05810324  1
  Se  Se130  1  0.75371690  0.41543115  0.55073994  1
  Se  Se131  1  0.76001264  0.75429053  0.06135620  1
  Se  Se132  1  0.74201350  0.73914636  0.56223746  1
  Se  Se133  1  0.25113291  0.25951944  0.06145659  1
  Se  Se134  1  0.25184709  0.25344080  0.55756868  1
  Se  Se135  1  0.25380777  0.58322258  0.05996503  1
  Se  Se136  1  0.25060922  0.58686805  0.54772112  1
  Se  Se137  1  0.25902158  0.92492673  0.05885413  1
  Se  Se138  1  0.24996220  0.91749236  0.55211547  1
  Se  Se139  1  0.58365524  0.25855504  0.05905468  1
  Se  Se140  1  0.59084769  0.24813314  0.54680498  1
  Se  Se141  1  0.59711553  0.59129426  0.06899834  1
  Se  Se142  1  0.59031631  0.58910327  0.55220486  1
  Se  Se143  1  0.58371155  0.90752299  0.05486280  1
  Se  Se144  1  0.57897148  0.91280619  0.55244230  1
  Se  Se145  1  0.91824466  0.25721458  0.06166740  1
  Se  Se146  1  0.92739515  0.26223496  0.55679967  1
  Se  Se147  1  0.91333988  0.57869199  0.06553801  1
  Se  Se148  1  0.91572833  0.58115893  0.55331226  1
  Se  Se149  1  0.91695255  0.91643699  0.04771266  1
  Se  Se150  1  0.91898852  0.91837999  0.56157427  1
  Se  Se151  1  0.09704844  0.24193034  0.45486152  1
  Se  Se152  1  0.07403615  0.26325484  0.94409768  1
  Se  Se153  1  0.08365846  0.58086664  0.44445159  1
  Se  Se154  1  0.07015923  0.59466081  0.94016364  1
  Se  Se155  1  0.08412365  0.91388160  0.45179895  1
  Se  Se156  1  0.08211531  0.91721273  0.93128057  1
  Se  Se157  1  0.42269125  0.25332123  0.45215830  1
  Se  Se158  1  0.40539427  0.25597802  0.94213665  1
  Se  Se159  1  0.40762222  0.59533892  0.43544720  1
  Se  Se160  1  0.41333250  0.58236718  0.94243589  1
  Se  Se161  1  0.41198092  0.91832926  0.44567555  1
  Se  Se162  1  0.42148942  0.91040164  0.94297811  1
  Se  Se163  1  0.75490425  0.25620701  0.42984822  1
  Se  Se164  1  0.74110602  0.25834694  0.94087735  1
  Se  Se165  1  0.75174315  0.58678834  0.44226660  1
  Se  Se166  1  0.75141003  0.58545894  0.95062252  1
  Se  Se167  1  0.74373689  0.91958311  0.43824224  1
  Se  Se168  1  0.75171581  0.92835335  0.95186138  1
  Se  Se169  1  0.24641798  0.08771708  0.45399739  1
  Se  Se170  1  0.25519021  0.07654043  0.93845424  1
  Se  Se171  1  0.25104748  0.42173092  0.45248278  1
  Se  Se172  1  0.25480672  0.40759310  0.94327926  1
  Se  Se173  1  0.23924816  0.75518393  0.44385884  1
  Se  Se174  1  0.25864580  0.74231498  0.94526070  1
  Se  Se175  1  0.58136996  0.08792385  0.44427089  1
  Se  Se176  1  0.59630267  0.06776341  0.94370392  1
  Se  Se177  1  0.59460094  0.41075613  0.43390507  1
  Se  Se178  1  0.58446645  0.41273641  0.94071844  1
  Se  Se179  1  0.57714682  0.75882541  0.44904630  1
  Se  Se180  1  0.58513473  0.74706318  0.95478365  1
  Se  Se181  1  0.92291069  0.07456880  0.44301214  1
  Se  Se182  1  0.92255570  0.08347266  0.93225382  1
  Se  Se183  1  0.91156340  0.41413910  0.44335153  1
  Se  Se184  1  0.90839896  0.42367943  0.94554047  1
  Se  Se185  1  0.91679379  0.73945240  0.43589825  1
  Se  Se186  1  0.92103042  0.76412996  0.93627490  1
  Se  Se187  1  0.25295312  0.25808311  0.31323272  1
  Se  Se188  1  0.25149600  0.25081303  0.80168098  1
  Se  Se189  1  0.25346744  0.58602825  0.30555492  1
  Se  Se190  1  0.23681085  0.57552355  0.81059963  1
  Se  Se191  1  0.23856932  0.91199579  0.30902712  1
  Se  Se192  1  0.25666386  0.91382703  0.79575298  1
  Se  Se193  1  0.58166071  0.25386139  0.30346356  1
  Se  Se194  1  0.58562713  0.24767324  0.79985122  1
  Se  Se195  1  0.58578270  0.58857083  0.30456389  1
  Se  Se196  1  0.57347981  0.56555997  0.80678643  1
  Se  Se197  1  0.58646077  0.92332080  0.30303332  1
  Se  Se198  1  0.58307532  0.90286858  0.81131700  1
  Se  Se199  1  0.91904940  0.24101862  0.30434672  1
  Se  Se200  1  0.92142349  0.25563156  0.80048966  1
  Se  Se201  1  0.92668865  0.58124652  0.29795004  1
  Se  Se202  1  0.90875154  0.58479651  0.80548071  1
  Se  Se203  1  0.91250800  0.91043616  0.31088541  1
  Se  Se204  1  0.93536143  0.93885855  0.79384617  1
  Se  Se205  1  0.08465195  0.08459798  0.31359904  1
  Se  Se206  1  0.08907609  0.08721094  0.79678696  1
  Se  Se207  1  0.08499526  0.41484830  0.31283734  1
  Se  Se208  1  0.07820750  0.41735158  0.80296862  1
  Se  Se209  1  0.07868053  0.74472748  0.30302204  1
  Se  Se210  1  0.08791399  0.74667882  0.79245564  1
  Se  Se211  1  0.41831099  0.09360650  0.31824032  1
  Se  Se212  1  0.42018255  0.07890686  0.79997981  1
  Se  Se213  1  0.41520317  0.41850990  0.30396650  1
  Se  Se214  1  0.41185128  0.40650352  0.79971525  1
  Se  Se215  1  0.41756571  0.75510044  0.30403832  1
  Se  Se216  1  0.42430761  0.74521881  0.81044630  1
  Se  Se217  1  0.74296803  0.08206416  0.29913437  1
  Se  Se218  1  0.76362809  0.08904287  0.81303789  1
  Se  Se219  1  0.74603411  0.41539354  0.29415758  1
  Se  Se220  1  0.74761156  0.41518633  0.80346021  1
  Se  Se221  1  0.74932510  0.75207903  0.30178487  1
  Se  Se222  1  0.75252406  0.75842306  0.81270798  1
  Se  Se223  1  0.23862136  0.09364106  0.19856544  1
  Se  Se224  1  0.25542188  0.08081712  0.69315057  1
  Se  Se225  1  0.25118472  0.41419815  0.20182366  1
  Se  Se226  1  0.24973351  0.41747013  0.69762275  1
  Se  Se227  1  0.25395690  0.74489458  0.20058739  1
  Se  Se228  1  0.24467259  0.74863909  0.68125103  1
  Se  Se229  1  0.57603245  0.08497647  0.19896830  1
  Se  Se230  1  0.58405484  0.08571255  0.68685809  1
  Se  Se231  1  0.58021438  0.41993150  0.19899048  1
  Se  Se232  1  0.58857303  0.40637808  0.69243047  1
  Se  Se233  1  0.58718605  0.75068183  0.19994357  1
  Se  Se234  1  0.57761824  0.74913820  0.69041479  1
  Se  Se235  1  0.90428489  0.08972682  0.18528402  1
  Se  Se236  1  0.91876504  0.08838699  0.69398849  1
  Se  Se237  1  0.93703157  0.39147907  0.19828464  1
  Se  Se238  1  0.91663529  0.41530621  0.69515596  1
  Se  Se239  1  0.91919120  0.75019811  0.19915785  1
  Se  Se240  1  0.90797422  0.75354190  0.70245962  1
  Se  Se241  1  0.08378769  0.25104017  0.20360326  1
  Se  Se242  1  0.08520020  0.25437520  0.69478372  1
  Se  Se243  1  0.08953284  0.57983991  0.20322230  1
  Se  Se244  1  0.07560287  0.58622357  0.69480738  1
  Se  Se245  1  0.08717872  0.90550094  0.18721571  1
  Se  Se246  1  0.08554273  0.91737649  0.69013064  1
  Se  Se247  1  0.41047844  0.25236626  0.20104075  1
  Se  Se248  1  0.41816077  0.24887212  0.69330737  1
  Se  Se249  1  0.41587445  0.58605066  0.19954262  1
  Se  Se250  1  0.42276086  0.57218463  0.68862596  1
  Se  Se251  1  0.41914165  0.91251235  0.19095846  1
  Se  Se252  1  0.41767581  0.91554414  0.69641931  1
  Se  Se253  1  0.74308755  0.25415654  0.20013195  1
  Se  Se254  1  0.75012979  0.25198538  0.69692402  1
  Se  Se255  1  0.75564410  0.58166645  0.20783593  1
  Se  Se256  1  0.75138411  0.57436271  0.68764081  1
  Se  Se257  1  0.74797462  0.92067751  0.19740023  1
  Se  Se258  1  0.75884956  0.90514861  0.69701998  1
