# generated using pymatgen
data_In86Cu29Se144
_symmetry_space_group_name_H-M   'P 1'
_cell_length_a   17.57863210
_cell_length_b   17.57845536
_cell_length_c   23.42647271
_cell_angle_alpha   90.00711813
_cell_angle_beta   89.99164232
_cell_angle_gamma   89.99189041
_symmetry_Int_Tables_number   1
_chemical_formula_structural   In86Cu29Se144
_chemical_formula_sum   'In86 Cu29 Se144'
_cell_volume   7238.90166880
_cell_formula_units_Z   1
loop_
 _symmetry_equiv_pos_site_id
 _symmetry_equiv_pos_as_xyz
  1  'x, y, z'
loop_
 _atom_site_type_symbol
 _atom_site_label
 _atom_site_symmetry_multiplicity
 _atom_site_fract_x
 _atom_site_fract_y
 _atom_site_fract_z
 _atom_site_occupancy
  In  In0  1  0.00201678  0.18265919  0.10793108  1
  In  In1  1  -0.01090880  0.16922037  0.63108670  1
  In  In2  1  -0.00331884  0.49460012  0.09643698  1
  In  In3  1  0.00364926  0.50296764  0.62695665  1
  In  In4  1  0.00950059  0.82351896  0.11623833  1
  In  In5  1  0.00418351  0.82732375  0.64246232  1
  In  In6  1  0.35447221  0.18174965  0.10142910  1
  In  In7  1  0.33926329  0.15908745  0.63688493  1
  In  In8  1  0.33111960  0.49895571  0.11774708  1
  In  In9  1  0.32234671  0.51085846  0.64579001  1
  In  In10  1  0.33778229  0.83898905  0.10092015  1
  In  In11  1  0.34286338  0.82697898  0.63270026  1
  In  In12  1  0.65881817  0.17353619  0.10885320  1
  In  In13  1  0.65719535  0.16297552  0.62407183  1
  In  In14  1  0.66890195  0.49993139  0.11850087  1
  In  In15  1  0.67819709  0.49831708  0.62680955  1
  In  In16  1  0.65010711  0.82947847  0.12097601  1
  In  In17  1  0.65956208  0.84030609  0.63421815  1
  In  In18  1  0.16329586  -0.00271191  0.37564753  1
  In  In19  1  0.17222007  0.00410247  0.87724395  1
  In  In20  1  0.18345641  0.33598800  0.37314126  1
  In  In21  1  0.16865339  0.32986893  0.88192057  1
  In  In22  1  0.14970279  0.66647805  0.37527359  1
  In  In23  1  0.17026732  0.65749344  0.87135719  1
  In  In24  1  0.50309218  -0.00113480  0.38470433  1
  In  In25  1  0.49630607  -0.00139291  0.87746123  1
  In  In26  1  0.48698458  0.33064220  0.37136889  1
  In  In27  1  0.48965955  0.34144808  0.88953321  1
  In  In28  1  0.51309472  0.66245791  0.37840989  1
  In  In29  1  0.49879704  0.66723672  0.87437701  1
  In  In30  1  0.84189229  0.00877286  0.37994345  1
  In  In31  1  0.83932734  0.00726544  0.86529752  1
  In  In32  1  0.83384833  0.33238513  0.38268816  1
  In  In33  1  0.83780457  0.33424284  0.89534423  1
  In  In34  1  0.82323088  0.66686944  0.37592555  1
  In  In35  1  0.82921854  0.66080807  0.86965986  1
  In  In36  1  -0.00645081  0.15623941  0.38024912  1
  In  In37  1  0.00937847  0.16268089  0.88843203  1
  In  In38  1  0.00047620  0.50038819  0.38338588  1
  In  In39  1  0.00149203  0.50206281  0.88479963  1
  In  In40  1  0.00728411  0.83471823  0.37578752  1
  In  In41  1  0.00722551  0.83633874  0.86636598  1
  In  In42  1  0.33507860  0.17661852  0.37218661  1
  In  In43  1  0.33022257  0.15985163  0.87993840  1
  In  In44  1  0.33375237  0.48786162  0.37744679  1
  In  In45  1  0.33115198  0.50395700  0.87068345  1
  In  In46  1  0.33521401  0.84817821  0.37892934  1
  In  In47  1  0.33996991  0.83741595  0.87848967  1
  In  In48  1  0.66768561  0.16809104  0.38061849  1
  In  In49  1  0.67273163  0.16540208  0.88334198  1
  In  In50  1  0.66518321  0.51289689  0.37537843  1
  In  In51  1  0.65901310  0.49949833  0.89036738  1
  In  In52  1  0.66404686  0.82097885  0.37494745  1
  In  In53  1  0.65285031  0.82355628  0.86701392  1
  In  In54  1  0.19347006  0.01519837  0.09238437  1
  In  In55  1  0.16925678  -0.00292323  0.64206719  1
  In  In56  1  0.18535127  0.34998439  0.11049145  1
  In  In57  1  0.17010654  0.34798880  0.63239409  1
  In  In58  1  0.15855767  0.66508851  0.09823894  1
  In  In59  1  0.17071885  0.65132500  0.64294668  1
  In  In60  1  0.49789551  0.00698262  0.10962731  1
  In  In61  1  0.50230663  0.00188109  0.63090638  1
  In  In62  1  0.49085736  0.32565100  0.11463134  1
  In  In63  1  0.49630446  0.32363544  0.62760944  1
  In  In64  1  0.50414517  0.66881914  0.11993312  1
  In  In65  1  0.49087251  0.67563122  0.63249916  1
  In  In66  1  0.83104904  0.01553791  0.12237528  1
  In  In67  1  0.82496014  0.00612855  0.63760577  1
  In  In68  1  0.82718104  0.33504106  0.10480580  1
  In  In69  1  0.83286068  0.33174922  0.61831781  1
  In  In70  1  0.82588707  0.64392174  0.11356301  1
  In  In71  1  0.84088756  0.65737557  0.63493593  1
  In  In72  1  0.83106561  0.83328528  0.50067926  1
  In  In73  1  0.16573007  0.17114558  0.49722736  1
  In  In74  1  0.65892737  0.00223136  0.23680814  1
  In  In75  1  0.00249246  0.33316300  0.76427970  1
  In  In76  1  0.00458277  -0.00692623  0.25290752  1
  In  In77  1  0.66003569  0.33402021  0.24590432  1
  In  In78  1  0.17537032  0.82223779  0.51339072  1
  In  In79  1  0.66365302  0.33466690  0.75715383  1
  In  In80  1  0.33940640  0.00513229  0.24321717  1
  In  In81  1  -0.00037769  0.33765520  0.23819265  1
  In  In82  1  -0.00317028  0.65334607  0.22996712  1
  In  In83  1  0.50142098  0.49455909  0.49985586  1
  In  In84  1  0.83732436  0.83773116  -0.01277359  1
  In  In85  1  0.32982158  0.66962986  0.24454948  1
  Cu  Cu86  1  0.83223941  0.16958669  0.24586327  1
  Cu  Cu87  1  0.67164892  0.32728412  0.50124050  1
  Cu  Cu88  1  -0.00041132  0.33868520  0.50571945  1
  Cu  Cu89  1  -0.00279664  0.00139731  -0.00904120  1
  Cu  Cu90  1  0.16701135  0.16672504  0.76154113  1
  Cu  Cu91  1  0.50253816  0.50301055  0.76119465  1
  Cu  Cu92  1  0.17271461  0.49493607  0.24314128  1
  Cu  Cu93  1  0.83479271  0.49576085  0.75625508  1
  Cu  Cu94  1  0.66536424  0.00215982  0.51022963  1
  Cu  Cu95  1  0.82728594  0.50239606  0.24317965  1
  Cu  Cu96  1  0.82911672  0.83196197  0.75406440  1
  Cu  Cu97  1  0.17935329  0.17747444  0.24434234  1
  Cu  Cu98  1  0.33825927  0.65889889  -0.00890801  1
  Cu  Cu99  1  0.16582123  0.83178052  0.23252393  1
  Cu  Cu100  1  0.66148724  -0.00064380  -0.00536620  1
  Cu  Cu101  1  0.83018587  0.16680880  0.75454462  1
  Cu  Cu102  1  -0.00134067  0.65166045  0.50734654  1
  Cu  Cu103  1  0.33364904  0.33400105  0.50138286  1
  Cu  Cu104  1  0.49875615  0.82605408  0.24552039  1
  Cu  Cu105  1  0.50002154  0.83714293  0.75255179  1
  Cu  Cu106  1  0.16917532  0.83404457  0.76000864  1
  Cu  Cu107  1  0.66586985  0.66857674  -0.00498459  1
  Cu  Cu108  1  0.66761857  0.66703934  0.50209094  1
  Cu  Cu109  1  -0.00475813  0.00232547  0.51145594  1
  Cu  Cu110  1  0.33563195  0.33462419  -0.00682465  1
  Cu  Cu111  1  0.34691696  0.00477014  0.50632897  1
  Cu  Cu112  1  0.82136089  0.82211568  0.24852738  1
  Cu  Cu113  1  0.33025209  0.66289104  0.51291783  1
  Cu  Cu114  1  0.49647150  0.16545345  0.75552512  1
  Se  Se115  1  0.07821068  0.08520344  0.04740712  1
  Se  Se116  1  0.08491501  0.08037083  0.56553791  1
  Se  Se117  1  0.06910338  0.38689478  0.04657339  1
  Se  Se118  1  0.08550560  0.41762908  0.55838622  1
  Se  Se119  1  0.08919444  0.76411420  0.03645907  1
  Se  Se120  1  0.07555127  0.73723757  0.56657342  1
  Se  Se121  1  0.38313230  0.05316687  0.05183542  1
  Se  Se122  1  0.42356741  0.09103978  0.56072449  1
  Se  Se123  1  0.41620856  0.41947154  0.04864747  1
  Se  Se124  1  0.40824126  0.41637348  0.56510377  1
  Se  Se125  1  0.42080722  0.74235654  0.04623388  1
  Se  Se126  1  0.41696837  0.75145758  0.55445867  1
  Se  Se127  1  0.74391448  0.08131466  0.04953869  1
  Se  Se128  1  0.75200726  0.08434933  0.56068193  1
  Se  Se129  1  0.77127833  0.44613083  0.04852052  1
  Se  Se130  1  0.75004029  0.41676240  0.55206536  1
  Se  Se131  1  0.74752866  0.75116674  0.05480469  1
  Se  Se132  1  0.74706400  0.74589470  0.56520126  1
  Se  Se133  1  0.24846714  0.24939506  0.04414515  1
  Se  Se134  1  0.25373032  0.25300665  0.56353155  1
  Se  Se135  1  0.25156437  0.57722399  0.04431836  1
  Se  Se136  1  0.24808745  0.57957988  0.56419492  1
  Se  Se137  1  0.23201166  0.89486945  0.03800947  1
  Se  Se138  1  0.25852439  0.92786360  0.56377773  1
  Se  Se139  1  0.59414101  0.27331271  0.04400968  1
  Se  Se140  1  0.58253375  0.25256023  0.55515675  1
  Se  Se141  1  0.58472298  0.58421779  0.05108831  1
  Se  Se142  1  0.58567324  0.58764953  0.56326867  1
  Se  Se143  1  0.58052459  0.91493559  0.04845355  1
  Se  Se144  1  0.58196519  0.91621685  0.55918275  1
  Se  Se145  1  0.89145775  0.23043137  0.04626936  1
  Se  Se146  1  0.91963622  0.24787862  0.55359352  1
  Se  Se147  1  0.94482009  0.61865454  0.05345502  1
  Se  Se148  1  0.90866061  0.57398823  0.55831667  1
  Se  Se149  1  0.92033320  0.92523865  0.05864263  1
  Se  Se150  1  0.92036722  0.91532059  0.56883603  1
  Se  Se151  1  0.07450508  0.26268502  0.43652642  1
  Se  Se152  1  0.06632902  0.27111293  0.94985909  1
  Se  Se153  1  0.08868907  0.57896414  0.45096633  1
  Se  Se154  1  0.09342984  0.58179381  0.94801358  1
  Se  Se155  1  0.07942411  0.92115799  0.45295091  1
  Se  Se156  1  0.08051459  0.91880308  0.93985526  1
  Se  Se157  1  0.41529091  0.25004498  0.44790656  1
  Se  Se158  1  0.41780312  0.23969305  0.94977110  1
  Se  Se159  1  0.40830587  0.58968033  0.44400419  1
  Se  Se160  1  0.42487232  0.57407729  0.94185236  1
  Se  Se161  1  0.42217697  0.91350884  0.45296934  1
  Se  Se162  1  0.42025266  0.91657212  0.95041916  1
  Se  Se163  1  0.75621510  0.24320711  0.44892927  1
  Se  Se164  1  0.74628439  0.25143449  0.95398382  1
  Se  Se165  1  0.75059344  0.58331132  0.44958441  1
  Se  Se166  1  0.75411599  0.58561934  0.94768071  1
  Se  Se167  1  0.74042668  0.92579217  0.44056932  1
  Se  Se168  1  0.74119681  0.92287200  0.93107978  1
  Se  Se169  1  0.26022538  0.07415151  0.44181487  1
  Se  Se170  1  0.23148164  0.09950673  0.94970945  1
  Se  Se171  1  0.24750846  0.41806026  0.45128399  1
  Se  Se172  1  0.25238652  0.42121679  0.94376248  1
  Se  Se173  1  0.25687088  0.74036153  0.43983456  1
  Se  Se174  1  0.25634743  0.74306096  0.93840220  1
  Se  Se175  1  0.58698165  0.08425698  0.44912889  1
  Se  Se176  1  0.57761169  0.08654650  0.94611867  1
  Se  Se177  1  0.59212902  0.40588547  0.43785001  1
  Se  Se178  1  0.59541253  0.39745855  0.95510599  1
  Se  Se179  1  0.58242518  0.75078385  0.45080475  1
  Se  Se180  1  0.57944872  0.75193766  0.94619165  1
  Se  Se181  1  0.91375228  0.08653786  0.45755382  1
  Se  Se182  1  0.90685271  0.08425416  0.94519905  1
  Se  Se183  1  0.91495234  0.41873168  0.44876253  1
  Se  Se184  1  0.91319548  0.42948432  0.95604001  1
  Se  Se185  1  0.92804679  0.73945291  0.44350997  1
  Se  Se186  1  0.92530915  0.74359278  0.93370491  1
  Se  Se187  1  0.26089802  0.25970774  0.29860837  1
  Se  Se188  1  0.25158866  0.25081023  0.81132174  1
  Se  Se189  1  0.23883540  0.58127643  0.30803809  1
  Se  Se190  1  0.26218710  0.59192435  0.79869581  1
  Se  Se191  1  0.24029459  0.91014847  0.30016295  1
  Se  Se192  1  0.25368373  0.91914452  0.80892333  1
  Se  Se193  1  0.57823770  0.23930081  0.30784377  1
  Se  Se194  1  0.57379072  0.24711830  0.81676520  1
  Se  Se195  1  0.57420356  0.57537566  0.30445057  1
  Se  Se196  1  0.59134539  0.58053153  0.81271457  1
  Se  Se197  1  0.57721135  0.91128666  0.30517324  1
  Se  Se198  1  0.58240119  0.92295866  0.80414999  1
  Se  Se199  1  0.91498095  0.24644841  0.30648352  1
  Se  Se200  1  0.90654513  0.24340148  0.81804236  1
  Se  Se201  1  0.91192086  0.57727027  0.30641373  1
  Se  Se202  1  0.92086215  0.57670150  0.80818256  1
  Se  Se203  1  0.90263890  0.90320662  0.30855786  1
  Se  Se204  1  0.91724722  0.91655611  0.80078654  1
  Se  Se205  1  0.09621196  0.09857539  0.30558899  1
  Se  Se206  1  0.07867215  0.08418624  0.81039064  1
  Se  Se207  1  0.08683493  0.42306768  0.30609109  1
  Se  Se208  1  0.09556815  0.42811172  0.81182468  1
  Se  Se209  1  0.08259763  0.75519772  0.29519687  1
  Se  Se210  1  0.08504824  0.74305094  0.80280799  1
  Se  Se211  1  0.42742650  0.08710223  0.31004264  1
  Se  Se212  1  0.41254350  0.08089917  0.80711023  1
  Se  Se213  1  0.42218667  0.42621048  0.30457160  1
  Se  Se214  1  0.42055055  0.41380493  0.80881000  1
  Se  Se215  1  0.41757796  0.75708972  0.31166290  1
  Se  Se216  1  0.41811472  0.75284560  0.80606047  1
  Se  Se217  1  0.75544596  0.08422169  0.30378289  1
  Se  Se218  1  0.74169622  0.08614246  0.80461295  1
  Se  Se219  1  0.75672549  0.41887694  0.30745758  1
  Se  Se220  1  0.75700395  0.41806930  0.81844316  1
  Se  Se221  1  0.74051753  0.74002785  0.30199644  1
  Se  Se222  1  0.74566824  0.74548239  0.80300059  1
  Se  Se223  1  0.24785310  0.09009009  0.18296942  1
  Se  Se224  1  0.25125556  0.08395517  0.70625636  1
  Se  Se225  1  0.25952253  0.41332960  0.19337281  1
  Se  Se226  1  0.25773952  0.40722796  0.70682392  1
  Se  Se227  1  0.24598903  0.75258659  0.17424324  1
  Se  Se228  1  0.24701795  0.75484871  0.69749873  1
  Se  Se229  1  0.56988066  0.09828198  0.18389330  1
  Se  Se230  1  0.58374292  0.08696333  0.70079453  1
  Se  Se231  1  0.57380829  0.42026268  0.18371573  1
  Se  Se232  1  0.57584119  0.42473573  0.69321421  1
  Se  Se233  1  0.58564163  0.74379918  0.19665961  1
  Se  Se234  1  0.58254425  0.74924451  0.70025927  1
  Se  Se235  1  0.92337492  0.09262489  0.19131568  1
  Se  Se236  1  0.91768649  0.08383245  0.70301777  1
  Se  Se237  1  0.90805826  0.42735712  0.18069778  1
  Se  Se238  1  0.90974630  0.41190685  0.69574458  1
  Se  Se239  1  0.90570719  0.75438390  0.18288750  1
  Se  Se240  1  0.91467219  0.74523708  0.70475611  1
  Se  Se241  1  0.09595003  0.25016291  0.18287633  1
  Se  Se242  1  0.08897033  0.24446406  0.69639352  1
  Se  Se243  1  0.09474762  0.56669616  0.17558028  1
  Se  Se244  1  0.07057743  0.58156474  0.70382939  1
  Se  Se245  1  0.09060794  0.92263092  0.17885688  1
  Se  Se246  1  0.08161064  0.91791820  0.70737455  1
  Se  Se247  1  0.41974425  0.24080417  0.18772441  1
  Se  Se248  1  0.41575120  0.25228757  0.70283874  1
  Se  Se249  1  0.42046014  0.57978263  0.18836362  1
  Se  Se250  1  0.42161833  0.58620975  0.70431143  1
  Se  Se251  1  0.42359115  0.90756144  0.18329452  1
  Se  Se252  1  0.41618894  0.92027021  0.69858911  1
  Se  Se253  1  0.75438620  0.24727467  0.18453475  1
  Se  Se254  1  0.75400171  0.24837992  0.69363188  1
  Se  Se255  1  0.74278044  0.58632135  0.19374996  1
  Se  Se256  1  0.75027855  0.57860311  0.70206099  1
  Se  Se257  1  0.75588662  0.90952952  0.18476303  1
  Se  Se258  1  0.74558367  0.91836152  0.70290040  1
