# generated using pymatgen
data_In86Cu29Se144
_symmetry_space_group_name_H-M   'P 1'
_cell_length_a   17.59122427
_cell_length_b   17.59116974
_cell_length_c   23.44993715
_cell_angle_alpha   90.01459912
_cell_angle_beta   89.98115803
_cell_angle_gamma   89.99295628
_symmetry_Int_Tables_number   1
_chemical_formula_structural   In86Cu29Se144
_chemical_formula_sum   'In86 Cu29 Se144'
_cell_volume   7256.58734191
_cell_formula_units_Z   1
loop_
 _symmetry_equiv_pos_site_id
 _symmetry_equiv_pos_as_xyz
  1  'x, y, z'
loop_
 _atom_site_type_symbol
 _atom_site_label
 _atom_site_symmetry_multiplicity
 _atom_site_fract_x
 _atom_site_fract_y
 _atom_site_fract_z
 _atom_site_occupancy
  In  In0  1  0.00537811  0.16322826  0.13182020  1
  In  In1  1  -0.00829263  0.16363999  0.64114318  1
  In  In2  1  -0.01914428  0.51185297  0.13931423  1
  In  In3  1  -0.01615733  0.50597251  0.62430920  1
  In  In4  1  -0.01437040  0.83462979  0.14336904  1
  In  In5  1  0.00606365  0.84314855  0.61120701  1
  In  In6  1  0.33129269  0.15432818  0.10884906  1
  In  In7  1  0.33246203  0.14512383  0.62593814  1
  In  In8  1  0.34404160  0.50152819  0.12615602  1
  In  In9  1  0.33449694  0.50941051  0.62744107  1
  In  In10  1  0.32776536  0.84220364  0.13401831  1
  In  In11  1  0.33901250  0.84437793  0.61653721  1
  In  In12  1  0.66110776  0.16535968  0.12353784  1
  In  In13  1  0.66338269  0.17371184  0.63333430  1
  In  In14  1  0.65595460  0.49671063  0.11510371  1
  In  In15  1  0.68151319  0.49023442  0.63269034  1
  In  In16  1  0.67914885  0.84055398  0.13076655  1
  In  In17  1  0.66559330  0.83265465  0.62354843  1
  In  In18  1  0.15522499  -0.01418025  0.36929981  1
  In  In19  1  0.18207961  0.01279209  0.86306925  1
  In  In20  1  0.15991047  0.34279671  0.37125722  1
  In  In21  1  0.14688399  0.32353891  0.87564983  1
  In  In22  1  0.17181396  0.67746638  0.36834940  1
  In  In23  1  0.16054792  0.67840148  0.87601167  1
  In  In24  1  0.50017598  0.00202804  0.37242371  1
  In  In25  1  0.50841476  0.00851997  0.87068103  1
  In  In26  1  0.50629035  0.31679775  0.37498126  1
  In  In27  1  0.51239402  0.32025447  0.88066970  1
  In  In28  1  0.50338194  0.68260784  0.37378662  1
  In  In29  1  0.50893720  0.65427149  0.88338542  1
  In  In30  1  0.81937606  -0.01386929  0.36328327  1
  In  In31  1  0.82990044  0.00027788  0.86134149  1
  In  In32  1  0.83361006  0.33985899  0.36541944  1
  In  In33  1  0.84114248  0.33618670  0.87309297  1
  In  In34  1  0.83859813  0.66388648  0.37962807  1
  In  In35  1  0.81708265  0.66670996  0.87855170  1
  In  In36  1  -0.00162162  0.16131936  0.36823040  1
  In  In37  1  0.00249615  0.16984806  0.87578685  1
  In  In38  1  -0.02185388  0.49485097  0.36021960  1
  In  In39  1  -0.00292387  0.48494622  0.87964780  1
  In  In40  1  -0.00380553  0.83845619  0.37750966  1
  In  In41  1  -0.00101209  0.83642302  0.86954964  1
  In  In42  1  0.35388833  0.16517379  0.37832655  1
  In  In43  1  0.34832766  0.14514102  0.89042406  1
  In  In44  1  0.32332258  0.50314992  0.36863000  1
  In  In45  1  0.34180098  0.51286253  0.87795591  1
  In  In46  1  0.33366019  0.83736504  0.37264244  1
  In  In47  1  0.33481664  0.85230537  0.86961086  1
  In  In48  1  0.66136684  0.15956176  0.36778495  1
  In  In49  1  0.65447272  0.15206393  0.86271324  1
  In  In50  1  0.69083278  0.50194756  0.36840835  1
  In  In51  1  0.67335617  0.49892006  0.87948602  1
  In  In52  1  0.65193766  0.84158920  0.38477976  1
  In  In53  1  0.66800146  0.83738873  0.86520217  1
  In  In54  1  0.16655171  0.00271919  0.12587895  1
  In  In55  1  0.16836032  -0.01092843  0.63454820  1
  In  In56  1  0.16600212  0.31961063  0.12337790  1
  In  In57  1  0.16098334  0.31936788  0.62711005  1
  In  In58  1  0.16106889  0.67640165  0.13353411  1
  In  In59  1  0.15586383  0.67160325  0.62029322  1
  In  In60  1  0.49593894  0.00554115  0.12583220  1
  In  In61  1  0.50152456  -0.00245862  0.62339112  1
  In  In62  1  0.50480617  0.33468984  0.11596487  1
  In  In63  1  0.52193012  0.33214453  0.62676721  1
  In  In64  1  0.50392193  0.65163648  0.12783726  1
  In  In65  1  0.49953445  0.68323281  0.62181037  1
  In  In66  1  0.82776384  0.00446769  0.13798593  1
  In  In67  1  0.83990894  -0.00667846  0.63119542  1
  In  In68  1  0.81986428  0.34543171  0.13627796  1
  In  In69  1  0.82600180  0.33637782  0.63303386  1
  In  In70  1  0.84021935  0.67225578  0.12831161  1
  In  In71  1  0.82637901  0.65760798  0.61533333  1
  In  In72  1  -0.00202474  0.67083884  0.74956998  1
  In  In73  1  0.16797870  0.83674814  0.00417133  1
  In  In74  1  0.51003110  0.50217808  0.49599223  1
  In  In75  1  0.82976205  0.16716636  0.00120514  1
  In  In76  1  0.50478196  0.83404891  -0.00116396  1
  In  In77  1  0.66783673  0.66772086  0.25107698  1
  In  In78  1  0.33358646  0.32645830  0.76020769  1
  In  In79  1  0.17034437  0.48779667  0.00372290  1
  In  In80  1  0.16012114  0.50367948  0.48888226  1
  In  In81  1  0.33166960  0.33232492  0.24555279  1
  In  In82  1  0.83242210  0.16390798  0.50637298  1
  In  In83  1  0.83142263  0.83233095  0.00186427  1
  In  In84  1  0.33827801  0.67506424  0.74642134  1
  In  In85  1  0.16590403  0.15718804  0.50261298  1
  Cu  Cu86  1  0.83112471  0.82933713  0.74395520  1
  Cu  Cu87  1  0.66931673  0.33247159  -0.00177564  1
  Cu  Cu88  1  0.66837106  0.66893868  0.49880433  1
  Cu  Cu89  1  -0.00340468  0.67138764  0.49526414  1
  Cu  Cu90  1  0.16775935  0.49226301  0.75531384  1
  Cu  Cu91  1  -0.00394972  0.33808626  0.49724463  1
  Cu  Cu92  1  0.83127805  0.49961835  0.75150541  1
  Cu  Cu93  1  0.83510849  0.16902548  0.24921772  1
  Cu  Cu94  1  0.33339370  0.33257845  0.00103218  1
  Cu  Cu95  1  0.33914096  0.66847956  0.00439062  1
  Cu  Cu96  1  0.16633017  0.83722186  0.25312926  1
  Cu  Cu97  1  0.49286833  0.16384585  0.74893260  1
  Cu  Cu98  1  0.51704523  0.49880248  0.75590552  1
  Cu  Cu99  1  0.50145277  0.49843205  0.24430711  1
  Cu  Cu100  1  0.15808526  0.50689960  0.25108776  1
  Cu  Cu101  1  0.50191924  0.83704507  0.74679719  1
  Cu  Cu102  1  -0.00185088  0.65940376  0.00610960  1
  Cu  Cu103  1  0.67428763  0.32959993  0.50389802  1
  Cu  Cu104  1  0.15914599  0.16230510  0.75273517  1
  Cu  Cu105  1  0.17519831  0.16372038  0.24665746  1
  Cu  Cu106  1  0.33613314  -0.00439193  0.49721282  1
  Cu  Cu107  1  0.00302708  0.00279622  0.00403912  1
  Cu  Cu108  1  0.66094614  -0.00068785  0.49787983  1
  Cu  Cu109  1  0.50249470  0.16274116  0.24626481  1
  Cu  Cu110  1  -0.00514470  -0.00266469  0.50017067  1
  Cu  Cu111  1  0.34827996  0.32985593  0.50226199  1
  Cu  Cu112  1  0.33119054  0.67699160  0.49328295  1
  Cu  Cu113  1  0.49718808  0.83997195  0.25362782  1
  Cu  Cu114  1  -0.00614592  0.33172162  0.00315626  1
  Se  Se115  1  0.08457390  0.08644678  0.05694037  1
  Se  Se116  1  0.06987572  0.07869624  0.56421993  1
  Se  Se117  1  0.07222710  0.41304351  0.06575169  1
  Se  Se118  1  0.08064689  0.41324781  0.55858772  1
  Se  Se119  1  0.06865941  0.75120145  0.06177994  1
  Se  Se120  1  0.08501284  0.75149324  0.54570645  1
  Se  Se121  1  0.43593290  0.09175760  0.04833754  1
  Se  Se122  1  0.41780915  0.07972812  0.55164129  1
  Se  Se123  1  0.41447005  0.41858109  0.05257823  1
  Se  Se124  1  0.41807602  0.41713705  0.56246075  1
  Se  Se125  1  0.41322903  0.75122378  0.06514483  1
  Se  Se126  1  0.41633478  0.75458273  0.54894147  1
  Se  Se127  1  0.74514103  0.06991445  0.05795713  1
  Se  Se128  1  0.73969605  0.07467657  0.56320565  1
  Se  Se129  1  0.75061742  0.41464941  0.05366709  1
  Se  Se130  1  0.75623736  0.41580545  0.55465925  1
  Se  Se131  1  0.74073125  0.74078903  0.05873132  1
  Se  Se132  1  0.75048607  0.75296102  0.55259019  1
  Se  Se133  1  0.24743676  0.24849798  0.04934439  1
  Se  Se134  1  0.26046639  0.25271591  0.55837567  1
  Se  Se135  1  0.24980511  0.59251448  0.06066221  1
  Se  Se136  1  0.25474575  0.59079338  0.55227867  1
  Se  Se137  1  0.26368274  0.92834223  0.05467696  1
  Se  Se138  1  0.24510413  0.92303331  0.55311407  1
  Se  Se139  1  0.58603285  0.24741354  0.04991699  1
  Se  Se140  1  0.58779043  0.24582564  0.55269490  1
  Se  Se141  1  0.57751612  0.58548961  0.04884261  1
  Se  Se142  1  0.59235338  0.58754693  0.56386269  1
  Se  Se143  1  0.59398222  0.92080556  0.06080811  1
  Se  Se144  1  0.58087489  0.91323495  0.55332016  1
  Se  Se145  1  0.91555411  0.25306786  0.06645133  1
  Se  Se146  1  0.92568273  0.25608775  0.56217334  1
  Se  Se147  1  0.91046546  0.58126686  0.05679922  1
  Se  Se148  1  0.91623717  0.58184674  0.54583986  1
  Se  Se149  1  0.92162885  0.92365225  0.06281443  1
  Se  Se150  1  0.90569795  0.91609704  0.55006187  1
  Se  Se151  1  0.07885330  0.25486027  0.44280609  1
  Se  Se152  1  0.07816205  0.24603794  0.95396168  1
  Se  Se153  1  0.07056233  0.59021281  0.42941188  1
  Se  Se154  1  0.08202766  0.58592302  0.94433241  1
  Se  Se155  1  0.08375106  0.91593595  0.45001798  1
  Se  Se156  1  0.07810636  0.92157019  0.94097684  1
  Se  Se157  1  0.42985917  0.24418003  0.45266429  1
  Se  Se158  1  0.41783317  0.25022110  0.94763571  1
  Se  Se159  1  0.40958941  0.58773872  0.43897356  1
  Se  Se160  1  0.42118395  0.58136678  0.95472179  1
  Se  Se161  1  0.42037041  0.91569161  0.44192366  1
  Se  Se162  1  0.41513453  0.92821004  0.94353651  1
  Se  Se163  1  0.74855860  0.24954997  0.43850881  1
  Se  Se164  1  0.74329574  0.25056223  0.93491780  1
  Se  Se165  1  0.75117832  0.58274991  0.44826911  1
  Se  Se166  1  0.75808621  0.57594344  0.95049884  1
  Se  Se167  1  0.74948308  0.91899592  0.44691155  1
  Se  Se168  1  0.74734725  0.92340872  0.93859188  1
  Se  Se169  1  0.25544456  0.07638868  0.43642259  1
  Se  Se170  1  0.24181503  0.08049324  0.94837056  1
  Se  Se171  1  0.26204252  0.40532292  0.44387278  1
  Se  Se172  1  0.25715645  0.40810478  0.93342159  1
  Se  Se173  1  0.24565306  0.75849648  0.44257368  1
  Se  Se174  1  0.26275973  0.74785053  0.94168363  1
  Se  Se175  1  0.58242224  0.08525238  0.44318581  1
  Se  Se176  1  0.58564008  0.08523146  0.94489044  1
  Se  Se177  1  0.59687710  0.40840018  0.43822516  1
  Se  Se178  1  0.58342719  0.41638574  0.94559944  1
  Se  Se179  1  0.57712258  0.75083487  0.45358112  1
  Se  Se180  1  0.59931322  0.74649454  0.94191629  1
  Se  Se181  1  0.91680091  0.07765242  0.43987042  1
  Se  Se182  1  0.91775524  0.07314825  0.94118496  1
  Se  Se183  1  0.91308613  0.41600551  0.44089891  1
  Se  Se184  1  0.91101893  0.41653416  0.95248611  1
  Se  Se185  1  0.91156775  0.75690753  0.44661154  1
  Se  Se186  1  0.92613129  0.74251739  0.94080022  1
  Se  Se187  1  0.24801633  0.24359581  0.31381250  1
  Se  Se188  1  0.24268401  0.23602807  0.81660712  1
  Se  Se189  1  0.24837005  0.58731724  0.29936926  1
  Se  Se190  1  0.24295897  0.58273101  0.80810361  1
  Se  Se191  1  0.25396787  0.92135241  0.30201013  1
  Se  Se192  1  0.24180449  0.90910584  0.79871136  1
  Se  Se193  1  0.58500153  0.24891946  0.29760915  1
  Se  Se194  1  0.57898093  0.24851407  0.79854355  1
  Se  Se195  1  0.57634493  0.57517950  0.31229086  1
  Se  Se196  1  0.59359502  0.58688405  0.80883703  1
  Se  Se197  1  0.58622859  0.91965449  0.30426894  1
  Se  Se198  1  0.58443107  0.92216601  0.79992590  1
  Se  Se199  1  0.91875547  0.25011419  0.30358207  1
  Se  Se200  1  0.92531527  0.25433688  0.80761114  1
  Se  Se201  1  0.90233753  0.58807704  0.29790269  1
  Se  Se202  1  0.91372512  0.57897727  0.81230642  1
  Se  Se203  1  0.93619809  0.93772309  0.30879153  1
  Se  Se204  1  0.91439805  0.91059906  0.79942777  1
  Se  Se205  1  0.08983418  0.08510421  0.30307830  1
  Se  Se206  1  0.07467619  0.07816723  0.80527468  1
  Se  Se207  1  0.07811625  0.41723330  0.30031602  1
  Se  Se208  1  0.07845351  0.41333124  0.80414143  1
  Se  Se209  1  0.07965360  0.75648206  0.30580617  1
  Se  Se210  1  0.09652594  0.76411489  0.79872359  1
  Se  Se211  1  0.41671593  0.08323955  0.30053730  1
  Se  Se212  1  0.41178233  0.08023707  0.80358937  1
  Se  Se213  1  0.42405316  0.41845356  0.30963206  1
  Se  Se214  1  0.42615661  0.42351890  0.81155060  1
  Se  Se215  1  0.41504175  0.75117717  0.30253506  1
  Se  Se216  1  0.42912013  0.75574450  0.81384559  1
  Se  Se217  1  0.74877902  0.08331979  0.29913273  1
  Se  Se218  1  0.75717297  0.09308474  0.79687384  1
  Se  Se219  1  0.73881438  0.40493104  0.29612581  1
  Se  Se220  1  0.75125831  0.41602880  0.80712293  1
  Se  Se221  1  0.74493978  0.75550064  0.31960760  1
  Se  Se222  1  0.75072039  0.74809031  0.80115136  1
  Se  Se223  1  0.25752419  0.08509558  0.19009590  1
  Se  Se224  1  0.24597168  0.08127336  0.70020789  1
  Se  Se225  1  0.23887347  0.42665858  0.18888337  1
  Se  Se226  1  0.24814028  0.41793911  0.69172717  1
  Se  Se227  1  0.25062375  0.75249083  0.20012689  1
  Se  Se228  1  0.24567195  0.75664682  0.68443875  1
  Se  Se229  1  0.58769675  0.07784902  0.19527190  1
  Se  Se230  1  0.57836621  0.08305953  0.69451054  1
  Se  Se231  1  0.58115933  0.41488564  0.19027511  1
  Se  Se232  1  0.59413256  0.41186149  0.70138798  1
  Se  Se233  1  0.57506425  0.75876046  0.19096987  1
  Se  Se234  1  0.58407003  0.74968703  0.69623230  1
  Se  Se235  1  0.92087735  0.08302252  0.20030908  1
  Se  Se236  1  0.89686931  0.09055249  0.70308709  1
  Se  Se237  1  0.92517001  0.40371527  0.19938170  1
  Se  Se238  1  0.91722714  0.41938390  0.69715684  1
  Se  Se239  1  0.91066514  0.74386435  0.20777569  1
  Se  Se240  1  0.91258330  0.75231872  0.68182410  1
  Se  Se241  1  0.08795297  0.24952084  0.20040728  1
  Se  Se242  1  0.07975486  0.25205321  0.70238891  1
  Se  Se243  1  0.07645862  0.59257155  0.19872010  1
  Se  Se244  1  0.09076016  0.57394314  0.69243994  1
  Se  Se245  1  0.08605433  0.91840339  0.19485239  1
  Se  Se246  1  0.06139099  0.92499660  0.69192679  1
  Se  Se247  1  0.42017167  0.24336082  0.18550620  1
  Se  Se248  1  0.41763980  0.24763000  0.68687511  1
  Se  Se249  1  0.41359503  0.58577122  0.20107778  1
  Se  Se250  1  0.43362465  0.57628857  0.69531407  1
  Se  Se251  1  0.41664445  0.92364045  0.19759280  1
  Se  Se252  1  0.41538612  0.91730273  0.69394433  1
  Se  Se253  1  0.74616812  0.24371875  0.19382208  1
  Se  Se254  1  0.75546933  0.24493501  0.69930885  1
  Se  Se255  1  0.74725284  0.57703945  0.18598819  1
  Se  Se256  1  0.75374844  0.58749889  0.69692236  1
  Se  Se257  1  0.77091213  0.89918335  0.20249151  1
  Se  Se258  1  0.74576611  0.91476354  0.69455491  1
