# generated using pymatgen
data_In86Cu29Se144
_symmetry_space_group_name_H-M   'P 1'
_cell_length_a   17.59174566
_cell_length_b   17.58407860
_cell_length_c   23.44757018
_cell_angle_alpha   90.01009012
_cell_angle_beta   89.98288590
_cell_angle_gamma   90.00294549
_symmetry_Int_Tables_number   1
_chemical_formula_structural   In86Cu29Se144
_chemical_formula_sum   'In86 Cu29 Se144'
_cell_volume   7253.14519778
_cell_formula_units_Z   1
loop_
 _symmetry_equiv_pos_site_id
 _symmetry_equiv_pos_as_xyz
  1  'x, y, z'
loop_
 _atom_site_type_symbol
 _atom_site_label
 _atom_site_symmetry_multiplicity
 _atom_site_fract_x
 _atom_site_fract_y
 _atom_site_fract_z
 _atom_site_occupancy
  In  In0  1  -0.00612841  0.17580582  0.11878465  1
  In  In1  1  0.00409506  0.15990036  0.63774022  1
  In  In2  1  0.00943954  0.49691633  0.12316810  1
  In  In3  1  -0.00550221  0.51498656  0.63249330  1
  In  In4  1  -0.01460134  0.83421187  0.12194543  1
  In  In5  1  -0.00016006  0.83523660  0.62678436  1
  In  In6  1  0.33154180  0.14737280  0.12553762  1
  In  In7  1  0.34442334  0.15118660  0.62816578  1
  In  In8  1  0.34245701  0.51372981  0.11724377  1
  In  In9  1  0.35368739  0.51945989  0.62294755  1
  In  In10  1  0.34095631  0.81923490  0.12908281  1
  In  In11  1  0.34350451  0.83516605  0.63166552  1
  In  In12  1  0.64482036  0.13939193  0.10536224  1
  In  In13  1  0.65865175  0.17725680  0.62091945  1
  In  In14  1  0.65686958  0.51518026  0.12526285  1
  In  In15  1  0.68027264  0.50778968  0.61776179  1
  In  In16  1  0.66834309  0.83862323  0.11650538  1
  In  In17  1  0.64951521  0.81526419  0.61616159  1
  In  In18  1  0.16883944  -0.02528132  0.37825203  1
  In  In19  1  0.17360291  -0.00970750  0.85979194  1
  In  In20  1  0.15659991  0.33185376  0.37719038  1
  In  In21  1  0.17140320  0.35512891  0.87741291  1
  In  In22  1  0.17918144  0.67903614  0.36763742  1
  In  In23  1  0.16310888  0.66771584  0.86506429  1
  In  In24  1  0.50117661  -0.00646498  0.37319082  1
  In  In25  1  0.49845689  0.00145365  0.87887871  1
  In  In26  1  0.50477505  0.33537850  0.38576261  1
  In  In27  1  0.48655109  0.33123519  0.88950595  1
  In  In28  1  0.48463162  0.67501906  0.38996472  1
  In  In29  1  0.50004922  0.66728254  0.86976986  1
  In  In30  1  0.82423052  -0.00000556  0.37305319  1
  In  In31  1  0.82805274  -0.01051599  0.88639682  1
  In  In32  1  0.83687819  0.34027913  0.37715305  1
  In  In33  1  0.83346118  0.32200500  0.87714170  1
  In  In34  1  0.84342501  0.65740206  0.38072525  1
  In  In35  1  0.83951621  0.67343141  0.86872804  1
  In  In36  1  -0.00804732  0.17440915  0.37471851  1
  In  In37  1  -0.00743119  0.15529061  0.86723474  1
  In  In38  1  -0.01879032  0.51302938  0.38332868  1
  In  In39  1  0.01210001  0.51381637  0.86591124  1
  In  In40  1  0.01306193  0.82015711  0.38557114  1
  In  In41  1  -0.00854792  0.82464684  0.86367998  1
  In  In42  1  0.34956454  0.16047544  0.37411084  1
  In  In43  1  0.34652506  0.16302008  0.87653734  1
  In  In44  1  0.33497514  0.51468389  0.37738446  1
  In  In45  1  0.32462870  0.50526427  0.88481939  1
  In  In46  1  0.33487518  0.83089741  0.37454236  1
  In  In47  1  0.34981587  0.84068958  0.84790370  1
  In  In48  1  0.67052045  0.14601235  0.36868403  1
  In  In49  1  0.65789028  0.16064817  0.88812456  1
  In  In50  1  0.66584172  0.50004111  0.38476064  1
  In  In51  1  0.65315553  0.49734388  0.87648122  1
  In  In52  1  0.65883264  0.83891913  0.38124258  1
  In  In53  1  0.67126545  0.83421561  0.87954608  1
  In  In54  1  0.17568898  0.00589208  0.12570340  1
  In  In55  1  0.18607579  -0.02495981  0.64676507  1
  In  In56  1  0.15584697  0.33905153  0.11974182  1
  In  In57  1  0.16402432  0.32910689  0.63116011  1
  In  In58  1  0.17096660  0.66054541  0.12762986  1
  In  In59  1  0.16828346  0.68050197  0.63430589  1
  In  In60  1  0.50124151  -0.01305040  0.12153352  1
  In  In61  1  0.48936712  -0.01360212  0.61703991  1
  In  In62  1  0.49751073  0.33831259  0.11704316  1
  In  In63  1  0.51403809  0.33840034  0.60959441  1
  In  In64  1  0.49238172  0.66306355  0.11788815  1
  In  In65  1  0.50761925  0.67834960  0.63386308  1
  In  In66  1  0.81504661  -0.01446669  0.10807522  1
  In  In67  1  0.84636308  -0.00674260  0.62932522  1
  In  In68  1  0.83890302  0.32621978  0.12319018  1
  In  In69  1  0.83140086  0.35236836  0.62539099  1
  In  In70  1  0.82568967  0.67943688  0.12820210  1
  In  In71  1  0.83254429  0.67011208  0.62493481  1
  In  In72  1  0.16610643  0.82844416  -0.01398678  1
  In  In73  1  0.83190869  0.50276259  0.00560014  1
  In  In74  1  0.82792151  0.16474993  0.49820463  1
  In  In75  1  0.33415384  0.33357172  0.75312854  1
  In  In76  1  0.66386563  -0.00355984  0.75374626  1
  In  In77  1  0.66545744  0.33681391  0.75371064  1
  In  In78  1  0.66876287  0.33225990  0.25551568  1
  In  In79  1  0.00018325  0.33870065  0.24566142  1
  In  In80  1  0.16917556  0.17146244  -0.00089068  1
  In  In81  1  0.00465233  -0.00086451  0.24971924  1
  In  In82  1  0.33563419  0.33573176  0.24057014  1
  In  In83  1  0.66562430  0.67008712  0.25448196  1
  In  In84  1  0.17624551  0.15653382  0.51515668  1
  In  In85  1  0.17132509  0.51180554  0.51116039  1
  Cu  Cu86  1  0.16972620  0.82648356  0.25154897  1
  Cu  Cu87  1  0.33672578  -0.00706618  0.50227872  1
  Cu  Cu88  1  0.83539938  0.83464419  0.24872999  1
  Cu  Cu89  1  0.66131725  0.66898178  -0.00168679  1
  Cu  Cu90  1  -0.00537101  0.33195571  0.50489585  1
  Cu  Cu91  1  0.83525751  0.16827653  0.75527256  1
  Cu  Cu92  1  0.16424636  0.16818558  0.75095416  1
  Cu  Cu93  1  0.50194542  0.50945103  0.75028451  1
  Cu  Cu94  1  0.00218323  -0.01108172  0.50551837  1
  Cu  Cu95  1  0.33780866  0.34118287  0.49918675  1
  Cu  Cu96  1  0.83883564  0.50582093  0.74789910  1
  Cu  Cu97  1  0.83125008  0.83263642  0.74962348  1
  Cu  Cu98  1  0.82391732  0.15956065  0.23906598  1
  Cu  Cu99  1  0.50407310  0.15141959  0.24724212  1
  Cu  Cu100  1  -0.00781937  0.00025071  -0.00546779  1
  Cu  Cu101  1  0.33967697  0.67280639  -0.00428441  1
  Cu  Cu102  1  0.00201318  0.66994365  -0.00949088  1
  Cu  Cu103  1  0.00348811  0.34130076  -0.00602585  1
  Cu  Cu104  1  0.66282790  0.33221582  -0.00209213  1
  Cu  Cu105  1  0.17602695  0.15949368  0.25398444  1
  Cu  Cu106  1  0.16960707  0.50024302  0.74915450  1
  Cu  Cu107  1  0.66502985  -0.00141997  0.49774884  1
  Cu  Cu108  1  0.49840351  0.16402179  0.75192075  1
  Cu  Cu109  1  0.33504076  -0.01121369  -0.00349823  1
  Cu  Cu110  1  0.16317130  0.51017343  0.24978938  1
  Cu  Cu111  1  -0.00334973  0.66723118  0.50614231  1
  Cu  Cu112  1  0.66681537  0.66666513  0.50255499  1
  Cu  Cu113  1  0.50121467  0.83403384  0.25300985  1
  Cu  Cu114  1  0.49464938  0.50878932  0.25104141  1
  Se  Se115  1  0.07549745  0.07523605  0.05623306  1
  Se  Se116  1  0.07932864  0.06927652  0.56677934  1
  Se  Se117  1  0.08682983  0.42447150  0.04588737  1
  Se  Se118  1  0.07764022  0.41310755  0.56205575  1
  Se  Se119  1  0.07919842  0.74813307  0.05654747  1
  Se  Se120  1  0.08157684  0.74849341  0.55927278  1
  Se  Se121  1  0.41319257  0.07158287  0.05429507  1
  Se  Se122  1  0.42036230  0.08350953  0.54874553  1
  Se  Se123  1  0.41233523  0.41914905  0.05291000  1
  Se  Se124  1  0.41837903  0.42374103  0.55408752  1
  Se  Se125  1  0.42194424  0.75677675  0.04905673  1
  Se  Se126  1  0.43243952  0.76274756  0.56224789  1
  Se  Se127  1  0.77368233  0.10921159  0.05953748  1
  Se  Se128  1  0.74413710  0.07403733  0.56300832  1
  Se  Se129  1  0.73811004  0.41141335  0.06309702  1
  Se  Se130  1  0.73405087  0.39979330  0.55370242  1
  Se  Se131  1  0.74947427  0.74876513  0.05049029  1
  Se  Se132  1  0.75295866  0.75162235  0.55263928  1
  Se  Se133  1  0.25715439  0.25398881  0.06509657  1
  Se  Se134  1  0.26551119  0.25966266  0.56406657  1
  Se  Se135  1  0.25248112  0.59271148  0.05028617  1
  Se  Se136  1  0.26331322  0.60739273  0.56085701  1
  Se  Se137  1  0.25082114  0.91323631  0.05658956  1
  Se  Se138  1  0.25465201  0.91489911  0.56070736  1
  Se  Se139  1  0.57815283  0.25005416  0.05167528  1
  Se  Se140  1  0.57706923  0.23948651  0.54412362  1
  Se  Se141  1  0.57809270  0.58255759  0.04835720  1
  Se  Se142  1  0.58349267  0.58965502  0.56155363  1
  Se  Se143  1  0.59096266  0.92268438  0.04694908  1
  Se  Se144  1  0.58195792  0.91386497  0.55021798  1
  Se  Se145  1  0.91932224  0.25761624  0.04572846  1
  Se  Se146  1  0.91920574  0.24735721  0.56475356  1
  Se  Se147  1  0.92463373  0.59614772  0.05943537  1
  Se  Se148  1  0.91246999  0.58066244  0.55534091  1
  Se  Se149  1  0.91283275  0.91112465  0.04567573  1
  Se  Se150  1  0.91106638  0.90924534  0.55291624  1
  Se  Se151  1  0.07871662  0.24683205  0.45249219  1
  Se  Se152  1  0.07879274  0.25476537  0.93451056  1
  Se  Se153  1  0.08223857  0.59237376  0.44334403  1
  Se  Se154  1  0.08963271  0.58710879  0.94270937  1
  Se  Se155  1  0.08986347  0.90722324  0.45532937  1
  Se  Se156  1  0.07447024  0.92486464  0.93351648  1
  Se  Se157  1  0.41300929  0.25102405  0.44598722  1
  Se  Se158  1  0.41185535  0.23983432  0.95434849  1
  Se  Se159  1  0.41882347  0.57432625  0.45366350  1
  Se  Se160  1  0.42146173  0.58501768  0.94352731  1
  Se  Se161  1  0.41873826  0.91347893  0.44376154  1
  Se  Se162  1  0.41017201  0.90722712  0.93591902  1
  Se  Se163  1  0.74161751  0.25156301  0.43384375  1
  Se  Se164  1  0.74747885  0.24948443  0.94733712  1
  Se  Se165  1  0.75186796  0.58419747  0.44912927  1
  Se  Se166  1  0.74552664  0.58807041  0.93983337  1
  Se  Se167  1  0.75251471  0.91731675  0.44656605  1
  Se  Se168  1  0.72599878  0.93191023  0.95263315  1
  Se  Se169  1  0.25558618  0.07438659  0.44109575  1
  Se  Se170  1  0.24964201  0.07016751  0.94028207  1
  Se  Se171  1  0.24781080  0.41315123  0.44276414  1
  Se  Se172  1  0.26569039  0.40321679  0.95140923  1
  Se  Se173  1  0.24720542  0.75498890  0.44408378  1
  Se  Se174  1  0.26374058  0.74733327  0.92893619  1
  Se  Se175  1  0.58329847  0.08032004  0.44217693  1
  Se  Se176  1  0.57027454  0.08353855  0.95292796  1
  Se  Se177  1  0.58285612  0.42000325  0.45185020  1
  Se  Se178  1  0.57791033  0.41727235  0.94923641  1
  Se  Se179  1  0.58338468  0.75077452  0.44951572  1
  Se  Se180  1  0.58046632  0.74938748  0.94130761  1
  Se  Se181  1  0.92751422  0.07295034  0.44343803  1
  Se  Se182  1  0.91108949  0.08769279  0.94395357  1
  Se  Se183  1  0.91414346  0.41662851  0.45165612  1
  Se  Se184  1  0.91997755  0.42259365  0.93654545  1
  Se  Se185  1  0.91483429  0.74983546  0.44966915  1
  Se  Se186  1  0.91478029  0.75413513  0.94342913  1
  Se  Se187  1  0.24838361  0.24993847  0.31073000  1
  Se  Se188  1  0.24384560  0.24458320  0.81466620  1
  Se  Se189  1  0.25412215  0.58502649  0.30189117  1
  Se  Se190  1  0.25339576  0.57886557  0.80540390  1
  Se  Se191  1  0.25277666  0.91290511  0.30148375  1
  Se  Se192  1  0.23411813  0.89258809  0.79073021  1
  Se  Se193  1  0.57306516  0.23991842  0.30886585  1
  Se  Se194  1  0.57441312  0.24645542  0.81341042  1
  Se  Se195  1  0.57544098  0.58180691  0.31506543  1
  Se  Se196  1  0.59179739  0.58633251  0.80267566  1
  Se  Se197  1  0.58879443  0.91590361  0.30250877  1
  Se  Se198  1  0.57267855  0.90609467  0.80932876  1
  Se  Se199  1  0.90158023  0.24296211  0.29925217  1
  Se  Se200  1  0.92001526  0.25486545  0.80350165  1
  Se  Se201  1  0.91938373  0.58732487  0.30220633  1
  Se  Se202  1  0.92200578  0.59095042  0.80019412  1
  Se  Se203  1  0.91841760  0.90970343  0.31227553  1
  Se  Se204  1  0.90537930  0.92062221  0.80741135  1
  Se  Se205  1  0.09096507  0.08859235  0.31670569  1
  Se  Se206  1  0.08427224  0.07954848  0.80175350  1
  Se  Se207  1  0.08489122  0.42921168  0.31109376  1
  Se  Se208  1  0.08512744  0.41683076  0.80073894  1
  Se  Se209  1  0.07942092  0.74789402  0.30258582  1
  Se  Se210  1  0.08424417  0.75416428  0.79843141  1
  Se  Se211  1  0.41657262  0.07392063  0.30129100  1
  Se  Se212  1  0.41610548  0.07831312  0.80323482  1
  Se  Se213  1  0.42101826  0.41917318  0.30936163  1
  Se  Se214  1  0.42530010  0.42441536  0.81076696  1
  Se  Se215  1  0.42088936  0.74767681  0.30609586  1
  Se  Se216  1  0.40771547  0.72602447  0.79424397  1
  Se  Se217  1  0.74929926  0.07168749  0.29386799  1
  Se  Se218  1  0.75037913  0.09148199  0.81306401  1
  Se  Se219  1  0.75777352  0.42940075  0.30800925  1
  Se  Se220  1  0.76060987  0.42656783  0.81162935  1
  Se  Se221  1  0.75780396  0.75762320  0.31401069  1
  Se  Se222  1  0.74761327  0.75293316  0.80559511  1
  Se  Se223  1  0.25619315  0.07296007  0.20328625  1
  Se  Se224  1  0.25256368  0.08776055  0.69977506  1
  Se  Se225  1  0.23991865  0.42743839  0.18811965  1
  Se  Se226  1  0.25376412  0.42738733  0.68663955  1
  Se  Se227  1  0.25217308  0.74323609  0.19675880  1
  Se  Se228  1  0.24234325  0.77253678  0.70137988  1
  Se  Se229  1  0.58623852  0.07072034  0.19180899  1
  Se  Se230  1  0.57860519  0.08771862  0.68942328  1
  Se  Se231  1  0.57522446  0.42427421  0.19520502  1
  Se  Se232  1  0.57849353  0.42448536  0.69051550  1
  Se  Se233  1  0.57878919  0.75432748  0.18813797  1
  Se  Se234  1  0.59417115  0.75315067  0.70492901  1
  Se  Se235  1  0.91536351  0.08311581  0.18524914  1
  Se  Se236  1  0.91397486  0.08076505  0.70267896  1
  Se  Se237  1  0.90553878  0.42776598  0.19023371  1
  Se  Se238  1  0.92054611  0.41803240  0.69759748  1
  Se  Se239  1  0.91808749  0.74969493  0.19756702  1
  Se  Se240  1  0.91557798  0.75046593  0.69530370  1
  Se  Se241  1  0.09374693  0.23819764  0.19384351  1
  Se  Se242  1  0.08062889  0.25439867  0.70191279  1
  Se  Se243  1  0.07688743  0.58722407  0.19463267  1
  Se  Se244  1  0.08850381  0.58733408  0.69736660  1
  Se  Se245  1  0.09237496  0.90650008  0.18753896  1
  Se  Se246  1  0.05909164  0.93876526  0.69262290  1
  Se  Se247  1  0.42709979  0.23771636  0.18887536  1
  Se  Se248  1  0.42808914  0.25164021  0.68932648  1
  Se  Se249  1  0.41389115  0.59066839  0.19566803  1
  Se  Se250  1  0.41700324  0.59727316  0.70374062  1
  Se  Se251  1  0.41677084  0.91184791  0.19433231  1
  Se  Se252  1  0.41728911  0.92776212  0.69992165  1
  Se  Se253  1  0.74321522  0.24378679  0.18426406  1
  Se  Se254  1  0.75531708  0.24543187  0.69290283  1
  Se  Se255  1  0.75550658  0.57730727  0.19502093  1
  Se  Se256  1  0.75136388  0.58480115  0.69538860  1
  Se  Se257  1  0.75162958  0.91247323  0.19160663  1
  Se  Se258  1  0.74928133  0.90944119  0.68849247  1
