# generated using pymatgen
data_In86Cu29Se144
_symmetry_space_group_name_H-M   'P 1'
_cell_length_a   17.57497926
_cell_length_b   17.57540671
_cell_length_c   23.43278946
_cell_angle_alpha   89.96693176
_cell_angle_beta   90.00468741
_cell_angle_gamma   89.99864949
_symmetry_Int_Tables_number   1
_chemical_formula_structural   In86Cu29Se144
_chemical_formula_sum   'In86 Cu29 Se144'
_cell_volume   7238.09237649
_cell_formula_units_Z   1
loop_
 _symmetry_equiv_pos_site_id
 _symmetry_equiv_pos_as_xyz
  1  'x, y, z'
loop_
 _atom_site_type_symbol
 _atom_site_label
 _atom_site_symmetry_multiplicity
 _atom_site_fract_x
 _atom_site_fract_y
 _atom_site_fract_z
 _atom_site_occupancy
  In  In0  1  -0.01354026  0.15379732  0.12071426  1
  In  In1  1  0.00688436  0.18043503  0.62049622  1
  In  In2  1  0.00355124  0.52119042  0.10893813  1
  In  In3  1  -0.01432268  0.50871478  0.63075451  1
  In  In4  1  0.00182831  0.82988407  0.11934273  1
  In  In5  1  -0.00534467  0.82774814  0.63564808  1
  In  In6  1  0.32863845  0.18255175  0.13001789  1
  In  In7  1  0.32151621  0.18123077  0.61737154  1
  In  In8  1  0.33589023  0.49887401  0.12750899  1
  In  In9  1  0.34028786  0.49150396  0.61615391  1
  In  In10  1  0.32060795  0.81832894  0.11720960  1
  In  In11  1  0.33811744  0.83021903  0.62741363  1
  In  In12  1  0.68895383  0.17513803  0.13041945  1
  In  In13  1  0.68324102  0.15978993  0.62760755  1
  In  In14  1  0.66927381  0.50026554  0.12286372  1
  In  In15  1  0.65889581  0.49236154  0.62078890  1
  In  In16  1  0.65277482  0.82640122  0.11581186  1
  In  In17  1  0.67241370  0.83375009  0.63342839  1
  In  In18  1  0.16198023  0.01296665  0.37349510  1
  In  In19  1  0.17120678  -0.00432848  0.88501827  1
  In  In20  1  0.16354603  0.32105089  0.37067296  1
  In  In21  1  0.15317209  0.34597899  0.88506105  1
  In  In22  1  0.16735146  0.66645695  0.36351071  1
  In  In23  1  0.14525687  0.67776558  0.89653765  1
  In  In24  1  0.50240545  0.00355237  0.37608719  1
  In  In25  1  0.51534052  -0.01869661  0.87426323  1
  In  In26  1  0.50977609  0.34629033  0.36796822  1
  In  In27  1  0.51573265  0.33420498  0.87361392  1
  In  In28  1  0.48898989  0.64679178  0.36371178  1
  In  In29  1  0.49376483  0.67038946  0.88433811  1
  In  In30  1  0.84361107  -0.00173071  0.37565496  1
  In  In31  1  0.82362326  0.00653794  0.88284389  1
  In  In32  1  0.82812403  0.34026310  0.37884968  1
  In  In33  1  0.83260970  0.33339204  0.87532664  1
  In  In34  1  0.82540239  0.66144272  0.36195262  1
  In  In35  1  0.84860726  0.65269737  0.89157424  1
  In  In36  1  0.00461771  0.16590689  0.37649102  1
  In  In37  1  -0.01195310  0.17708732  0.88196196  1
  In  In38  1  -0.01435129  0.49818141  0.37141666  1
  In  In39  1  -0.00122634  0.49836072  0.87747654  1
  In  In40  1  -0.00495159  0.83058417  0.36164000  1
  In  In41  1  0.00385092  0.81310618  0.89130978  1
  In  In42  1  0.31783131  0.16790464  0.37414221  1
  In  In43  1  0.32781284  0.16081058  0.87729468  1
  In  In44  1  0.34467415  0.50955639  0.36695175  1
  In  In45  1  0.32616594  0.50692035  0.88537729  1
  In  In46  1  0.33955483  0.82153912  0.37050043  1
  In  In47  1  0.33320867  0.83079864  0.88182325  1
  In  In48  1  0.66586151  0.17581681  0.37811497  1
  In  In49  1  0.68054377  0.17527843  0.86620378  1
  In  In50  1  0.67046427  0.49913825  0.37227432  1
  In  In51  1  0.67480230  0.49169826  0.88190767  1
  In  In52  1  0.68091856  0.82723408  0.37073081  1
  In  In53  1  0.66221518  0.84030767  0.88164773  1
  In  In54  1  0.15216990  -0.01473542  0.11452727  1
  In  In55  1  0.15564850  0.00820524  0.62795505  1
  In  In56  1  0.16973420  0.34441095  0.11772777  1
  In  In57  1  0.16979489  0.32442794  0.62282724  1
  In  In58  1  0.16461497  0.66790090  0.12306140  1
  In  In59  1  0.16265668  0.65516308  0.62945321  1
  In  In60  1  0.50839113  -0.00544576  0.12548550  1
  In  In61  1  0.50842693  0.00586604  0.62724225  1
  In  In62  1  0.49587849  0.34606653  0.13275732  1
  In  In63  1  0.49835179  0.34524837  0.62394445  1
  In  In64  1  0.50239917  0.66287770  0.12440974  1
  In  In65  1  0.50799503  0.65980793  0.62107640  1
  In  In66  1  0.84586764  0.01056422  0.12009771  1
  In  In67  1  0.82288620  0.00444812  0.62909911  1
  In  In68  1  0.82480635  0.32687481  0.12205590  1
  In  In69  1  0.83341683  0.33513850  0.62567206  1
  In  In70  1  0.83354214  0.66578855  0.11723558  1
  In  In71  1  0.84050929  0.67048946  0.62724534  1
  In  In72  1  0.33358833  0.33544244  0.74510335  1
  In  In73  1  0.32704379  -0.00435284  0.25250911  1
  In  In74  1  0.33993884  -0.00187127  0.76079948  1
  In  In75  1  -0.00271888  0.33669541  0.24276768  1
  In  In76  1  -0.00048950  -0.00285950  0.76021376  1
  In  In77  1  0.16657909  0.83250942  0.49263547  1
  In  In78  1  0.50024260  0.17301683  0.49510254  1
  In  In79  1  0.67013102  -0.00167129  0.25059931  1
  In  In80  1  0.16763030  0.49303515  0.49670383  1
  In  In81  1  0.50486967  0.82686196  0.50439126  1
  In  In82  1  0.32479907  0.66899349  0.75870530  1
  In  In83  1  0.50148385  0.16742816  0.00183502  1
  In  In84  1  0.83419378  0.83516744  0.50587980  1
  In  In85  1  0.66995435  0.66880021  0.75607815  1
  Cu  Cu86  1  -0.00296778  -0.00034374  -0.00294180  1
  Cu  Cu87  1  0.49987317  0.50204750  0.74991246  1
  Cu  Cu88  1  -0.00686589  0.33508345  0.49896970  1
  Cu  Cu89  1  -0.00451339  0.66453318  0.50011951  1
  Cu  Cu90  1  0.17078245  0.50032771  0.24083401  1
  Cu  Cu91  1  0.51452683  0.16530217  0.74866811  1
  Cu  Cu92  1  0.33342974  0.00297129  -0.00072949  1
  Cu  Cu93  1  0.15062820  0.49863269  0.75365597  1
  Cu  Cu94  1  0.33781991  0.66128222  0.00745526  1
  Cu  Cu95  1  0.16370270  0.16998470  0.75025164  1
  Cu  Cu96  1  0.83762966  0.82705669  0.75824889  1
  Cu  Cu97  1  0.50836788  0.50076620  0.24624404  1
  Cu  Cu98  1  -0.00575911  0.33159361  0.00252402  1
  Cu  Cu99  1  0.83170040  0.49540715  0.75533515  1
  Cu  Cu100  1  0.32771718  0.00248690  0.49768264  1
  Cu  Cu101  1  0.83680413  0.17057563  0.75103266  1
  Cu  Cu102  1  0.50391056  0.17866993  0.25195672  1
  Cu  Cu103  1  0.15885887  0.16242974  0.24750843  1
  Cu  Cu104  1  0.15973458  0.82897305  0.24064817  1
  Cu  Cu105  1  0.33338909  0.33490799  0.00616713  1
  Cu  Cu106  1  0.00067699  0.01283413  0.50136038  1
  Cu  Cu107  1  0.66462594  0.66495706  0.00018426  1
  Cu  Cu108  1  0.83370454  0.83159574  0.23891921  1
  Cu  Cu109  1  0.67129176  0.33644494  0.49966061  1
  Cu  Cu110  1  0.83592573  0.50468176  0.24339621  1
  Cu  Cu111  1  0.49848515  0.82267886  0.24495676  1
  Cu  Cu112  1  0.66822039  0.33572990  0.00057834  1
  Cu  Cu113  1  0.66207092  0.65565107  0.49313806  1
  Cu  Cu114  1  0.66913431  -0.00031999  0.00301370  1
  Se  Se115  1  0.08000272  0.08398620  0.05165419  1
  Se  Se116  1  0.08876583  0.09202775  0.55351978  1
  Se  Se117  1  0.07847207  0.41869768  0.05108847  1
  Se  Se118  1  0.07254714  0.41501770  0.56185829  1
  Se  Se119  1  0.10076075  0.76364125  0.05378990  1
  Se  Se120  1  0.07594595  0.74570907  0.55855301  1
  Se  Se121  1  0.40929034  0.08039613  0.06440681  1
  Se  Se122  1  0.40968019  0.07957588  0.55898170  1
  Se  Se123  1  0.41973230  0.41835552  0.05535209  1
  Se  Se124  1  0.41043328  0.40245890  0.54818676  1
  Se  Se125  1  0.42233497  0.75051866  0.05487112  1
  Se  Se126  1  0.40652750  0.73705756  0.55627190  1
  Se  Se127  1  0.74977247  0.08632229  0.05503379  1
  Se  Se128  1  0.75513276  0.08125367  0.55190200  1
  Se  Se129  1  0.75386204  0.41873576  0.05267491  1
  Se  Se130  1  0.75308877  0.42033821  0.55504408  1
  Se  Se131  1  0.74662878  0.75140124  0.05146470  1
  Se  Se132  1  0.73674030  0.73821860  0.55743755  1
  Se  Se133  1  0.24719460  0.24871078  0.05279536  1
  Se  Se134  1  0.25116033  0.26284883  0.54457547  1
  Se  Se135  1  0.25102650  0.57971354  0.05882060  1
  Se  Se136  1  0.25411622  0.58934248  0.55624865  1
  Se  Se137  1  0.25199536  0.91593681  0.05149687  1
  Se  Se138  1  0.25178666  0.92214844  0.56112796  1
  Se  Se139  1  0.58920906  0.25564228  0.06409601  1
  Se  Se140  1  0.59109836  0.25482512  0.56101552  1
  Se  Se141  1  0.58240072  0.57974068  0.05373272  1
  Se  Se142  1  0.57869399  0.57518165  0.54905729  1
  Se  Se143  1  0.57668371  0.91775755  0.04741242  1
  Se  Se144  1  0.59571099  0.92095789  0.55855163  1
  Se  Se145  1  0.91101899  0.24659000  0.05413133  1
  Se  Se146  1  0.91217543  0.25025301  0.55391052  1
  Se  Se147  1  0.92545850  0.60567826  0.04026697  1
  Se  Se148  1  0.91002993  0.58470469  0.55331037  1
  Se  Se149  1  0.91569891  0.91652760  0.05302187  1
  Se  Se150  1  0.92982381  0.92592069  0.56372733  1
  Se  Se151  1  0.08024431  0.25394726  0.44678371  1
  Se  Se152  1  0.08137153  0.24899815  0.94966293  1
  Se  Se153  1  0.07726570  0.58877709  0.43839681  1
  Se  Se154  1  0.09612468  0.55952145  0.94795986  1
  Se  Se155  1  0.06934496  0.92292818  0.43942706  1
  Se  Se156  1  0.08274295  0.91396336  0.94896575  1
  Se  Se157  1  0.41301278  0.25702926  0.43142377  1
  Se  Se158  1  0.41157107  0.25865903  0.94006786  1
  Se  Se159  1  0.41870252  0.58180721  0.44566004  1
  Se  Se160  1  0.42003657  0.57914602  0.95151135  1
  Se  Se161  1  0.40924523  0.92041147  0.44240469  1
  Se  Se162  1  0.41614622  0.92230313  0.94354425  1
  Se  Se163  1  0.75255441  0.25045717  0.44838236  1
  Se  Se164  1  0.74901319  0.25021133  0.94615179  1
  Se  Se165  1  0.75589254  0.58364629  0.44069673  1
  Se  Se166  1  0.74920502  0.57783421  0.95175423  1
  Se  Se167  1  0.74419432  0.92201359  0.44333525  1
  Se  Se168  1  0.75244644  0.91348292  0.95135250  1
  Se  Se169  1  0.24298106  0.08631516  0.44798564  1
  Se  Se170  1  0.24722978  0.08831431  0.95127696  1
  Se  Se171  1  0.25429695  0.41326840  0.42970866  1
  Se  Se172  1  0.24934415  0.41603934  0.95079693  1
  Se  Se173  1  0.25729851  0.73627672  0.44152921  1
  Se  Se174  1  0.25655955  0.74460477  0.95057221  1
  Se  Se175  1  0.59377562  0.07398042  0.44608009  1
  Se  Se176  1  0.59276161  0.08287193  0.93908224  1
  Se  Se177  1  0.58815132  0.41844484  0.44466005  1
  Se  Se178  1  0.58079125  0.41761511  0.94985086  1
  Se  Se179  1  0.58736523  0.74270065  0.43434856  1
  Se  Se180  1  0.58224861  0.75187095  0.94837179  1
  Se  Se181  1  0.91493656  0.08845705  0.44541660  1
  Se  Se182  1  0.91190396  0.08683292  0.94870514  1
  Se  Se183  1  0.91249610  0.42270793  0.44819349  1
  Se  Se184  1  0.91285382  0.41548894  0.94608171  1
  Se  Se185  1  0.91762556  0.74700098  0.43892544  1
  Se  Se186  1  0.92384400  0.73670482  0.96408607  1
  Se  Se187  1  0.24582967  0.24613659  0.29678202  1
  Se  Se188  1  0.24465064  0.25118088  0.81072156  1
  Se  Se189  1  0.25198617  0.58259276  0.29839372  1
  Se  Se190  1  0.23373905  0.57621704  0.81305697  1
  Se  Se191  1  0.23495757  0.90359843  0.31138518  1
  Se  Se192  1  0.24159719  0.90648221  0.80913362  1
  Se  Se193  1  0.59235225  0.25627435  0.30383931  1
  Se  Se194  1  0.59123236  0.25569260  0.79991386  1
  Se  Se195  1  0.59215280  0.58417109  0.30047316  1
  Se  Se196  1  0.57659767  0.57940347  0.81397705  1
  Se  Se197  1  0.57364649  0.90554309  0.30769617  1
  Se  Se198  1  0.59648633  0.91345229  0.79941147  1
  Se  Se199  1  0.91467111  0.25180008  0.31039144  1
  Se  Se200  1  0.91862301  0.25446871  0.80377819  1
  Se  Se201  1  0.92085472  0.58624119  0.29729643  1
  Se  Se202  1  0.91361695  0.58072124  0.80806773  1
  Se  Se203  1  0.90958674  0.91581125  0.29789962  1
  Se  Se204  1  0.91314766  0.90754484  0.82204223  1
  Se  Se205  1  0.07507276  0.08055273  0.30052835  1
  Se  Se206  1  0.09106358  0.09098963  0.81596069  1
  Se  Se207  1  0.08963774  0.42476173  0.30564846  1
  Se  Se208  1  0.07356260  0.40884925  0.80481215  1
  Se  Se209  1  0.07833584  0.74482303  0.29733848  1
  Se  Se210  1  0.08258834  0.74772325  0.81246574  1
  Se  Se211  1  0.42267203  0.09180016  0.30694667  1
  Se  Se212  1  0.43434212  0.09311284  0.81390933  1
  Se  Se213  1  0.41987014  0.41923230  0.29829010  1
  Se  Se214  1  0.41754303  0.42404757  0.81136651  1
  Se  Se215  1  0.41296965  0.74119788  0.29766970  1
  Se  Se216  1  0.42525610  0.75922205  0.80722825  1
  Se  Se217  1  0.75513583  0.08884620  0.31132537  1
  Se  Se218  1  0.75551430  0.08088135  0.80107728  1
  Se  Se219  1  0.75810019  0.42160682  0.30198180  1
  Se  Se220  1  0.74495938  0.41254997  0.80484001  1
  Se  Se221  1  0.74862900  0.74971294  0.29283084  1
  Se  Se222  1  0.76119169  0.74744958  0.82210183  1
  Se  Se223  1  0.24105113  0.08139280  0.18712573  1
  Se  Se224  1  0.25073218  0.09073932  0.69525440  1
  Se  Se225  1  0.25315594  0.41038723  0.19486003  1
  Se  Se226  1  0.23943987  0.43030800  0.69061730  1
  Se  Se227  1  0.25061549  0.74530068  0.19704058  1
  Se  Se228  1  0.23952050  0.75759428  0.69203459  1
  Se  Se229  1  0.57896926  0.09380276  0.19195893  1
  Se  Se230  1  0.59484432  0.07989381  0.69610805  1
  Se  Se231  1  0.59408530  0.41542487  0.19699213  1
  Se  Se232  1  0.58197557  0.41721463  0.69790748  1
  Se  Se233  1  0.58790973  0.74490506  0.19423017  1
  Se  Se234  1  0.57348709  0.75291371  0.69451187  1
  Se  Se235  1  0.90905347  0.08851851  0.20015097  1
  Se  Se236  1  0.92019058  0.08836607  0.69252643  1
  Se  Se237  1  0.91626365  0.43022222  0.17910415  1
  Se  Se238  1  0.91532065  0.41511426  0.69828146  1
  Se  Se239  1  0.91744610  0.74694625  0.18798242  1
  Se  Se240  1  0.91810422  0.74231203  0.70490901  1
  Se  Se241  1  0.08623246  0.24504807  0.18326628  1
  Se  Se242  1  0.08390522  0.25555187  0.69718420  1
  Se  Se243  1  0.08226476  0.58194250  0.19164981  1
  Se  Se244  1  0.07339834  0.58727526  0.69976527  1
  Se  Se245  1  0.07622056  0.91745471  0.19419995  1
  Se  Se246  1  0.09237915  0.90971955  0.69785815  1
  Se  Se247  1  0.41580121  0.25622283  0.19917370  1
  Se  Se248  1  0.42531724  0.23817015  0.68995883  1
  Se  Se249  1  0.41977315  0.58251612  0.19541109  1
  Se  Se250  1  0.41560934  0.57984977  0.69256420  1
  Se  Se251  1  0.41746608  0.90860898  0.19009478  1
  Se  Se252  1  0.42697703  0.91214469  0.69372953  1
  Se  Se253  1  0.75658157  0.25728176  0.20467491  1
  Se  Se254  1  0.75168395  0.25237626  0.69668239  1
  Se  Se255  1  0.75156897  0.58733672  0.18980717  1
  Se  Se256  1  0.75302347  0.57684103  0.69231799  1
  Se  Se257  1  0.75005629  0.91258992  0.18149775  1
  Se  Se258  1  0.75937607  0.91085644  0.70126200  1
