# generated using pymatgen
data_In86Cu29Se144
_symmetry_space_group_name_H-M   'P 1'
_cell_length_a   17.58767701
_cell_length_b   17.58395589
_cell_length_c   23.44817727
_cell_angle_alpha   90.00229671
_cell_angle_beta   89.99698999
_cell_angle_gamma   89.98828271
_symmetry_Int_Tables_number   1
_chemical_formula_structural   In86Cu29Se144
_chemical_formula_sum   'In86 Cu29 Se144'
_cell_volume   7251.60510074
_cell_formula_units_Z   1
loop_
 _symmetry_equiv_pos_site_id
 _symmetry_equiv_pos_as_xyz
  1  'x, y, z'
loop_
 _atom_site_type_symbol
 _atom_site_label
 _atom_site_symmetry_multiplicity
 _atom_site_fract_x
 _atom_site_fract_y
 _atom_site_fract_z
 _atom_site_occupancy
  In  In0  1  -0.00616945  0.17189195  0.13224007  1
  In  In1  1  -0.00708201  0.17299352  0.61990894  1
  In  In2  1  0.00462865  0.48686377  0.13018909  1
  In  In3  1  -0.00399229  0.50961240  0.61986059  1
  In  In4  1  0.01631804  0.83275164  0.12764246  1
  In  In5  1  0.00250352  0.83175667  0.61452612  1
  In  In6  1  0.32967717  0.16675849  0.12863415  1
  In  In7  1  0.33084110  0.16752584  0.63246377  1
  In  In8  1  0.33952673  0.49948830  0.11721922  1
  In  In9  1  0.33969917  0.49913255  0.63441875  1
  In  In10  1  0.33520270  0.83532199  0.12197157  1
  In  In11  1  0.33244782  0.83416246  0.62331105  1
  In  In12  1  0.67384308  0.15768276  0.13183841  1
  In  In13  1  0.66693221  0.15860551  0.61597071  1
  In  In14  1  0.65759564  0.51185886  0.13990879  1
  In  In15  1  0.67741890  0.50866067  0.61870976  1
  In  In16  1  0.65719176  0.84011811  0.13325134  1
  In  In17  1  0.66174694  0.82721230  0.62021320  1
  In  In18  1  0.16099707  -0.00448289  0.36867970  1
  In  In19  1  0.17508909  -0.01933493  0.88653822  1
  In  In20  1  0.16743765  0.33994421  0.36337182  1
  In  In21  1  0.18459961  0.34476880  0.87535965  1
  In  In22  1  0.18299820  0.66720929  0.37488761  1
  In  In23  1  0.19179641  0.64435027  0.89184623  1
  In  In24  1  0.48864551  -0.00968332  0.36609512  1
  In  In25  1  0.48227733  -0.00588149  0.87514198  1
  In  In26  1  0.49806607  0.33275920  0.36469386  1
  In  In27  1  0.49141689  0.35170377  0.88720670  1
  In  In28  1  0.50776698  0.67516834  0.37133267  1
  In  In29  1  0.49736405  0.67058944  0.87618093  1
  In  In30  1  0.83280875  -0.00032823  0.37342868  1
  In  In31  1  0.83956258  0.00223683  0.87833794  1
  In  In32  1  0.83026579  0.33533813  0.37218480  1
  In  In33  1  0.81908946  0.32933806  0.88251273  1
  In  In34  1  0.82362941  0.67669461  0.38176861  1
  In  In35  1  0.81669477  0.66868970  0.87029654  1
  In  In36  1  -0.00939615  0.15895162  0.36691639  1
  In  In37  1  -0.00502143  0.15767199  0.88201387  1
  In  In38  1  -0.00370549  0.48613677  0.36818813  1
  In  In39  1  0.01162952  0.50915561  0.87740966  1
  In  In40  1  -0.00561924  0.83992179  0.37933593  1
  In  In41  1  0.00182029  0.84047963  0.87409409  1
  In  In42  1  0.33715740  0.17052544  0.36506024  1
  In  In43  1  0.32746728  0.16456041  0.87127670  1
  In  In44  1  0.32830548  0.50066749  0.36648147  1
  In  In45  1  0.33533472  0.50875279  0.87612519  1
  In  In46  1  0.33618460  0.83391906  0.37716141  1
  In  In47  1  0.34118910  0.82801904  0.87844018  1
  In  In48  1  0.67562160  0.17785302  0.36469807  1
  In  In49  1  0.66791459  0.17610826  0.88322971  1
  In  In50  1  0.67973397  0.51243950  0.35853470  1
  In  In51  1  0.65546618  0.50185630  0.87972512  1
  In  In52  1  0.66259431  0.83484259  0.37393484  1
  In  In53  1  0.65858048  0.81461362  0.86404147  1
  In  In54  1  0.18013474  -0.01611038  0.13699929  1
  In  In55  1  0.18368026  -0.00753576  0.62689082  1
  In  In56  1  0.16724159  0.33497481  0.12669921  1
  In  In57  1  0.17737826  0.34028966  0.62316048  1
  In  In58  1  0.18401030  0.68535452  0.11478842  1
  In  In59  1  0.16375530  0.67344649  0.62478864  1
  In  In60  1  0.50373945  -0.00644778  0.12744900  1
  In  In61  1  0.49509468  -0.01541761  0.62293606  1
  In  In62  1  0.48376845  0.34820677  0.12964628  1
  In  In63  1  0.49244264  0.33220071  0.62667012  1
  In  In64  1  0.49861311  0.66560426  0.12398598  1
  In  In65  1  0.48567776  0.69235525  0.64285314  1
  In  In66  1  0.82509673  0.00759359  0.13549888  1
  In  In67  1  0.82845868  -0.00276450  0.61076783  1
  In  In68  1  0.84726172  0.32995686  0.13872180  1
  In  In69  1  0.83060231  0.33424741  0.61043181  1
  In  In70  1  0.82029679  0.65624067  0.13369277  1
  In  In71  1  0.82955379  0.66680167  0.61899459  1
  In  In72  1  0.00264309  -0.00236400  0.75527621  1
  In  In73  1  0.65920179  -0.00494223  0.74120569  1
  In  In74  1  0.16282850  0.16593716  0.00767968  1
  In  In75  1  0.65760828  0.33864256  0.75096741  1
  In  In76  1  0.83993423  0.49159765  0.01339953  1
  In  In77  1  -0.00128876  0.66752633  0.24859550  1
  In  In78  1  0.01003778  0.66739764  0.74594350  1
  In  In79  1  0.16355219  0.15898599  0.50088691  1
  In  In80  1  0.50423311  0.50315665  0.50231624  1
  In  In81  1  0.50041951  0.16361971  0.00546030  1
  In  In82  1  0.16273456  0.50150524  0.49832307  1
  In  In83  1  0.00448476  0.32920872  0.75687963  1
  In  In84  1  0.50464705  0.16595061  0.48794799  1
  In  In85  1  0.83265468  0.83221865  -0.00397226  1
  Cu  Cu86  1  0.33875637  0.67149074  0.50112262  1
  Cu  Cu87  1  0.67143156  0.32854730  0.00939814  1
  Cu  Cu88  1  0.66924105  0.33700079  0.48818093  1
  Cu  Cu89  1  0.00168851  -0.00473938  0.49170839  1
  Cu  Cu90  1  0.17382707  0.83538219  0.25017785  1
  Cu  Cu91  1  -0.00462567  0.66691608  0.49765974  1
  Cu  Cu92  1  0.34113606  0.66734914  -0.00004923  1
  Cu  Cu93  1  0.00114868  0.32914051  0.00694103  1
  Cu  Cu94  1  0.00807539  0.66881542  0.00197154  1
  Cu  Cu95  1  0.65996263  0.66433714  0.00334579  1
  Cu  Cu96  1  0.83643561  0.50200405  0.74214529  1
  Cu  Cu97  1  0.49093618  0.17191173  0.75259961  1
  Cu  Cu98  1  0.50121655  0.16139374  0.24470157  1
  Cu  Cu99  1  0.17540784  0.82737691  0.75590457  1
  Cu  Cu100  1  0.49980129  0.51029619  0.75761164  1
  Cu  Cu101  1  0.17245826  0.50573303  0.24326851  1
  Cu  Cu102  1  0.49657336  0.82738830  0.24861358  1
  Cu  Cu103  1  0.83869796  0.16703570  0.25397469  1
  Cu  Cu104  1  -0.00666683  0.00401597  0.00577997  1
  Cu  Cu105  1  0.82945193  0.83433683  0.25757046  1
  Cu  Cu106  1  0.66358491  0.67127136  0.49788368  1
  Cu  Cu107  1  0.66576704  -0.00628625  0.00697148  1
  Cu  Cu108  1  0.17150460  0.16341806  0.75222396  1
  Cu  Cu109  1  0.82440390  0.16267379  0.74594376  1
  Cu  Cu110  1  0.33756232  -0.00400236  0.49875010  1
  Cu  Cu111  1  0.49199215  0.50163768  0.24817582  1
  Cu  Cu112  1  0.16477523  0.16937998  0.24759517  1
  Cu  Cu113  1  0.67177077  -0.00099627  0.49364453  1
  Cu  Cu114  1  -0.00637393  0.32572536  0.49084568  1
  Se  Se115  1  0.07772023  0.07461766  0.06873601  1
  Se  Se116  1  0.07524817  0.06821551  0.56340029  1
  Se  Se117  1  0.08514618  0.41545410  0.05447451  1
  Se  Se118  1  0.07126203  0.40419245  0.55562113  1
  Se  Se119  1  0.08856620  0.75947040  0.04898370  1
  Se  Se120  1  0.08556648  0.74595297  0.54864606  1
  Se  Se121  1  0.40747602  0.07327399  0.06040367  1
  Se  Se122  1  0.41393098  0.08395467  0.55623945  1
  Se  Se123  1  0.42041156  0.41773293  0.04663515  1
  Se  Se124  1  0.40750921  0.41156941  0.55472248  1
  Se  Se125  1  0.42142661  0.75238266  0.05452263  1
  Se  Se126  1  0.42164288  0.75430372  0.55511400  1
  Se  Se127  1  0.75014477  0.07873821  0.05571203  1
  Se  Se128  1  0.75235414  0.08828514  0.54407831  1
  Se  Se129  1  0.74413270  0.41097142  0.07297891  1
  Se  Se130  1  0.74730017  0.42095864  0.54679156  1
  Se  Se131  1  0.74474811  0.74460874  0.06028369  1
  Se  Se132  1  0.75115122  0.75333543  0.55022076  1
  Se  Se133  1  0.25983491  0.25943322  0.05505007  1
  Se  Se134  1  0.25761211  0.25186362  0.55392418  1
  Se  Se135  1  0.25325860  0.58601413  0.05150806  1
  Se  Se136  1  0.25910621  0.58704245  0.55861007  1
  Se  Se137  1  0.24153420  0.91062177  0.05570620  1
  Se  Se138  1  0.25019283  0.91331361  0.54920051  1
  Se  Se139  1  0.58639572  0.25241741  0.06863078  1
  Se  Se140  1  0.58874499  0.26195983  0.55343903  1
  Se  Se141  1  0.58302832  0.57726833  0.05777169  1
  Se  Se142  1  0.58206876  0.60011465  0.56393988  1
  Se  Se143  1  0.58012502  0.90977130  0.05417639  1
  Se  Se144  1  0.58916601  0.92170130  0.55258611  1
  Se  Se145  1  0.91411466  0.25051139  0.05851852  1
  Se  Se146  1  0.91083237  0.24366057  0.54609367  1
  Se  Se147  1  0.92648696  0.59452576  0.06487174  1
  Se  Se148  1  0.91165434  0.58212910  0.54908340  1
  Se  Se149  1  0.91628168  0.91748745  0.06445171  1
  Se  Se150  1  0.91770272  0.91432682  0.54818906  1
  Se  Se151  1  0.08309455  0.25227926  0.43513389  1
  Se  Se152  1  0.07963906  0.25647418  0.93891912  1
  Se  Se153  1  0.07499103  0.58894271  0.43425492  1
  Se  Se154  1  0.08867221  0.57706556  0.95529193  1
  Se  Se155  1  0.09099193  0.91325471  0.44476212  1
  Se  Se156  1  0.07266326  0.91803383  0.95130632  1
  Se  Se157  1  0.40842638  0.26030855  0.44064153  1
  Se  Se158  1  0.40933134  0.25030721  0.94348867  1
  Se  Se159  1  0.41101906  0.58725026  0.43914661  1
  Se  Se160  1  0.42484969  0.58222676  0.94774559  1
  Se  Se161  1  0.42338447  0.91371209  0.44722456  1
  Se  Se162  1  0.41766782  0.91267361  0.95036179  1
  Se  Se163  1  0.75305291  0.24702869  0.44341720  1
  Se  Se164  1  0.75389592  0.24398715  0.95770291  1
  Se  Se165  1  0.74227316  0.58318096  0.44458436  1
  Se  Se166  1  0.74972564  0.58331525  0.94992676  1
  Se  Se167  1  0.75307242  0.91259809  0.44170038  1
  Se  Se168  1  0.73881967  0.91854245  0.93597244  1
  Se  Se169  1  0.25961172  0.07853506  0.43837600  1
  Se  Se170  1  0.25569860  0.07781869  0.94788444  1
  Se  Se171  1  0.25382635  0.41131866  0.44108670  1
  Se  Se172  1  0.25255452  0.42772196  0.94755692  1
  Se  Se173  1  0.25179344  0.75230389  0.44849472  1
  Se  Se174  1  0.25254605  0.75240517  0.95070824  1
  Se  Se175  1  0.59231469  0.07485773  0.42963364  1
  Se  Se176  1  0.58871145  0.07374212  0.94129733  1
  Se  Se177  1  0.58596448  0.41783908  0.43320744  1
  Se  Se178  1  0.59229103  0.41280217  0.95376793  1
  Se  Se179  1  0.57926584  0.75553247  0.44679492  1
  Se  Se180  1  0.58491889  0.75039950  0.94625119  1
  Se  Se181  1  0.91770455  0.08200247  0.44362288  1
  Se  Se182  1  0.90869775  0.08603775  0.95381676  1
  Se  Se183  1  0.91353473  0.41734768  0.44365238  1
  Se  Se184  1  0.92494977  0.40934361  0.94016593  1
  Se  Se185  1  0.91400627  0.75446492  0.44716551  1
  Se  Se186  1  0.92231382  0.73659641  0.93755691  1
  Se  Se187  1  0.25062270  0.25278061  0.29928762  1
  Se  Se188  1  0.24995092  0.25306142  0.80351893  1
  Se  Se189  1  0.25353264  0.58953521  0.29752059  1
  Se  Se190  1  0.25396255  0.58798689  0.80395425  1
  Se  Se191  1  0.25584996  0.91814777  0.30612776  1
  Se  Se192  1  0.25449073  0.91403785  0.80939524  1
  Se  Se193  1  0.58087234  0.24844351  0.29828950  1
  Se  Se194  1  0.57176185  0.24857210  0.81449873  1
  Se  Se195  1  0.57696628  0.58473364  0.30077432  1
  Se  Se196  1  0.58873678  0.58896190  0.80791447  1
  Se  Se197  1  0.58052320  0.91308659  0.30102540  1
  Se  Se198  1  0.57083577  0.91114272  0.80538491  1
  Se  Se199  1  0.92047090  0.25709382  0.30339712  1
  Se  Se200  1  0.90286265  0.23991629  0.80997944  1
  Se  Se201  1  0.91005297  0.58507076  0.31274981  1
  Se  Se202  1  0.91313957  0.57844597  0.80747303  1
  Se  Se203  1  0.91862100  0.91736239  0.30423819  1
  Se  Se204  1  0.90243741  0.90641682  0.80425230  1
  Se  Se205  1  0.08351712  0.08393573  0.30158275  1
  Se  Se206  1  0.09466726  0.08581453  0.81592803  1
  Se  Se207  1  0.08592034  0.42274449  0.29442561  1
  Se  Se208  1  0.09394427  0.42805804  0.80524239  1
  Se  Se209  1  0.09066882  0.75491386  0.31021571  1
  Se  Se210  1  0.09304941  0.75035929  0.81586540  1
  Se  Se211  1  0.41440894  0.08160850  0.29871873  1
  Se  Se212  1  0.41278109  0.08311665  0.80394015  1
  Se  Se213  1  0.40997135  0.41495297  0.30007134  1
  Se  Se214  1  0.41906274  0.42053468  0.80720218  1
  Se  Se215  1  0.41276907  0.74797695  0.30577522  1
  Se  Se216  1  0.40532447  0.73686644  0.80568792  1
  Se  Se217  1  0.75188743  0.08176458  0.30228500  1
  Se  Se218  1  0.74631144  0.08634453  0.80888941  1
  Se  Se219  1  0.73367818  0.39857596  0.30345922  1
  Se  Se220  1  0.75709218  0.42547917  0.80768546  1
  Se  Se221  1  0.74448431  0.74821382  0.30504482  1
  Se  Se222  1  0.75555673  0.75412516  0.79594506  1
  Se  Se223  1  0.25103409  0.08366253  0.19916254  1
  Se  Se224  1  0.25338143  0.07839737  0.69946725  1
  Se  Se225  1  0.25451764  0.42033211  0.18978196  1
  Se  Se226  1  0.25345671  0.41305918  0.69664811  1
  Se  Se227  1  0.25611831  0.75223392  0.19627601  1
  Se  Se228  1  0.25077664  0.74813095  0.69322216  1
  Se  Se229  1  0.58650893  0.07526760  0.19692905  1
  Se  Se230  1  0.56980755  0.09644433  0.68835302  1
  Se  Se231  1  0.57760137  0.41516895  0.19943028  1
  Se  Se232  1  0.57436450  0.43263037  0.68904139  1
  Se  Se233  1  0.58263491  0.74450847  0.19650874  1
  Se  Se234  1  0.59433678  0.75311940  0.70043835  1
  Se  Se235  1  0.92001854  0.08060867  0.20070937  1
  Se  Se236  1  0.91089278  0.08507946  0.69044983  1
  Se  Se237  1  0.91075461  0.43247718  0.20207738  1
  Se  Se238  1  0.91352596  0.41407001  0.68862281  1
  Se  Se239  1  0.90708954  0.76003008  0.18937786  1
  Se  Se240  1  0.91721493  0.75486152  0.68802286  1
  Se  Se241  1  0.08226739  0.25529297  0.19581561  1
  Se  Se242  1  0.09099465  0.23968987  0.69076208  1
  Se  Se243  1  0.09417291  0.58953489  0.18363561  1
  Se  Se244  1  0.09591265  0.56793943  0.69049385  1
  Se  Se245  1  0.08114937  0.91691095  0.20412265  1
  Se  Se246  1  0.09137818  0.90554834  0.69428012  1
  Se  Se247  1  0.41655336  0.24776682  0.19473709  1
  Se  Se248  1  0.41075436  0.25702258  0.69860835  1
  Se  Se249  1  0.41167665  0.58501861  0.19192005  1
  Se  Se250  1  0.41489664  0.58896998  0.70153410  1
  Se  Se251  1  0.41641731  0.91473806  0.19559270  1
  Se  Se252  1  0.40859191  0.91947976  0.69446336  1
  Se  Se253  1  0.75358031  0.24637203  0.19836664  1
  Se  Se254  1  0.74917487  0.24864756  0.68794302  1
  Se  Se255  1  0.75129974  0.57909407  0.20911672  1
  Se  Se256  1  0.75165962  0.58708165  0.69387559  1
  Se  Se257  1  0.74706001  0.91627217  0.20028435  1
  Se  Se258  1  0.75962296  0.91264825  0.68689234  1
