# generated using pymatgen
data_In86Cu29Se144
_symmetry_space_group_name_H-M   'P 1'
_cell_length_a   17.57823073
_cell_length_b   17.57726776
_cell_length_c   23.43758813
_cell_angle_alpha   89.99272347
_cell_angle_beta   90.01972264
_cell_angle_gamma   89.99580958
_symmetry_Int_Tables_number   1
_chemical_formula_structural   In86Cu29Se144
_chemical_formula_sum   'In86 Cu29 Se144'
_cell_volume   7241.68144748
_cell_formula_units_Z   1
loop_
 _symmetry_equiv_pos_site_id
 _symmetry_equiv_pos_as_xyz
  1  'x, y, z'
loop_
 _atom_site_type_symbol
 _atom_site_label
 _atom_site_symmetry_multiplicity
 _atom_site_fract_x
 _atom_site_fract_y
 _atom_site_fract_z
 _atom_site_occupancy
  In  In0  1  0.00420228  0.14733921  0.11479089  1
  In  In1  1  0.00456577  0.18044202  0.62595110  1
  In  In2  1  0.01093789  0.51090375  0.11988489  1
  In  In3  1  -0.00387837  0.48515809  0.62115229  1
  In  In4  1  -0.01157510  0.82194384  0.11776247  1
  In  In5  1  0.00087716  0.82756817  0.63089673  1
  In  In6  1  0.33823832  0.16391387  0.12573425  1
  In  In7  1  0.34379128  0.16108449  0.63126512  1
  In  In8  1  0.32408944  0.50526762  0.13275342  1
  In  In9  1  0.32983905  0.49393158  0.61797649  1
  In  In10  1  0.33633976  0.83427718  0.12413927  1
  In  In11  1  0.34203531  0.83421716  0.62578909  1
  In  In12  1  0.65509038  0.17210707  0.13053291  1
  In  In13  1  0.67451004  0.16941143  0.61614820  1
  In  In14  1  0.66573957  0.48652210  0.12594109  1
  In  In15  1  0.65256764  0.49995927  0.61921620  1
  In  In16  1  0.68310198  0.85174683  0.11468044  1
  In  In17  1  0.66046871  0.84429605  0.62274760  1
  In  In18  1  0.16795625  -0.01312493  0.36930955  1
  In  In19  1  0.17702860  -0.00800049  0.88899224  1
  In  In20  1  0.18408337  0.33350474  0.37353951  1
  In  In21  1  0.17043704  0.33291681  0.87971904  1
  In  In22  1  0.16113153  0.65382209  0.36721037  1
  In  In23  1  0.15966123  0.67346557  0.88487927  1
  In  In24  1  0.50103297  0.00345361  0.37404231  1
  In  In25  1  0.49851496  0.01439954  0.88912869  1
  In  In26  1  0.49910687  0.33016051  0.37716980  1
  In  In27  1  0.48649862  0.32826956  0.86467409  1
  In  In28  1  0.49454882  0.67782318  0.38075995  1
  In  In29  1  0.51031610  0.67269132  0.87845711  1
  In  In30  1  0.82727389  0.01395457  0.37710434  1
  In  In31  1  0.81978526  -0.00578185  0.88296363  1
  In  In32  1  0.81475594  0.33169226  0.37192307  1
  In  In33  1  0.84366139  0.33684672  0.86750989  1
  In  In34  1  0.83726048  0.66293740  0.36801913  1
  In  In35  1  0.82871602  0.66839358  0.88496431  1
  In  In36  1  -0.00823348  0.15488761  0.37664202  1
  In  In37  1  0.00019678  0.18166071  0.87735811  1
  In  In38  1  0.00418823  0.51599682  0.37616076  1
  In  In39  1  0.00720447  0.49361317  0.88172294  1
  In  In40  1  0.00286221  0.82426086  0.36769533  1
  In  In41  1  -0.00448322  0.84441821  0.89072949  1
  In  In42  1  0.34616238  0.17722925  0.36540494  1
  In  In43  1  0.33880245  0.16719162  0.87775255  1
  In  In44  1  0.33418870  0.49837620  0.37469584  1
  In  In45  1  0.33045256  0.48645900  0.87506495  1
  In  In46  1  0.34711111  0.84225874  0.36089199  1
  In  In47  1  0.32748728  0.84346394  0.88314584  1
  In  In48  1  0.65743880  0.16406516  0.37573767  1
  In  In49  1  0.64699438  0.16569004  0.87625566  1
  In  In50  1  0.66795060  0.48809961  0.37535929  1
  In  In51  1  0.67832981  0.49868576  0.87407251  1
  In  In52  1  0.65086546  0.83014649  0.37505792  1
  In  In53  1  0.66450325  0.84228626  0.89418124  1
  In  In54  1  0.17211261  0.00780736  0.11250182  1
  In  In55  1  0.17373735  0.01469270  0.63161428  1
  In  In56  1  0.17493283  0.33848572  0.11797495  1
  In  In57  1  0.16107474  0.34028658  0.63129394  1
  In  In58  1  0.16721050  0.66656821  0.12581955  1
  In  In59  1  0.17720298  0.66761078  0.62057215  1
  In  In60  1  0.50292333  -0.00212246  0.12671728  1
  In  In61  1  0.49409187  -0.00686047  0.61640648  1
  In  In62  1  0.50430449  0.32267565  0.13067737  1
  In  In63  1  0.50070286  0.33183031  0.62432335  1
  In  In64  1  0.48419600  0.67133408  0.13182939  1
  In  In65  1  0.50882441  0.67351065  0.60239623  1
  In  In66  1  0.82894622  -0.01459927  0.12620574  1
  In  In67  1  0.81462809  0.00095918  0.62659198  1
  In  In68  1  0.81418028  0.32923961  0.12276905  1
  In  In69  1  0.84055133  0.32632040  0.63038801  1
  In  In70  1  0.84912095  0.67810120  0.12571033  1
  In  In71  1  0.84050464  0.66627092  0.62417257  1
  In  In72  1  0.66786596  0.66594129  0.74859717  1
  In  In73  1  -0.00329485  0.00851549  0.76692716  1
  In  In74  1  0.49627148  0.50232889  0.00051376  1
  In  In75  1  0.82368473  0.83003956  0.49265151  1
  In  In76  1  0.66464748  0.66966276  0.25411171  1
  In  In77  1  0.83421394  0.16480847  -0.00081476  1
  In  In78  1  0.00075553  -0.00886194  0.24057728  1
  In  In79  1  0.17115351  0.16938332  0.49837838  1
  In  In80  1  0.82999388  0.49841609  0.49341158  1
  In  In81  1  0.66000694  0.00180069  0.75252733  1
  In  In82  1  0.16785881  0.82657381  0.49630889  1
  In  In83  1  0.00363391  0.33552779  0.23941838  1
  In  In84  1  0.00018679  0.66320010  0.74800837  1
  In  In85  1  0.33375081  0.66186098  0.74408034  1
  Cu  Cu86  1  0.66525327  0.33410473  -0.00094615  1
  Cu  Cu87  1  0.17520672  0.82785058  0.24516549  1
  Cu  Cu88  1  0.82387599  0.17149106  0.25136516  1
  Cu  Cu89  1  0.49975654  0.83612251  0.24840741  1
  Cu  Cu90  1  0.34193966  0.00278108  0.00499512  1
  Cu  Cu91  1  0.83481357  0.50231137  0.25039104  1
  Cu  Cu92  1  0.16551509  0.84711649  0.76114417  1
  Cu  Cu93  1  0.17176721  0.49812285  0.24661722  1
  Cu  Cu94  1  0.66217198  0.32738498  0.49813099  1
  Cu  Cu95  1  0.49785580  0.49442990  0.74182493  1
  Cu  Cu96  1  0.32728981  0.66668060  0.00661550  1
  Cu  Cu97  1  0.49791917  0.17087706  0.74951252  1
  Cu  Cu98  1  0.49610333  0.49058522  0.25215010  1
  Cu  Cu99  1  0.17977879  0.17397467  0.75496880  1
  Cu  Cu100  1  0.33716122  0.33637768  0.49976673  1
  Cu  Cu101  1  -0.01331142  -0.00057374  0.50192821  1
  Cu  Cu102  1  0.16563671  0.49379684  0.75381654  1
  Cu  Cu103  1  0.66694358  0.66844221  0.00455212  1
  Cu  Cu104  1  0.00005573  0.66127000  0.00262261  1
  Cu  Cu105  1  0.33660130  0.32757916  -0.00042980  1
  Cu  Cu106  1  0.83243008  0.17016678  0.74604734  1
  Cu  Cu107  1  0.83743732  0.49115035  0.75113904  1
  Cu  Cu108  1  -0.00094768  0.33988111  -0.00223980  1
  Cu  Cu109  1  0.17516357  0.16087688  0.24382818  1
  Cu  Cu110  1  0.49757244  0.16410060  0.25228585  1
  Cu  Cu111  1  0.33570816  -0.00063935  0.49477165  1
  Cu  Cu112  1  0.33192087  0.66512186  0.49327485  1
  Cu  Cu113  1  0.00053387  0.33482792  0.50207935  1
  Cu  Cu114  1  0.49347616  0.83934455  0.74970444  1
  Se  Se115  1  0.08781899  0.08289176  0.04057568  1
  Se  Se116  1  0.07640513  0.07688213  0.55714834  1
  Se  Se117  1  0.08516240  0.41857412  0.05331227  1
  Se  Se118  1  0.08844527  0.41585386  0.55180230  1
  Se  Se119  1  0.08396312  0.74603357  0.05465788  1
  Se  Se120  1  0.07320334  0.74084760  0.55720705  1
  Se  Se121  1  0.42599389  0.08726357  0.05637653  1
  Se  Se122  1  0.41237804  0.08428290  0.55217700  1
  Se  Se123  1  0.41187846  0.41139443  0.06299489  1
  Se  Se124  1  0.42253461  0.41832098  0.55309489  1
  Se  Se125  1  0.41691386  0.74891249  0.05284768  1
  Se  Se126  1  0.40844768  0.75445804  0.54816100  1
  Se  Se127  1  0.74573609  0.08419000  0.06505658  1
  Se  Se128  1  0.74472662  0.07455000  0.54995950  1
  Se  Se129  1  0.74914678  0.41906791  0.04883799  1
  Se  Se130  1  0.74722150  0.40705089  0.55809798  1
  Se  Se131  1  0.75527644  0.74808384  0.05675783  1
  Se  Se132  1  0.74195489  0.74127652  0.56151945  1
  Se  Se133  1  0.25365790  0.24549877  0.05496121  1
  Se  Se134  1  0.25663432  0.25668373  0.56252481  1
  Se  Se135  1  0.24667611  0.57823557  0.05589987  1
  Se  Se136  1  0.25130109  0.58382592  0.55032731  1
  Se  Se137  1  0.25609975  0.91532022  0.05203192  1
  Se  Se138  1  0.25041417  0.92586178  0.55724150  1
  Se  Se139  1  0.58296630  0.25146100  0.05282771  1
  Se  Se140  1  0.57885880  0.24651279  0.55385145  1
  Se  Se141  1  0.58484495  0.58934058  0.06488594  1
  Se  Se142  1  0.58758176  0.58042349  0.54305178  1
  Se  Se143  1  0.57195573  0.90582840  0.05656082  1
  Se  Se144  1  0.57962553  0.91394789  0.54948323  1
  Se  Se145  1  0.92288937  0.25832976  0.06111266  1
  Se  Se146  1  0.91746189  0.25020975  0.55338546  1
  Se  Se147  1  0.91264913  0.58117703  0.05555021  1
  Se  Se148  1  0.92483326  0.58542376  0.55393690  1
  Se  Se149  1  0.93614365  0.93722919  0.06150159  1
  Se  Se150  1  0.91552302  0.91459061  0.56291365  1
  Se  Se151  1  0.07720828  0.25563410  0.43628498  1
  Se  Se152  1  0.08453937  0.25339059  0.95015479  1
  Se  Se153  1  0.09058980  0.58349914  0.44787504  1
  Se  Se154  1  0.08612226  0.57972731  0.94977556  1
  Se  Se155  1  0.07021766  0.92203648  0.44264045  1
  Se  Se156  1  0.08903081  0.91495116  0.95492302  1
  Se  Se157  1  0.41525331  0.24741538  0.44748219  1
  Se  Se158  1  0.42558873  0.25006633  0.94647008  1
  Se  Se159  1  0.41799171  0.58133432  0.44332075  1
  Se  Se160  1  0.40571234  0.59245025  0.93847357  1
  Se  Se161  1  0.41691896  0.91472432  0.44144068  1
  Se  Se162  1  0.42132196  0.91634917  0.94929905  1
  Se  Se163  1  0.74726074  0.24582379  0.44471144  1
  Se  Se164  1  0.74613323  0.25583967  0.93651601  1
  Se  Se165  1  0.74144153  0.59366854  0.43798103  1
  Se  Se166  1  0.74538539  0.58192943  0.95005338  1
  Se  Se167  1  0.73623507  0.92645528  0.44006326  1
  Se  Se168  1  0.75989817  0.91069879  0.95989428  1
  Se  Se169  1  0.25379207  0.07772627  0.43442781  1
  Se  Se170  1  0.25889642  0.08574375  0.94936378  1
  Se  Se171  1  0.25091714  0.41812332  0.44793582  1
  Se  Se172  1  0.25193428  0.41619650  0.95142804  1
  Se  Se173  1  0.25798160  0.74814401  0.42996924  1
  Se  Se174  1  0.24953125  0.75278794  0.94891762  1
  Se  Se175  1  0.56354815  0.09786200  0.44528239  1
  Se  Se176  1  0.60779550  0.06821115  0.95096452  1
  Se  Se177  1  0.58221348  0.41480086  0.44649446  1
  Se  Se178  1  0.58304482  0.41290533  0.93727074  1
  Se  Se179  1  0.58478129  0.74794671  0.45038925  1
  Se  Se180  1  0.57944666  0.75096661  0.95484817  1
  Se  Se181  1  0.90801136  0.08893810  0.45234891  1
  Se  Se182  1  0.92417089  0.07747903  0.93778153  1
  Se  Se183  1  0.92215349  0.40768222  0.43353502  1
  Se  Se184  1  0.91049037  0.41853666  0.94551000  1
  Se  Se185  1  0.92468975  0.74067837  0.44241142  1
  Se  Se186  1  0.91685135  0.74767721  0.95069082  1
  Se  Se187  1  0.25063260  0.24902134  0.29859732  1
  Se  Se188  1  0.25984747  0.25729717  0.81045070  1
  Se  Se189  1  0.25501509  0.58084861  0.30152712  1
  Se  Se190  1  0.24026682  0.58270276  0.81114213  1
  Se  Se191  1  0.25256486  0.91849452  0.29612636  1
  Se  Se192  1  0.25595978  0.92637850  0.80800872  1
  Se  Se193  1  0.58085487  0.25074032  0.30470828  1
  Se  Se194  1  0.58388644  0.25324121  0.80125293  1
  Se  Se195  1  0.57512981  0.57542087  0.31138714  1
  Se  Se196  1  0.57397836  0.57340192  0.80638061  1
  Se  Se197  1  0.58182333  0.91841212  0.30323543  1
  Se  Se198  1  0.57502132  0.91013299  0.81495810  1
  Se  Se199  1  0.91454803  0.24782432  0.30584572  1
  Se  Se200  1  0.92105127  0.24895019  0.79873317  1
  Se  Se201  1  0.92217487  0.58415692  0.29902364  1
  Se  Se202  1  0.90966427  0.57807408  0.81183375  1
  Se  Se203  1  0.91131635  0.91749568  0.31212196  1
  Se  Se204  1  0.90463728  0.90826667  0.81203482  1
  Se  Se205  1  0.08871898  0.08765049  0.30448842  1
  Se  Se206  1  0.09889668  0.09437673  0.81695958  1
  Se  Se207  1  0.08840624  0.41987776  0.30820487  1
  Se  Se208  1  0.08348918  0.41255573  0.80881783  1
  Se  Se209  1  0.08865349  0.74827018  0.29942395  1
  Se  Se210  1  0.08158411  0.76092514  0.81114649  1
  Se  Se211  1  0.41257742  0.07701084  0.30138772  1
  Se  Se212  1  0.42454975  0.08443898  0.80889298  1
  Se  Se213  1  0.41263362  0.40919175  0.30707544  1
  Se  Se214  1  0.41052997  0.41935253  0.79747350  1
  Se  Se215  1  0.42044670  0.74374035  0.29812903  1
  Se  Se216  1  0.41833852  0.75241766  0.80919705  1
  Se  Se217  1  0.74352996  0.08547877  0.30383424  1
  Se  Se218  1  0.75546518  0.09273606  0.80974909  1
  Se  Se219  1  0.74771265  0.41796567  0.29773922  1
  Se  Se220  1  0.74783645  0.41181634  0.80185492  1
  Se  Se221  1  0.75739385  0.76257330  0.30896570  1
  Se  Se222  1  0.74469643  0.75612984  0.81641432  1
  Se  Se223  1  0.25359998  0.07474022  0.19077804  1
  Se  Se224  1  0.25835581  0.08455115  0.70362881  1
  Se  Se225  1  0.25161825  0.40776604  0.19768178  1
  Se  Se226  1  0.25299935  0.42023326  0.69559525  1
  Se  Se227  1  0.25851460  0.74372935  0.19275016  1
  Se  Se228  1  0.23866679  0.76431538  0.69605033  1
  Se  Se229  1  0.58230272  0.08144016  0.19913178  1
  Se  Se230  1  0.57568892  0.08905158  0.68746917  1
  Se  Se231  1  0.58289738  0.41267190  0.19803122  1
  Se  Se232  1  0.58780939  0.41351395  0.69377118  1
  Se  Se233  1  0.58207741  0.75749453  0.18805476  1
  Se  Se234  1  0.57105136  0.75503692  0.69075143  1
  Se  Se235  1  0.90782635  0.09282748  0.19227886  1
  Se  Se236  1  0.91353010  0.08541789  0.68983526  1
  Se  Se237  1  0.90790420  0.42311917  0.18368631  1
  Se  Se238  1  0.92422008  0.41060042  0.69866000  1
  Se  Se239  1  0.92086257  0.75568661  0.20146623  1
  Se  Se240  1  0.90239871  0.75950120  0.70058960  1
  Se  Se241  1  0.08920528  0.23641483  0.18421437  1
  Se  Se242  1  0.08897232  0.24837349  0.70042253  1
  Se  Se243  1  0.08568996  0.58348512  0.19785567  1
  Se  Se244  1  0.09291515  0.57524735  0.68870460  1
  Se  Se245  1  0.09629539  0.90764518  0.18276951  1
  Se  Se246  1  0.08479865  0.92096728  0.69601390  1
  Se  Se247  1  0.41415124  0.24872317  0.19901797  1
  Se  Se248  1  0.41503570  0.25605112  0.69721962  1
  Se  Se249  1  0.41607617  0.57854241  0.20054150  1
  Se  Se250  1  0.42976302  0.58419171  0.68092300  1
  Se  Se251  1  0.41452603  0.91836590  0.19556841  1
  Se  Se252  1  0.41330168  0.92352436  0.69559201  1
  Se  Se253  1  0.74004525  0.25538980  0.19961046  1
  Se  Se254  1  0.74518300  0.24945599  0.69334483  1
  Se  Se255  1  0.75234393  0.58129765  0.18913940  1
  Se  Se256  1  0.75942879  0.57191616  0.68972627  1
  Se  Se257  1  0.74783591  0.91527934  0.20050568  1
  Se  Se258  1  0.75351817  0.90466094  0.70012695  1
