# generated using pymatgen
data_In86Cu29Se144
_symmetry_space_group_name_H-M   'P 1'
_cell_length_a   17.57907947
_cell_length_b   17.58248495
_cell_length_c   23.44204131
_cell_angle_alpha   89.98336555
_cell_angle_beta   90.00978044
_cell_angle_gamma   89.96885440
_symmetry_Int_Tables_number   1
_chemical_formula_structural   In86Cu29Se144
_chemical_formula_sum   'In86 Cu29 Se144'
_cell_volume   7245.55607440
_cell_formula_units_Z   1
loop_
 _symmetry_equiv_pos_site_id
 _symmetry_equiv_pos_as_xyz
  1  'x, y, z'
loop_
 _atom_site_type_symbol
 _atom_site_label
 _atom_site_symmetry_multiplicity
 _atom_site_fract_x
 _atom_site_fract_y
 _atom_site_fract_z
 _atom_site_occupancy
  In  In0  1  -0.00149097  0.17579434  0.12296129  1
  In  In1  1  0.00413836  0.15552449  0.61993412  1
  In  In2  1  -0.00431371  0.50070870  0.12499524  1
  In  In3  1  0.00339768  0.50620988  0.62286223  1
  In  In4  1  -0.02614987  0.83037240  0.11668391  1
  In  In5  1  -0.02263931  0.82746962  0.62219089  1
  In  In6  1  0.33525836  0.17497833  0.12403465  1
  In  In7  1  0.33729813  0.16716126  0.62495648  1
  In  In8  1  0.33650187  0.49860443  0.11811402  1
  In  In9  1  0.33079549  0.49327099  0.62359881  1
  In  In10  1  0.33535011  0.82577565  0.11816899  1
  In  In11  1  0.34983312  0.83406428  0.62567575  1
  In  In12  1  0.66733280  0.14708582  0.13562526  1
  In  In13  1  0.65526257  0.17763594  0.63352755  1
  In  In14  1  0.67179194  0.50480497  0.11705120  1
  In  In15  1  0.66664535  0.50047036  0.62202833  1
  In  In16  1  0.67610012  0.83307584  0.11759789  1
  In  In17  1  0.67323064  0.83313890  0.62949478  1
  In  In18  1  0.17982218  -0.00235656  0.37847142  1
  In  In19  1  0.17003549  -0.00475609  0.86893370  1
  In  In20  1  0.15185817  0.34705499  0.38353914  1
  In  In21  1  0.17909480  0.34312146  0.87033869  1
  In  In22  1  0.14662419  0.65595499  0.36880939  1
  In  In23  1  0.14944173  0.66467630  0.87276870  1
  In  In24  1  0.51036623  -0.00350380  0.38273542  1
  In  In25  1  0.49756669  -0.00511360  0.86874590  1
  In  In26  1  0.50134037  0.33297221  0.38526380  1
  In  In27  1  0.50327035  0.34330970  0.86511639  1
  In  In28  1  0.51598711  0.66127537  0.39504763  1
  In  In29  1  0.51252953  0.65522264  0.87490137  1
  In  In30  1  0.80903569  0.01018937  0.37284175  1
  In  In31  1  0.82421494  0.00824563  0.88646264  1
  In  In32  1  0.85064320  0.33739994  0.36888644  1
  In  In33  1  0.82400323  0.34455201  0.88070071  1
  In  In34  1  0.83858809  0.65306868  0.39919419  1
  In  In35  1  0.82992293  0.66828344  0.87458766  1
  In  In36  1  -0.00341104  0.19015577  0.37128591  1
  In  In37  1  -0.00906475  0.15591841  0.88196000  1
  In  In38  1  -0.00442266  0.50005787  0.37429802  1
  In  In39  1  -0.02202530  0.53222834  0.90005316  1
  In  In40  1  -0.00882659  0.81079577  0.36750642  1
  In  In41  1  -0.00544441  0.81874543  0.87987213  1
  In  In42  1  0.33604066  0.16593056  0.38624500  1
  In  In43  1  0.33683666  0.17110832  0.86491573  1
  In  In44  1  0.33230531  0.49991771  0.38210055  1
  In  In45  1  0.34196401  0.49550918  0.87545024  1
  In  In46  1  0.34164226  0.83619428  0.37990630  1
  In  In47  1  0.33624976  0.84996289  0.86761221  1
  In  In48  1  0.67018626  0.15671065  0.37371137  1
  In  In49  1  0.66960029  0.17489529  0.86867713  1
  In  In50  1  0.67647426  0.49651619  0.38636151  1
  In  In51  1  0.66328294  0.49801842  0.86995716  1
  In  In52  1  0.66416284  0.83609582  0.38428240  1
  In  In53  1  0.66639511  0.82882167  0.87271427  1
  In  In54  1  0.16355233  0.01235465  0.12754711  1
  In  In55  1  0.16550109  0.01346755  0.62376162  1
  In  In56  1  0.14430759  0.34262336  0.13705639  1
  In  In57  1  0.17799024  0.34290769  0.62101829  1
  In  In58  1  0.15446543  0.64760331  0.11663866  1
  In  In59  1  0.16623000  0.64904189  0.62698591  1
  In  In60  1  0.52744622  -0.00122036  0.12738245  1
  In  In61  1  0.50397128  0.00096305  0.62912475  1
  In  In62  1  0.49747394  0.33695917  0.12457410  1
  In  In63  1  0.49954084  0.33187260  0.62333469  1
  In  In64  1  0.50174545  0.66846701  0.11391463  1
  In  In65  1  0.52390278  0.68446268  0.60624037  1
  In  In66  1  0.82439215  -0.01238372  0.11588047  1
  In  In67  1  0.82840509  -0.01507834  0.62546020  1
  In  In68  1  0.84514854  0.34567298  0.11586988  1
  In  In69  1  0.81655334  0.33289820  0.62747470  1
  In  In70  1  0.84151282  0.66225460  0.11959944  1
  In  In71  1  0.83022662  0.66622691  0.62769794  1
  In  In72  1  0.50362979  0.16899766  0.00384737  1
  In  In73  1  0.33252323  0.66587401  0.26133965  1
  In  In74  1  0.83426124  0.16916397  0.49551972  1
  In  In75  1  0.67534327  0.33051950  0.25791924  1
  In  In76  1  0.67776127  0.66675230  0.25098267  1
  In  In77  1  0.00045494  0.33831354  0.75598379  1
  In  In78  1  0.16850017  0.82747290  0.49396914  1
  In  In79  1  0.16213242  0.17327972  0.00570030  1
  In  In80  1  -0.00255418  -0.00102506  0.24544556  1
  In  In81  1  0.34045603  0.66325394  0.74240029  1
  In  In82  1  -0.00190952  -0.00543508  0.75188760  1
  In  In83  1  0.34007705  -0.00916515  0.25999837  1
  In  In84  1  0.16803549  0.83279339  -0.00981096  1
  In  In85  1  0.33332488  0.33000009  0.24669129  1
  Cu  Cu86  1  0.33567434  0.34354008  -0.00128016  1
  Cu  Cu87  1  0.33919248  0.66708633  -0.00582615  1
  Cu  Cu88  1  0.16528327  0.83378488  0.75047628  1
  Cu  Cu89  1  0.82930033  0.50245347  0.75517499  1
  Cu  Cu90  1  0.66499371  0.66276240  -0.00581008  1
  Cu  Cu91  1  0.17320193  0.17412996  0.74441369  1
  Cu  Cu92  1  0.00121322  0.33979261  0.49919437  1
  Cu  Cu93  1  0.33961451  0.00210022  0.50352313  1
  Cu  Cu94  1  0.49857779  0.16398814  0.74731093  1
  Cu  Cu95  1  0.82453934  0.83624199  0.24714463  1
  Cu  Cu96  1  0.82856153  0.82728308  0.75093348  1
  Cu  Cu97  1  0.66546705  0.33582412  0.50438845  1
  Cu  Cu98  1  0.16018843  0.50087624  0.74946245  1
  Cu  Cu99  1  0.15793575  0.81807339  0.24213649  1
  Cu  Cu100  1  0.00282066  0.00051509  0.49623484  1
  Cu  Cu101  1  0.50954006  0.83687822  0.25440513  1
  Cu  Cu102  1  0.33233145  0.32979098  0.50348587  1
  Cu  Cu103  1  0.00319641  0.33744173  0.00238348  1
  Cu  Cu104  1  0.33350263  0.65916135  0.50396087  1
  Cu  Cu105  1  0.50254757  0.50386287  0.25036623  1
  Cu  Cu106  1  0.67209363  0.33260824  -0.00511148  1
  Cu  Cu107  1  0.82483831  0.16352862  0.75457639  1
  Cu  Cu108  1  0.50682826  0.83352306  0.74650642  1
  Cu  Cu109  1  -0.00231118  0.66161989  0.50026286  1
  Cu  Cu110  1  0.50315794  0.49994206  0.74247457  1
  Cu  Cu111  1  0.16722043  0.16945070  0.25673913  1
  Cu  Cu112  1  0.66506733  0.00148865  0.50551181  1
  Cu  Cu113  1  0.33625009  0.00228923  -0.00532455  1
  Cu  Cu114  1  0.66579570  -0.00899598  -0.00198121  1
  Se  Se115  1  0.07086966  0.07376141  0.05408710  1
  Se  Se116  1  0.08691516  0.08433189  0.54594206  1
  Se  Se117  1  0.08674621  0.41978868  0.05488473  1
  Se  Se118  1  0.08473571  0.41941289  0.55646409  1
  Se  Se119  1  0.07992495  0.75244987  0.05689259  1
  Se  Se120  1  0.08015183  0.74354053  0.56007971  1
  Se  Se121  1  0.41336172  0.07438995  0.06296758  1
  Se  Se122  1  0.42277357  0.08377384  0.55800015  1
  Se  Se123  1  0.42593386  0.42039404  0.05129149  1
  Se  Se124  1  0.41644661  0.41516779  0.55426150  1
  Se  Se125  1  0.41978425  0.75388411  0.04633744  1
  Se  Se126  1  0.41442293  0.75118419  0.54915835  1
  Se  Se127  1  0.74023269  0.08049461  0.05375287  1
  Se  Se128  1  0.74706725  0.08557492  0.56340881  1
  Se  Se129  1  0.75181705  0.41972328  0.04919495  1
  Se  Se130  1  0.75396915  0.41882246  0.55201052  1
  Se  Se131  1  0.74954583  0.73985282  0.05308132  1
  Se  Se132  1  0.77358759  0.77190386  0.56275621  1
  Se  Se133  1  0.25309419  0.26876177  0.06214199  1
  Se  Se134  1  0.24807364  0.24586596  0.55604565  1
  Se  Se135  1  0.25794616  0.58748211  0.05184872  1
  Se  Se136  1  0.24731305  0.57638253  0.55351961  1
  Se  Se137  1  0.25199216  0.92766238  0.05721809  1
  Se  Se138  1  0.25373616  0.91858088  0.55875916  1
  Se  Se139  1  0.59675379  0.25612265  0.06288413  1
  Se  Se140  1  0.58304475  0.24788321  0.55314169  1
  Se  Se141  1  0.58160033  0.57976788  0.04950955  1
  Se  Se142  1  0.58610156  0.57804655  0.54821225  1
  Se  Se143  1  0.58101631  0.90863294  0.05102580  1
  Se  Se144  1  0.58636516  0.91649182  0.56133192  1
  Se  Se145  1  0.91812400  0.24966749  0.04880627  1
  Se  Se146  1  0.92251458  0.25815898  0.56130075  1
  Se  Se147  1  0.91971902  0.57971453  0.04987490  1
  Se  Se148  1  0.91264755  0.58232381  0.55644322  1
  Se  Se149  1  0.91106869  0.91725292  0.04366120  1
  Se  Se150  1  0.91712205  0.92228454  0.55019090  1
  Se  Se151  1  0.08148998  0.24891312  0.44969541  1
  Se  Se152  1  0.07945778  0.25990956  0.93600338  1
  Se  Se153  1  0.08193587  0.57793053  0.44791647  1
  Se  Se154  1  0.09533748  0.58355969  0.95338213  1
  Se  Se155  1  0.07481842  0.91499865  0.43309030  1
  Se  Se156  1  0.07416550  0.92707200  0.93727618  1
  Se  Se157  1  0.42000331  0.24807286  0.45278503  1
  Se  Se158  1  0.41232940  0.25637703  0.94135893  1
  Se  Se159  1  0.41876957  0.57750343  0.45024865  1
  Se  Se160  1  0.42245677  0.58035398  0.94340495  1
  Se  Se161  1  0.42044997  0.91711771  0.44964333  1
  Se  Se162  1  0.41893156  0.91698277  0.94440155  1
  Se  Se163  1  0.74511501  0.26162709  0.43740580  1
  Se  Se164  1  0.75258610  0.24444925  0.94424398  1
  Se  Se165  1  0.71924856  0.60665997  0.45244393  1
  Se  Se166  1  0.74628724  0.57872308  0.93995201  1
  Se  Se167  1  0.75085062  0.92307878  0.44969014  1
  Se  Se168  1  0.74930611  0.90740826  0.94530011  1
  Se  Se169  1  0.25071707  0.08101281  0.45150601  1
  Se  Se170  1  0.25366229  0.08541926  0.94042627  1
  Se  Se171  1  0.25036795  0.41498232  0.44874314  1
  Se  Se172  1  0.24991647  0.42431253  0.94592406  1
  Se  Se173  1  0.25600038  0.73304012  0.43466712  1
  Se  Se174  1  0.26105272  0.74435546  0.92999914  1
  Se  Se175  1  0.58735830  0.08752460  0.44985792  1
  Se  Se176  1  0.58707920  0.07820265  0.93993050  1
  Se  Se177  1  0.58242586  0.41974157  0.45022309  1
  Se  Se178  1  0.58421003  0.41212874  0.94192577  1
  Se  Se179  1  0.57390812  0.76731718  0.45496462  1
  Se  Se180  1  0.58148607  0.74903586  0.94351947  1
  Se  Se181  1  0.92336975  0.07899397  0.43335609  1
  Se  Se182  1  0.91354947  0.08201199  0.95470361  1
  Se  Se183  1  0.91288388  0.41948139  0.44786375  1
  Se  Se184  1  0.91483197  0.41661637  0.94948333  1
  Se  Se185  1  0.91820191  0.75574357  0.45387893  1
  Se  Se186  1  0.91936801  0.73514422  0.94858459  1
  Se  Se187  1  0.24705670  0.24867319  0.31612108  1
  Se  Se188  1  0.25344895  0.25735231  0.79987861  1
  Se  Se189  1  0.23914472  0.56666684  0.30684868  1
  Se  Se190  1  0.24662895  0.58218406  0.80706374  1
  Se  Se191  1  0.23827191  0.89439394  0.30527011  1
  Se  Se192  1  0.25059042  0.92223832  0.79446202  1
  Se  Se193  1  0.57496353  0.24601517  0.31117950  1
  Se  Se194  1  0.58002337  0.25006183  0.80132640  1
  Se  Se195  1  0.58318747  0.57924013  0.31189186  1
  Se  Se196  1  0.58613543  0.58240430  0.79679791  1
  Se  Se197  1  0.59073384  0.91936659  0.30869779  1
  Se  Se198  1  0.58708036  0.91606501  0.80325966  1
  Se  Se199  1  0.89153465  0.22833265  0.30192545  1
  Se  Se200  1  0.90951112  0.24284923  0.81180409  1
  Se  Se201  1  0.91298498  0.59627891  0.31601077  1
  Se  Se202  1  0.91684053  0.58280890  0.80695541  1
  Se  Se203  1  0.90704546  0.91381959  0.31001628  1
  Se  Se204  1  0.90711026  0.90982335  0.81327231  1
  Se  Se205  1  0.08873468  0.08278612  0.31298333  1
  Se  Se206  1  0.08936892  0.09597479  0.80511962  1
  Se  Se207  1  0.06756557  0.40581705  0.30642022  1
  Se  Se208  1  0.08042277  0.43263306  0.81744885  1
  Se  Se209  1  0.07315761  0.73709996  0.29411720  1
  Se  Se210  1  0.07906241  0.75394034  0.80191493  1
  Se  Se211  1  0.42380331  0.08823233  0.31429096  1
  Se  Se212  1  0.41524485  0.08044892  0.80141438  1
  Se  Se213  1  0.42319717  0.42162881  0.30853018  1
  Se  Se214  1  0.41524045  0.42105072  0.79667814  1
  Se  Se215  1  0.43409070  0.75262844  0.31436474  1
  Se  Se216  1  0.42432510  0.75343668  0.80732237  1
  Se  Se217  1  0.75477354  0.09709535  0.29521026  1
  Se  Se218  1  0.74594119  0.07606709  0.80719964  1
  Se  Se219  1  0.76280718  0.43270256  0.30750236  1
  Se  Se220  1  0.74664260  0.41204842  0.80148229  1
  Se  Se221  1  0.75820777  0.75610784  0.31650182  1
  Se  Se222  1  0.74405521  0.74265695  0.80215828  1
  Se  Se223  1  0.25142904  0.09092143  0.19902833  1
  Se  Se224  1  0.25241476  0.08341731  0.69503972  1
  Se  Se225  1  0.24601575  0.42766055  0.19345833  1
  Se  Se226  1  0.24857355  0.42014962  0.69940118  1
  Se  Se227  1  0.24821425  0.74473640  0.18682681  1
  Se  Se228  1  0.24413570  0.75577391  0.68682522  1
  Se  Se229  1  0.57463394  0.08531948  0.20669425  1
  Se  Se230  1  0.58776788  0.08054317  0.70020801  1
  Se  Se231  1  0.58426283  0.42309811  0.19305618  1
  Se  Se232  1  0.58620353  0.41370970  0.69081335  1
  Se  Se233  1  0.58028579  0.75179810  0.19088167  1
  Se  Se234  1  0.58675707  0.74611952  0.69471894  1
  Se  Se235  1  0.90868846  0.08281838  0.18269152  1
  Se  Se236  1  0.90806707  0.08865899  0.69259362  1
  Se  Se237  1  0.93130916  0.40247531  0.19380759  1
  Se  Se238  1  0.90833705  0.42155389  0.69227396  1
  Se  Se239  1  0.90803904  0.75156536  0.19524795  1
  Se  Se240  1  0.91635193  0.74559522  0.70074533  1
  Se  Se241  1  0.07842515  0.24339876  0.20188297  1
  Se  Se242  1  0.08370076  0.24824558  0.68834914  1
  Se  Se243  1  0.07947643  0.58308382  0.19539862  1
  Se  Se244  1  0.07577791  0.58589863  0.70031909  1
  Se  Se245  1  0.08638801  0.90661464  0.18384384  1
  Se  Se246  1  0.08461453  0.90889356  0.68395681  1
  Se  Se247  1  0.43186863  0.23787713  0.19591906  1
  Se  Se248  1  0.41687838  0.25108475  0.69513465  1
  Se  Se249  1  0.42246867  0.58371006  0.19172033  1
  Se  Se250  1  0.43150478  0.58340098  0.67820776  1
  Se  Se251  1  0.42376274  0.90672189  0.19050190  1
  Se  Se252  1  0.41875124  0.91810510  0.69917790  1
  Se  Se253  1  0.75333944  0.25433674  0.18199665  1
  Se  Se254  1  0.74603373  0.25174553  0.70257150  1
  Se  Se255  1  0.76192743  0.57196998  0.19206583  1
  Se  Se256  1  0.74786300  0.58070864  0.69489226  1
  Se  Se257  1  0.74210628  0.91848500  0.19375886  1
  Se  Se258  1  0.74858649  0.91928248  0.70333837  1
