# generated using pymatgen
data_In86Cu29Se144
_symmetry_space_group_name_H-M   'P 1'
_cell_length_a   17.57128234
_cell_length_b   17.57182106
_cell_length_c   23.43676636
_cell_angle_alpha   90.02990051
_cell_angle_beta   89.99766940
_cell_angle_gamma   90.01672121
_symmetry_Int_Tables_number   1
_chemical_formula_structural   In86Cu29Se144
_chemical_formula_sum   'In86 Cu29 Se144'
_cell_volume   7236.32130020
_cell_formula_units_Z   1
loop_
 _symmetry_equiv_pos_site_id
 _symmetry_equiv_pos_as_xyz
  1  'x, y, z'
loop_
 _atom_site_type_symbol
 _atom_site_label
 _atom_site_symmetry_multiplicity
 _atom_site_fract_x
 _atom_site_fract_y
 _atom_site_fract_z
 _atom_site_occupancy
  In  In0  1  0.00819590  0.17767998  0.11646344  1
  In  In1  1  -0.00493457  0.16042231  0.61823283  1
  In  In2  1  -0.01259797  0.47885077  0.13098251  1
  In  In3  1  0.00284825  0.49478870  0.62190396  1
  In  In4  1  -0.00151055  0.84531620  0.12204859  1
  In  In5  1  0.01336558  0.83671555  0.62379814  1
  In  In6  1  0.33191410  0.17418507  0.11811322  1
  In  In7  1  0.32643478  0.15973051  0.61823347  1
  In  In8  1  0.34316415  0.49052828  0.12987074  1
  In  In9  1  0.33930797  0.50428633  0.61872719  1
  In  In10  1  0.33681604  0.81938240  0.12741910  1
  In  In11  1  0.33375224  0.83259939  0.62582472  1
  In  In12  1  0.66197511  0.16162570  0.11541555  1
  In  In13  1  0.65624810  0.15633187  0.62199306  1
  In  In14  1  0.66232622  0.51865553  0.12990949  1
  In  In15  1  0.66388440  0.51667565  0.62863948  1
  In  In16  1  0.66108169  0.82855404  0.11888356  1
  In  In17  1  0.65674680  0.84776392  0.64100757  1
  In  In18  1  0.16492290  0.00343612  0.38542871  1
  In  In19  1  0.17719098  0.00642765  0.86414810  1
  In  In20  1  0.17186141  0.32968426  0.36964961  1
  In  In21  1  0.16055363  0.32944947  0.87582596  1
  In  In22  1  0.18025382  0.65287572  0.38745670  1
  In  In23  1  0.18685801  0.66320854  0.86527671  1
  In  In24  1  0.49579500  0.00226262  0.38564000  1
  In  In25  1  0.49995072  -0.00503489  0.87533372  1
  In  In26  1  0.49125662  0.34452901  0.38068595  1
  In  In27  1  0.49612213  0.33114091  0.89033458  1
  In  In28  1  0.49814079  0.66382727  0.37379318  1
  In  In29  1  0.50293248  0.66869710  0.87139873  1
  In  In30  1  0.84381829  0.00260113  0.37663758  1
  In  In31  1  0.83193696  -0.00319128  0.86669789  1
  In  In32  1  0.83052941  0.31752119  0.37299082  1
  In  In33  1  0.82146591  0.33157633  0.88119897  1
  In  In34  1  0.81689904  0.67003938  0.36642243  1
  In  In35  1  0.83074648  0.68594495  0.87005187  1
  In  In36  1  0.00108999  0.16801633  0.37715445  1
  In  In37  1  0.00688904  0.15463020  0.87714465  1
  In  In38  1  0.01594768  0.50050232  0.37752598  1
  In  In39  1  0.01080726  0.49976227  0.87318227  1
  In  In40  1  0.00129263  0.84241466  0.37788249  1
  In  In41  1  -0.01898735  0.83955314  0.87304796  1
  In  In42  1  0.32210781  0.18130820  0.38222357  1
  In  In43  1  0.34425738  0.15771558  0.88548073  1
  In  In44  1  0.33524050  0.49943606  0.37238974  1
  In  In45  1  0.33381120  0.51470194  0.87114303  1
  In  In46  1  0.34652882  0.82343224  0.38376320  1
  In  In47  1  0.34516833  0.84151967  0.86753028  1
  In  In48  1  0.66767883  0.16446059  0.38404397  1
  In  In49  1  0.67169037  0.15671360  0.88188151  1
  In  In50  1  0.65072233  0.50193355  0.37685659  1
  In  In51  1  0.65465004  0.49947411  0.87235448  1
  In  In52  1  0.66788139  0.81605723  0.37234938  1
  In  In53  1  0.66634274  0.83100762  0.86814576  1
  In  In54  1  0.15482763  0.00912825  0.12452052  1
  In  In55  1  0.16966298  0.00166237  0.62628610  1
  In  In56  1  0.17980286  0.31537071  0.14472247  1
  In  In57  1  0.17126495  0.33557045  0.61145836  1
  In  In58  1  0.17559366  0.67400605  0.13156864  1
  In  In59  1  0.17466985  0.67232498  0.61794299  1
  In  In60  1  0.50051057  0.00164808  0.11452477  1
  In  In61  1  0.49884276  -0.00376241  0.62810406  1
  In  In62  1  0.48145112  0.32899215  0.11226155  1
  In  In63  1  0.49312491  0.32846696  0.61601265  1
  In  In64  1  0.50043520  0.66651464  0.12258495  1
  In  In65  1  0.49623597  0.66837457  0.62408537  1
  In  In66  1  0.82736349  -0.00421779  0.11252482  1
  In  In67  1  0.82144247  0.00714411  0.64061959  1
  In  In68  1  0.84788473  0.33549649  0.12936925  1
  In  In69  1  0.84600175  0.33024089  0.62516869  1
  In  In70  1  0.82083189  0.66663275  0.12730126  1
  In  In71  1  0.81095651  0.67467387  0.63732074  1
  In  In72  1  -0.00198503  0.00090407  0.25499144  1
  In  In73  1  0.83541533  0.49862022  0.50695558  1
  In  In74  1  0.66649413  0.33991833  0.24992675  1
  In  In75  1  0.00173250  0.67151349  0.74972256  1
  In  In76  1  0.00322733  0.66194145  0.25089434  1
  In  In77  1  0.66433815  -0.00540975  0.24124357  1
  In  In78  1  0.33471627  0.33197850  0.74395715  1
  In  In79  1  0.00260239  0.33442168  0.74934299  1
  In  In80  1  0.33274346  0.00506290  0.24754407  1
  In  In81  1  0.83412457  0.83779965  0.49931840  1
  In  In82  1  0.17346471  0.49561399  0.00232410  1
  In  In83  1  0.16797607  0.84196337  0.00122654  1
  In  In84  1  0.82667156  0.50018263  0.00691770  1
  In  In85  1  0.66557785  0.33277146  0.75770034  1
  Cu  Cu86  1  0.17081366  0.16591351  0.74683817  1
  Cu  Cu87  1  -0.00394986  0.66707141  -0.00516048  1
  Cu  Cu88  1  0.66638539  -0.00090766  0.50931923  1
  Cu  Cu89  1  0.17678996  0.82819150  0.25884006  1
  Cu  Cu90  1  0.33202560  0.00200040  -0.00541132  1
  Cu  Cu91  1  -0.00781002  0.00447463  -0.00454480  1
  Cu  Cu92  1  0.33482907  0.33408880  0.49345134  1
  Cu  Cu93  1  0.16915671  0.49860815  0.25656507  1
  Cu  Cu94  1  -0.00175982  0.32496014  0.00001030  1
  Cu  Cu95  1  0.66609689  0.33014236  0.49836061  1
  Cu  Cu96  1  0.66377076  0.67189298  -0.00226116  1
  Cu  Cu97  1  0.49819172  0.50274937  0.74744461  1
  Cu  Cu98  1  0.83731619  0.16300643  0.24720719  1
  Cu  Cu99  1  0.65483588  0.66949063  0.50221723  1
  Cu  Cu100  1  0.33521434  -0.00302350  0.50485068  1
  Cu  Cu101  1  0.49841710  0.50551127  0.24942054  1
  Cu  Cu102  1  0.49177157  0.17909205  0.25033710  1
  Cu  Cu103  1  -0.00041094  0.66849664  0.50304667  1
  Cu  Cu104  1  0.16769945  0.83560421  0.74412128  1
  Cu  Cu105  1  0.50536314  0.82458405  0.25038609  1
  Cu  Cu106  1  0.49632920  0.82770958  0.74934681  1
  Cu  Cu107  1  0.83179727  0.16531824  0.75170431  1
  Cu  Cu108  1  0.00353721  0.00401804  0.50187536  1
  Cu  Cu109  1  0.66174720  0.33000746  0.00246992  1
  Cu  Cu110  1  0.34635832  0.66947524  -0.00187150  1
  Cu  Cu111  1  0.50249592  0.15189940  0.75394200  1
  Cu  Cu112  1  0.00442887  0.32997502  0.49709002  1
  Cu  Cu113  1  0.66501946  -0.00162709  -0.00893207  1
  Cu  Cu114  1  0.33589748  0.66640365  0.49974858  1
  Se  Se115  1  0.08041233  0.08410934  0.04838491  1
  Se  Se116  1  0.09010702  0.08628761  0.55417703  1
  Se  Se117  1  0.07740092  0.40844320  0.05862026  1
  Se  Se118  1  0.08284651  0.41996460  0.54824531  1
  Se  Se119  1  0.07886056  0.74320408  0.05839135  1
  Se  Se120  1  0.08610814  0.75352458  0.55110599  1
  Se  Se121  1  0.41288299  0.08544376  0.05210645  1
  Se  Se122  1  0.42104654  0.08092143  0.55645290  1
  Se  Se123  1  0.41584368  0.42838001  0.04749408  1
  Se  Se124  1  0.41654324  0.41708136  0.54931544  1
  Se  Se125  1  0.42388916  0.75692215  0.05236713  1
  Se  Se126  1  0.41632328  0.75182636  0.55401908  1
  Se  Se127  1  0.74717388  0.08249661  0.04695153  1
  Se  Se128  1  0.75459526  0.08154397  0.55860057  1
  Se  Se129  1  0.73903370  0.40833501  0.06728680  1
  Se  Se130  1  0.74103034  0.40914249  0.56476769  1
  Se  Se131  1  0.75194066  0.74944469  0.05182786  1
  Se  Se132  1  0.73769140  0.75295078  0.55823480  1
  Se  Se133  1  0.23955517  0.25542207  0.05632929  1
  Se  Se134  1  0.25342057  0.24850676  0.54779759  1
  Se  Se135  1  0.25934263  0.59524604  0.05842785  1
  Se  Se136  1  0.25043258  0.58153994  0.55028812  1
  Se  Se137  1  0.25934384  0.92697337  0.06594156  1
  Se  Se138  1  0.24886729  0.91526131  0.55722348  1
  Se  Se139  1  0.57522936  0.24587005  0.05196500  1
  Se  Se140  1  0.58298257  0.24619999  0.55310263  1
  Se  Se141  1  0.58361506  0.58527032  0.05111969  1
  Se  Se142  1  0.57682434  0.58066939  0.55407686  1
  Se  Se143  1  0.58483429  0.91680497  0.05031328  1
  Se  Se144  1  0.58334990  0.91247855  0.55831559  1
  Se  Se145  1  0.90809506  0.24798239  0.05221209  1
  Se  Se146  1  0.91718896  0.25011770  0.55027913  1
  Se  Se147  1  0.92681857  0.58659444  0.06173170  1
  Se  Se148  1  0.91543967  0.59888705  0.56695454  1
  Se  Se149  1  0.91547681  0.91358271  0.04695359  1
  Se  Se150  1  0.91939874  0.92702523  0.56249797  1
  Se  Se151  1  0.08909000  0.24922183  0.44264956  1
  Se  Se152  1  0.08299837  0.24566255  0.94484025  1
  Se  Se153  1  0.08386786  0.58184227  0.45383559  1
  Se  Se154  1  0.08696354  0.59452245  0.94062365  1
  Se  Se155  1  0.08356706  0.91488202  0.45103373  1
  Se  Se156  1  0.07832751  0.92461635  0.93674869  1
  Se  Se157  1  0.42327416  0.24690523  0.44712717  1
  Se  Se158  1  0.40796819  0.25259142  0.95379994  1
  Se  Se159  1  0.41666272  0.58157399  0.44380312  1
  Se  Se160  1  0.42274108  0.58312512  0.94265496  1
  Se  Se161  1  0.42035513  0.91313975  0.45295090  1
  Se  Se162  1  0.41612657  0.91430502  0.94745294  1
  Se  Se163  1  0.75385340  0.24658361  0.45073434  1
  Se  Se164  1  0.74738708  0.24742365  0.95105794  1
  Se  Se165  1  0.74345689  0.58958670  0.44690619  1
  Se  Se166  1  0.74598976  0.58861227  0.93920587  1
  Se  Se167  1  0.74004467  0.92483180  0.43806946  1
  Se  Se168  1  0.74877778  0.91595780  0.93748233  1
  Se  Se169  1  0.25544313  0.08263542  0.44915946  1
  Se  Se170  1  0.24241451  0.08241082  0.94564968  1
  Se  Se171  1  0.25012870  0.41651859  0.43999258  1
  Se  Se172  1  0.25947879  0.41197921  0.93584183  1
  Se  Se173  1  0.24980027  0.75340629  0.45005266  1
  Se  Se174  1  0.25777562  0.74896171  0.94240730  1
  Se  Se175  1  0.58492208  0.08189023  0.45128155  1
  Se  Se176  1  0.57547750  0.08388659  0.94583306  1
  Se  Se177  1  0.58201137  0.41781576  0.45081817  1
  Se  Se178  1  0.58597964  0.41933287  0.94910038  1
  Se  Se179  1  0.57723645  0.75210379  0.44411481  1
  Se  Se180  1  0.58218337  0.75362690  0.94125517  1
  Se  Se181  1  0.91829808  0.08540279  0.44762646  1
  Se  Se182  1  0.90778365  0.08414655  0.93983334  1
  Se  Se183  1  0.91892149  0.41069285  0.43987126  1
  Se  Se184  1  0.92342412  0.41464070  0.94293731  1
  Se  Se185  1  0.91808788  0.74009875  0.43870317  1
  Se  Se186  1  0.91220498  0.75361081  0.94754438  1
  Se  Se187  1  0.25616243  0.25008148  0.30017835  1
  Se  Se188  1  0.24936683  0.24351051  0.80926675  1
  Se  Se189  1  0.25187286  0.58668713  0.30477844  1
  Se  Se190  1  0.25206605  0.57645684  0.79321662  1
  Se  Se191  1  0.25154110  0.91551813  0.31594772  1
  Se  Se192  1  0.25393372  0.91520092  0.79958547  1
  Se  Se193  1  0.58045701  0.24731582  0.31220640  1
  Se  Se194  1  0.57275352  0.24201681  0.81410450  1
  Se  Se195  1  0.58471106  0.58676848  0.30161466  1
  Se  Se196  1  0.58413434  0.58477046  0.79970441  1
  Se  Se197  1  0.57583007  0.91430991  0.31010855  1
  Se  Se198  1  0.57822284  0.91461721  0.80232368  1
  Se  Se199  1  0.91849871  0.24416903  0.30312353  1
  Se  Se200  1  0.91023173  0.24819390  0.81129185  1
  Se  Se201  1  0.91381531  0.57689475  0.31466309  1
  Se  Se202  1  0.91503382  0.58103967  0.81314794  1
  Se  Se203  1  0.90349505  0.90287867  0.30421871  1
  Se  Se204  1  0.92214334  0.92445666  0.79678810  1
  Se  Se205  1  0.09510614  0.08909280  0.30722223  1
  Se  Se206  1  0.08401024  0.08426899  0.79895644  1
  Se  Se207  1  0.08263478  0.41406192  0.30402408  1
  Se  Se208  1  0.10025950  0.42721816  0.80104514  1
  Se  Se209  1  0.09062411  0.75059482  0.31616561  1
  Se  Se210  1  0.09193648  0.76065980  0.81318872  1
  Se  Se211  1  0.42190267  0.09104485  0.31159853  1
  Se  Se212  1  0.41162810  0.07733674  0.80748727  1
  Se  Se213  1  0.41866152  0.41716890  0.30182069  1
  Se  Se214  1  0.42619862  0.41593072  0.80843598  1
  Se  Se215  1  0.41596858  0.74838337  0.30399165  1
  Se  Se216  1  0.41222795  0.74312459  0.80177057  1
  Se  Se217  1  0.75305820  0.08532534  0.30623045  1
  Se  Se218  1  0.74362960  0.08437223  0.80237575  1
  Se  Se219  1  0.75335738  0.42389456  0.31613560  1
  Se  Se220  1  0.76071843  0.42760258  0.80888652  1
  Se  Se221  1  0.74756486  0.75329165  0.29409872  1
  Se  Se222  1  0.74693913  0.75090718  0.79582051  1
  Se  Se223  1  0.23952607  0.09393603  0.19180296  1
  Se  Se224  1  0.25658549  0.08171547  0.69630597  1
  Se  Se225  1  0.25354900  0.41891741  0.20038274  1
  Se  Se226  1  0.24434503  0.42154662  0.68620459  1
  Se  Se227  1  0.25907358  0.74652301  0.20460056  1
  Se  Se228  1  0.24986430  0.74807017  0.69490023  1
  Se  Se229  1  0.56951246  0.09382380  0.19273403  1
  Se  Se230  1  0.58823107  0.07420616  0.69858318  1
  Se  Se231  1  0.57213100  0.42032887  0.18701125  1
  Se  Se232  1  0.57526425  0.41509330  0.68986782  1
  Se  Se233  1  0.58764473  0.74585927  0.19294380  1
  Se  Se234  1  0.58109801  0.74457075  0.69645503  1
  Se  Se235  1  0.91249086  0.08245696  0.18439669  1
  Se  Se236  1  0.92068151  0.08902471  0.69730282  1
  Se  Se237  1  0.90586240  0.41758673  0.20887139  1
  Se  Se238  1  0.90828770  0.42926611  0.69635789  1
  Se  Se239  1  0.91849277  0.75443701  0.18906023  1
  Se  Se240  1  0.91359932  0.76098054  0.68924253  1
  Se  Se241  1  0.06489055  0.25820499  0.19731447  1
  Se  Se242  1  0.09238217  0.24726913  0.68648577  1
  Se  Se243  1  0.09129435  0.57090533  0.18746006  1
  Se  Se244  1  0.08835975  0.58190277  0.68751991  1
  Se  Se245  1  0.09557691  0.90694956  0.19813117  1
  Se  Se246  1  0.08340851  0.92237895  0.69696209  1
  Se  Se247  1  0.40988134  0.25535807  0.19249502  1
  Se  Se248  1  0.42727458  0.23525928  0.69191917  1
  Se  Se249  1  0.41546607  0.58825176  0.19387217  1
  Se  Se250  1  0.41368492  0.58381530  0.69389399  1
  Se  Se251  1  0.42782672  0.91190926  0.19232457  1
  Se  Se252  1  0.41464480  0.91478102  0.69696342  1
  Se  Se253  1  0.74953151  0.23990837  0.19013599  1
  Se  Se254  1  0.75325846  0.24663776  0.69109383  1
  Se  Se255  1  0.76400783  0.57093963  0.19790637  1
  Se  Se256  1  0.75142574  0.57604174  0.70363343  1
  Se  Se257  1  0.75976675  0.90637073  0.18796049  1
  Se  Se258  1  0.75968288  0.90687267  0.70511049  1
