# generated using pymatgen
data_In86Cu29Se144
_symmetry_space_group_name_H-M   'P 1'
_cell_length_a   17.57453766
_cell_length_b   17.57551810
_cell_length_c   23.43552794
_cell_angle_alpha   90.03068004
_cell_angle_beta   90.00435925
_cell_angle_gamma   90.01062798
_symmetry_Int_Tables_number   1
_chemical_formula_structural   In86Cu29Se144
_chemical_formula_sum   'In86 Cu29 Se144'
_cell_volume   7238.80229281
_cell_formula_units_Z   1
loop_
 _symmetry_equiv_pos_site_id
 _symmetry_equiv_pos_as_xyz
  1  'x, y, z'
loop_
 _atom_site_type_symbol
 _atom_site_label
 _atom_site_symmetry_multiplicity
 _atom_site_fract_x
 _atom_site_fract_y
 _atom_site_fract_z
 _atom_site_occupancy
  In  In0  1  -0.00339166  0.14955631  0.13348831  1
  In  In1  1  -0.00383369  0.15128021  0.60549386  1
  In  In2  1  0.00877598  0.51535117  0.12643996  1
  In  In3  1  0.00045846  0.50344893  0.62163764  1
  In  In4  1  0.00105090  0.83737523  0.12561522  1
  In  In5  1  0.00638346  0.85072963  0.60813281  1
  In  In6  1  0.34064794  0.18139465  0.11556350  1
  In  In7  1  0.33527742  0.16522506  0.62546172  1
  In  In8  1  0.31898428  0.48994370  0.11885929  1
  In  In9  1  0.34372362  0.48579865  0.63814474  1
  In  In10  1  0.32751351  0.82909836  0.11040419  1
  In  In11  1  0.33696010  0.84187804  0.64268983  1
  In  In12  1  0.66859057  0.17855118  0.12819877  1
  In  In13  1  0.67203571  0.17342291  0.61685801  1
  In  In14  1  0.66434443  0.48067085  0.12350187  1
  In  In15  1  0.65299518  0.51094619  0.63276384  1
  In  In16  1  0.66257959  0.82833910  0.11474506  1
  In  In17  1  0.66450737  0.82252107  0.62485394  1
  In  In18  1  0.14916907  0.01134171  0.38978108  1
  In  In19  1  0.17395113  -0.00930538  0.88021064  1
  In  In20  1  0.16336429  0.31907337  0.36851914  1
  In  In21  1  0.19703036  0.31508477  0.90349365  1
  In  In22  1  0.16265590  0.68097697  0.37571188  1
  In  In23  1  0.18100598  0.65857950  0.88219150  1
  In  In24  1  0.51505300  0.01197186  0.38307223  1
  In  In25  1  0.49187281  0.01609143  0.87953562  1
  In  In26  1  0.49964811  0.32904460  0.37803672  1
  In  In27  1  0.48689938  0.31963283  0.86861331  1
  In  In28  1  0.48258152  0.66569272  0.37985914  1
  In  In29  1  0.50834255  0.67991223  0.86200079  1
  In  In30  1  0.84199985  -0.00976759  0.39258193  1
  In  In31  1  0.82546656  -0.00774019  0.87493292  1
  In  In32  1  0.81814376  0.33602386  0.36546047  1
  In  In33  1  0.84046410  0.34447598  0.87517801  1
  In  In34  1  0.84541764  0.66248608  0.36853741  1
  In  In35  1  0.82818114  0.66678705  0.87987426  1
  In  In36  1  0.00560661  0.15843401  0.37853562  1
  In  In37  1  0.00694054  0.18181055  0.87604062  1
  In  In38  1  -0.01316291  0.50753692  0.35912034  1
  In  In39  1  0.00455311  0.49840777  0.88716354  1
  In  In40  1  -0.00113215  0.83595851  0.37321900  1
  In  In41  1  0.00082910  0.83006270  0.88118107  1
  In  In42  1  0.32685235  0.17240984  0.38003450  1
  In  In43  1  0.33319148  0.16655205  0.87381071  1
  In  In44  1  0.34763514  0.49889769  0.37840149  1
  In  In45  1  0.32922284  0.49323390  0.87274294  1
  In  In46  1  0.32120187  0.82160644  0.37785144  1
  In  In47  1  0.33779815  0.83749209  0.87188022  1
  In  In48  1  0.65651500  0.17408316  0.39142825  1
  In  In49  1  0.65165977  0.16552906  0.87324174  1
  In  In50  1  0.66520315  0.47990751  0.37318663  1
  In  In51  1  0.67066320  0.50427846  0.87209131  1
  In  In52  1  0.67522275  0.85093307  0.37777538  1
  In  In53  1  0.67769861  0.82634758  0.87793107  1
  In  In54  1  0.16016180  -0.00574432  0.12049992  1
  In  In55  1  0.18039381  0.00890395  0.61761508  1
  In  In56  1  0.18020676  0.34534582  0.11941277  1
  In  In57  1  0.18000309  0.32386660  0.62838816  1
  In  In58  1  0.15575980  0.66115981  0.11724050  1
  In  In59  1  0.16639061  0.67769838  0.62715669  1
  In  In60  1  0.49777759  -0.00113671  0.11527702  1
  In  In61  1  0.48465912  -0.00632931  0.62972566  1
  In  In62  1  0.50510459  0.33061698  0.12842388  1
  In  In63  1  0.49774661  0.33572306  0.62688713  1
  In  In64  1  0.48647089  0.66696926  0.11804958  1
  In  In65  1  0.51037554  0.66790178  0.63789720  1
  In  In66  1  0.84564824  0.00006384  0.12951229  1
  In  In67  1  0.82341842  -0.00404526  0.59960593  1
  In  In68  1  0.81825995  0.32843350  0.12943066  1
  In  In69  1  0.83089828  0.32147216  0.61966172  1
  In  In70  1  0.84147352  0.67744223  0.12054154  1
  In  In71  1  0.81871864  0.67068908  0.62594682  1
  In  In72  1  0.31987554  0.65443363  0.23962629  1
  In  In73  1  0.66858931  0.65671596  0.24892997  1
  In  In74  1  0.00309826  0.00605999  0.73772679  1
  In  In75  1  0.82787984  0.49948790  0.48683050  1
  In  In76  1  0.16776800  0.49800876  0.49602303  1
  In  In77  1  0.49823286  0.49747282  -0.00357309  1
  In  In78  1  0.49913271  0.83744382  0.50674862  1
  In  In79  1  0.00671138  0.33709023  0.74772766  1
  In  In80  1  0.83464519  0.16283577  0.00837124  1
  In  In81  1  0.65761562  -0.00526051  0.74456581  1
  In  In82  1  0.00451939  0.33589146  0.24641626  1
  In  In83  1  -0.00081752  0.66750682  0.74985393  1
  In  In84  1  0.68051276  0.01300288  0.25631338  1
  In  In85  1  0.32838804  0.00153834  0.25256602  1
  Cu  Cu86  1  0.16937751  0.49373752  0.76195334  1
  Cu  Cu87  1  0.00504670  0.33932309  0.00696796  1
  Cu  Cu88  1  0.32899108  0.00650552  -0.00260243  1
  Cu  Cu89  1  0.66478675  0.32637141  -0.00091686  1
  Cu  Cu90  1  0.33283618  0.66126542  0.50724168  1
  Cu  Cu91  1  0.50045276  0.49798966  0.75500290  1
  Cu  Cu92  1  -0.00529536  0.67369455  0.49634520  1
  Cu  Cu93  1  0.33373100  -0.00567930  0.50495390  1
  Cu  Cu94  1  0.17172610  0.16817474  0.75025350  1
  Cu  Cu95  1  0.33819601  0.67713387  -0.00729196  1
  Cu  Cu96  1  0.15312817  0.83740177  0.24966135  1
  Cu  Cu97  1  0.49699833  0.83531451  0.24682219  1
  Cu  Cu98  1  0.82298646  0.16927588  0.74043233  1
  Cu  Cu99  1  -0.00278771  -0.00089186  0.00194531  1
  Cu  Cu100  1  0.67264981  0.66134292  -0.00475269  1
  Cu  Cu101  1  0.17866548  0.83326578  0.75261666  1
  Cu  Cu102  1  -0.00274913  0.67426041  0.00179273  1
  Cu  Cu103  1  0.82389106  0.50006355  0.75085359  1
  Cu  Cu104  1  0.83917471  0.83729779  0.24998595  1
  Cu  Cu105  1  0.50575540  0.17346566  0.25194148  1
  Cu  Cu106  1  0.33796980  0.32599008  0.50467684  1
  Cu  Cu107  1  0.49411905  0.17465544  0.74907404  1
  Cu  Cu108  1  0.16966459  0.16358880  0.25247626  1
  Cu  Cu109  1  0.50241941  0.48563802  0.25220698  1
  Cu  Cu110  1  0.66100933  0.66923816  0.50398653  1
  Cu  Cu111  1  0.00506355  0.32607241  0.49279004  1
  Cu  Cu112  1  0.83592692  0.83015560  0.74857795  1
  Cu  Cu113  1  0.66341039  -0.00689384  -0.00432200  1
  Cu  Cu114  1  0.65956070  0.34097769  0.50259846  1
  Se  Se115  1  0.07810258  0.08412700  0.05500459  1
  Se  Se116  1  0.08318627  0.06526160  0.54694420  1
  Se  Se117  1  0.08674503  0.42635169  0.05765258  1
  Se  Se118  1  0.07874015  0.40571642  0.55865404  1
  Se  Se119  1  0.08324355  0.75765629  0.05355760  1
  Se  Se120  1  0.08291207  0.74686217  0.55289415  1
  Se  Se121  1  0.41605696  0.08612293  0.05123856  1
  Se  Se122  1  0.41646505  0.07995001  0.55583335  1
  Se  Se123  1  0.41199910  0.40515113  0.05548032  1
  Se  Se124  1  0.41449856  0.41789990  0.55556304  1
  Se  Se125  1  0.42511359  0.75823942  0.04514254  1
  Se  Se126  1  0.41216855  0.74506963  0.56614888  1
  Se  Se127  1  0.73935643  0.07116438  0.06294855  1
  Se  Se128  1  0.75820217  0.10324855  0.54505696  1
  Se  Se129  1  0.75007251  0.40892684  0.05062924  1
  Se  Se130  1  0.74415622  0.42199904  0.56069547  1
  Se  Se131  1  0.75129852  0.74905256  0.04981715  1
  Se  Se132  1  0.75004884  0.75265253  0.54991610  1
  Se  Se133  1  0.24167345  0.24770670  0.05116092  1
  Se  Se134  1  0.24930716  0.24279452  0.55291949  1
  Se  Se135  1  0.26271632  0.59776028  0.05600545  1
  Se  Se136  1  0.25205111  0.57942310  0.56616005  1
  Se  Se137  1  0.24585683  0.91976815  0.04890084  1
  Se  Se138  1  0.25925855  0.90684775  0.56140555  1
  Se  Se139  1  0.58210265  0.24720339  0.05502586  1
  Se  Se140  1  0.57868592  0.25486288  0.55528755  1
  Se  Se141  1  0.59059474  0.58655822  0.05888369  1
  Se  Se142  1  0.57743058  0.58845617  0.55720822  1
  Se  Se143  1  0.57763459  0.91106923  0.04877170  1
  Se  Se144  1  0.59052060  0.92731975  0.56412150  1
  Se  Se145  1  0.92523744  0.25542014  0.06541235  1
  Se  Se146  1  0.91722518  0.25083866  0.54820394  1
  Se  Se147  1  0.91872861  0.58572166  0.05450232  1
  Se  Se148  1  0.91515430  0.58911535  0.55440680  1
  Se  Se149  1  0.91368684  0.91622695  0.05463973  1
  Se  Se150  1  0.91501763  0.91572827  0.53929716  1
  Se  Se151  1  0.09301234  0.24264883  0.44571023  1
  Se  Se152  1  0.08266646  0.24922999  0.95492513  1
  Se  Se153  1  0.07003485  0.58549289  0.43910344  1
  Se  Se154  1  0.08345938  0.59164123  0.94915086  1
  Se  Se155  1  0.10720781  0.88806949  0.43849065  1
  Se  Se156  1  0.08126747  0.91711923  0.94686005  1
  Se  Se157  1  0.42016175  0.24362857  0.44802995  1
  Se  Se158  1  0.41592632  0.24572597  0.94518028  1
  Se  Se159  1  0.41807595  0.57993101  0.45525363  1
  Se  Se160  1  0.41711228  0.59245879  0.93475906  1
  Se  Se161  1  0.41027619  0.91940639  0.43649441  1
  Se  Se162  1  0.41387626  0.92336730  0.94402524  1
  Se  Se163  1  0.74933223  0.26536891  0.44772456  1
  Se  Se164  1  0.75056320  0.24905846  0.93905364  1
  Se  Se165  1  0.73519159  0.59456110  0.43376219  1
  Se  Se166  1  0.75565866  0.57290563  0.94758574  1
  Se  Se167  1  0.73969383  0.92508352  0.45685309  1
  Se  Se168  1  0.75501320  0.91206550  0.94975892  1
  Se  Se169  1  0.25525727  0.07887995  0.44764950  1
  Se  Se170  1  0.24457673  0.08842153  0.94398708  1
  Se  Se171  1  0.25768453  0.40345411  0.44043635  1
  Se  Se172  1  0.24216124  0.43804532  0.95145244  1
  Se  Se173  1  0.24873769  0.74288777  0.45398670  1
  Se  Se174  1  0.25007751  0.76040211  0.94366074  1
  Se  Se175  1  0.58346971  0.08516251  0.46109739  1
  Se  Se176  1  0.58361937  0.08685757  0.95058053  1
  Se  Se177  1  0.57518507  0.42151114  0.44793094  1
  Se  Se178  1  0.58689630  0.40624248  0.93625500  1
  Se  Se179  1  0.58494318  0.74969272  0.43755248  1
  Se  Se180  1  0.58793488  0.74441342  0.94288931  1
  Se  Se181  1  0.93004356  0.07890139  0.45194297  1
  Se  Se182  1  0.92174465  0.07970481  0.93678093  1
  Se  Se183  1  0.92695721  0.40988010  0.43440654  1
  Se  Se184  1  0.91679837  0.41625490  0.95273543  1
  Se  Se185  1  0.91004209  0.75190549  0.44090604  1
  Se  Se186  1  0.91112858  0.75236613  0.94629728  1
  Se  Se187  1  0.25650610  0.24799119  0.30025983  1
  Se  Se188  1  0.24559294  0.25460944  0.80899268  1
  Se  Se189  1  0.24489332  0.57780767  0.31751700  1
  Se  Se190  1  0.25437003  0.58512816  0.80379922  1
  Se  Se191  1  0.23897443  0.91071176  0.31102736  1
  Se  Se192  1  0.25525688  0.92485671  0.80263274  1
  Se  Se193  1  0.58947359  0.25049871  0.30969067  1
  Se  Se194  1  0.58487232  0.25274318  0.80009803  1
  Se  Se195  1  0.56969371  0.57809353  0.31153691  1
  Se  Se196  1  0.58785406  0.58332900  0.80217116  1
  Se  Se197  1  0.57621119  0.91626477  0.30518721  1
  Se  Se198  1  0.58180753  0.91769194  0.81981041  1
  Se  Se199  1  0.91934602  0.24892813  0.31204555  1
  Se  Se200  1  0.90891710  0.24328713  0.80163304  1
  Se  Se201  1  0.91076199  0.58843686  0.28869605  1
  Se  Se202  1  0.91443348  0.57261383  0.80966939  1
  Se  Se203  1  0.91335225  0.92233343  0.30839672  1
  Se  Se204  1  0.91807195  0.91340989  0.80413677  1
  Se  Se205  1  0.08542667  0.08008525  0.30414854  1
  Se  Se206  1  0.08689039  0.08952284  0.80844635  1
  Se  Se207  1  0.09453236  0.42604433  0.30778641  1
  Se  Se208  1  0.09128984  0.41184524  0.82022670  1
  Se  Se209  1  0.07590193  0.74704316  0.30160224  1
  Se  Se210  1  0.09242872  0.75434732  0.80944069  1
  Se  Se211  1  0.42636823  0.08823959  0.30994305  1
  Se  Se212  1  0.41443328  0.08629793  0.80098799  1
  Se  Se213  1  0.41468450  0.40912820  0.30665457  1
  Se  Se214  1  0.41310048  0.41383506  0.80315029  1
  Se  Se215  1  0.41305298  0.75162527  0.30095198  1
  Se  Se216  1  0.40562627  0.74538502  0.80166363  1
  Se  Se217  1  0.75684672  0.09089905  0.32995625  1
  Se  Se218  1  0.75225938  0.08718486  0.80512582  1
  Se  Se219  1  0.76345645  0.43865681  0.29904923  1
  Se  Se220  1  0.74861487  0.41165542  0.80518233  1
  Se  Se221  1  0.75043544  0.75980677  0.30647034  1
  Se  Se222  1  0.75571371  0.74718782  0.80342438  1
  Se  Se223  1  0.24810438  0.08952009  0.18553468  1
  Se  Se224  1  0.25284232  0.08237320  0.69664818  1
  Se  Se225  1  0.25153937  0.41809376  0.19899872  1
  Se  Se226  1  0.24651147  0.41100529  0.70160562  1
  Se  Se227  1  0.24006398  0.76249767  0.18936722  1
  Se  Se228  1  0.25485150  0.74267081  0.70014692  1
  Se  Se229  1  0.57620938  0.08366560  0.19242040  1
  Se  Se230  1  0.57559396  0.09510279  0.68764444  1
  Se  Se231  1  0.59065158  0.40612920  0.20093896  1
  Se  Se232  1  0.58232669  0.41557795  0.69812354  1
  Se  Se233  1  0.57476149  0.74994879  0.19058978  1
  Se  Se234  1  0.58436362  0.76144406  0.70281379  1
  Se  Se235  1  0.90059006  0.09123720  0.20376557  1
  Se  Se236  1  0.90046480  0.08626628  0.68186274  1
  Se  Se237  1  0.91440199  0.42067529  0.18438804  1
  Se  Se238  1  0.90819142  0.42530947  0.68932552  1
  Se  Se239  1  0.91986686  0.75308534  0.19576443  1
  Se  Se240  1  0.91920416  0.75939833  0.68370897  1
  Se  Se241  1  0.09351967  0.24336831  0.18761902  1
  Se  Se242  1  0.08186542  0.23390449  0.68658331  1
  Se  Se243  1  0.09599014  0.58538010  0.19877812  1
  Se  Se244  1  0.09282823  0.57051337  0.69569570  1
  Se  Se245  1  0.07625235  0.92671071  0.19675744  1
  Se  Se246  1  0.09677097  0.90883872  0.68926571  1
  Se  Se247  1  0.41837651  0.24910943  0.19584841  1
  Se  Se248  1  0.40913694  0.25582453  0.69476792  1
  Se  Se249  1  0.42531423  0.56719281  0.18930192  1
  Se  Se250  1  0.41926728  0.58274974  0.69995924  1
  Se  Se251  1  0.41416179  0.91082572  0.18725397  1
  Se  Se252  1  0.43052217  0.91125412  0.70964527  1
  Se  Se253  1  0.75696059  0.23757482  0.20245097  1
  Se  Se254  1  0.74153119  0.25838941  0.69372945  1
  Se  Se255  1  0.75341505  0.57782933  0.18066596  1
  Se  Se256  1  0.74596049  0.58867059  0.69864498  1
  Se  Se257  1  0.74821847  0.90798613  0.19089950  1
  Se  Se258  1  0.76187606  0.91529674  0.68746565  1
