# generated using pymatgen
data_In86Cu29Se144
_symmetry_space_group_name_H-M   'P 1'
_cell_length_a   17.57515439
_cell_length_b   17.57381858
_cell_length_c   23.43280460
_cell_angle_alpha   90.00627655
_cell_angle_beta   90.00821103
_cell_angle_gamma   89.99870403
_symmetry_Int_Tables_number   1
_chemical_formula_structural   In86Cu29Se144
_chemical_formula_sum   'In86 Cu29 Se144'
_cell_volume   7237.51624406
_cell_formula_units_Z   1
loop_
 _symmetry_equiv_pos_site_id
 _symmetry_equiv_pos_as_xyz
  1  'x, y, z'
loop_
 _atom_site_type_symbol
 _atom_site_label
 _atom_site_symmetry_multiplicity
 _atom_site_fract_x
 _atom_site_fract_y
 _atom_site_fract_z
 _atom_site_occupancy
  In  In0  1  0.00782549  0.15740236  0.12560477  1
  In  In1  1  -0.00386723  0.15291047  0.61101827  1
  In  In2  1  0.01411973  0.51120536  0.11566410  1
  In  In3  1  -0.00144840  0.49411759  0.62516615  1
  In  In4  1  -0.00683319  0.81719620  0.11281858  1
  In  In5  1  -0.00823237  0.84871410  0.62112004  1
  In  In6  1  0.32972014  0.14709910  0.11112178  1
  In  In7  1  0.33401465  0.16902738  0.63158803  1
  In  In8  1  0.34993596  0.51457925  0.11720683  1
  In  In9  1  0.33558117  0.48363257  0.63177560  1
  In  In10  1  0.33154913  0.83233220  0.12191869  1
  In  In11  1  0.35219328  0.83006202  0.62969504  1
  In  In12  1  0.65576024  0.17546932  0.13384078  1
  In  In13  1  0.66645251  0.16437589  0.62871107  1
  In  In14  1  0.65060348  0.50903210  0.13420216  1
  In  In15  1  0.65652486  0.50494498  0.62560743  1
  In  In16  1  0.66882828  0.83077622  0.12349962  1
  In  In17  1  0.67107957  0.84005437  0.61505392  1
  In  In18  1  0.17655099  -0.00230218  0.37121301  1
  In  In19  1  0.19103732  -0.01426075  0.89323544  1
  In  In20  1  0.15902442  0.32864497  0.37462628  1
  In  In21  1  0.18470281  0.31604035  0.88699904  1
  In  In22  1  0.17967732  0.69754222  0.34396614  1
  In  In23  1  0.15960903  0.66101953  0.89947462  1
  In  In24  1  0.48815930  -0.01417820  0.36482877  1
  In  In25  1  0.49920402  0.00196228  0.88425144  1
  In  In26  1  0.52013403  0.33525683  0.37812741  1
  In  In27  1  0.49613291  0.33307988  0.87183554  1
  In  In28  1  0.49948253  0.66583791  0.37038420  1
  In  In29  1  0.50142741  0.67878496  0.89763833  1
  In  In30  1  0.82003965  0.01460686  0.38329320  1
  In  In31  1  0.82358599  -0.00030498  0.87388586  1
  In  In32  1  0.81584514  0.32964423  0.38056776  1
  In  In33  1  0.80990960  0.34416247  0.86742395  1
  In  In34  1  0.84399897  0.67980048  0.36419351  1
  In  In35  1  0.83234785  0.67203820  0.88147449  1
  In  In36  1  0.00225322  0.15712842  0.38794770  1
  In  In37  1  0.01250825  0.17434787  0.87508319  1
  In  In38  1  -0.00457223  0.51508345  0.37164811  1
  In  In39  1  -0.00313652  0.51142176  0.88103955  1
  In  In40  1  0.00387118  0.82750821  0.36922799  1
  In  In41  1  -0.00058442  0.82953094  0.89134915  1
  In  In42  1  0.33738367  0.14923735  0.37351976  1
  In  In43  1  0.33537783  0.16507316  0.87681293  1
  In  In44  1  0.33152739  0.51574408  0.37303621  1
  In  In45  1  0.34054190  0.49293057  0.88227026  1
  In  In46  1  0.33795856  0.84423169  0.36025368  1
  In  In47  1  0.33606680  0.84384666  0.89042174  1
  In  In48  1  0.66877464  0.17410636  0.36866603  1
  In  In49  1  0.65499438  0.15777457  0.86654633  1
  In  In50  1  0.66048405  0.49242054  0.36610264  1
  In  In51  1  0.66143875  0.48901344  0.86987611  1
  In  In52  1  0.66221601  0.83321597  0.36897539  1
  In  In53  1  0.65362758  0.84651602  0.89711746  1
  In  In54  1  0.17814132  -0.00292374  0.11460015  1
  In  In55  1  0.16958855  0.01169628  0.62610635  1
  In  In56  1  0.17021946  0.33516723  0.11805653  1
  In  In57  1  0.18260913  0.31998774  0.63259301  1
  In  In58  1  0.17105917  0.67454612  0.12269588  1
  In  In59  1  0.16646485  0.65882990  0.62680742  1
  In  In60  1  0.49728605  -0.00003631  0.12139907  1
  In  In61  1  0.50797951  -0.00492566  0.63208363  1
  In  In62  1  0.50622337  0.33739020  0.12046656  1
  In  In63  1  0.49734979  0.33642713  0.62956441  1
  In  In64  1  0.50689674  0.66318499  0.12462340  1
  In  In65  1  0.51245810  0.67284077  0.61540223  1
  In  In66  1  0.83526659  -0.01469373  0.12555844  1
  In  In67  1  0.82211592  -0.01248330  0.61263776  1
  In  In68  1  0.82075319  0.32593283  0.13010887  1
  In  In69  1  0.83707977  0.32479340  0.62862869  1
  In  In70  1  0.81274964  0.67941941  0.13092050  1
  In  In71  1  0.81975968  0.67519976  0.61809806  1
  In  In72  1  0.66613764  0.66600847  0.75531273  1
  In  In73  1  0.33716779  0.66460975  0.76604376  1
  In  In74  1  0.16648567  0.83984794  0.48827154  1
  In  In75  1  0.17037799  0.50255312  0.49745230  1
  In  In76  1  0.34063987  0.33295691  0.24288724  1
  In  In77  1  -0.00882718  0.34180051  0.25630267  1
  In  In78  1  0.83146143  0.50171308  0.49718012  1
  In  In79  1  0.00014588  0.00070407  0.74732722  1
  In  In80  1  -0.00192178  0.32996820  0.75102210  1
  In  In81  1  0.00270971  -0.00895835  0.24425884  1
  In  In82  1  0.49941838  0.16562198  0.50057546  1
  In  In83  1  0.82626333  0.50174440  -0.00197740  1
  In  In84  1  -0.00566110  0.66972871  0.76646709  1
  In  In85  1  0.83893720  0.16336450  -0.00398964  1
  Cu  Cu86  1  0.82346438  0.16392859  0.74883298  1
  Cu  Cu87  1  0.34855948  0.66828879  0.49436807  1
  Cu  Cu88  1  0.65272173  -0.00307357  0.49653417  1
  Cu  Cu89  1  0.33662299  0.32869520  0.50673790  1
  Cu  Cu90  1  0.83469140  0.50407729  0.24898298  1
  Cu  Cu91  1  0.65742564  0.33244271  -0.00190525  1
  Cu  Cu92  1  0.33630883  0.33171395  0.00052580  1
  Cu  Cu93  1  0.82337454  0.16601621  0.25587618  1
  Cu  Cu94  1  0.50136825  0.83075449  0.24157766  1
  Cu  Cu95  1  0.66793475  0.67217263  0.49130830  1
  Cu  Cu96  1  0.16001136  0.49013355  0.75965925  1
  Cu  Cu97  1  0.50801936  0.84485108  0.75657121  1
  Cu  Cu98  1  0.82637713  0.83514091  0.74778368  1
  Cu  Cu99  1  0.50240337  0.49893263  0.24777217  1
  Cu  Cu100  1  0.49611007  0.15649784  0.24967303  1
  Cu  Cu101  1  0.67096892  0.00196771  0.00337283  1
  Cu  Cu102  1  0.49713251  0.16989171  0.75334612  1
  Cu  Cu103  1  0.00230289  0.33499000  -0.00097651  1
  Cu  Cu104  1  0.00964030  -0.00251067  0.00435632  1
  Cu  Cu105  1  0.17096426  0.51478491  0.24225759  1
  Cu  Cu106  1  0.00550337  0.32617281  0.49977128  1
  Cu  Cu107  1  0.17114274  0.16496313  0.24276940  1
  Cu  Cu108  1  0.00612656  0.67301321  0.49151733  1
  Cu  Cu109  1  0.18047872  0.83643968  0.76072292  1
  Cu  Cu110  1  0.17324829  0.16179325  0.75395829  1
  Cu  Cu111  1  0.82731403  0.83827652  0.24832321  1
  Cu  Cu112  1  0.49332475  0.50296175  0.75120428  1
  Cu  Cu113  1  0.33192446  0.66615294  0.00850209  1
  Cu  Cu114  1  0.32937396  -0.00350686  0.49675508  1
  Se  Se115  1  0.08963722  0.08704303  0.05290506  1
  Se  Se116  1  0.08378029  0.07056077  0.54996692  1
  Se  Se117  1  0.08684349  0.41818067  0.05005334  1
  Se  Se118  1  0.08605857  0.40663831  0.56074742  1
  Se  Se119  1  0.08904797  0.74800493  0.04808850  1
  Se  Se120  1  0.08421113  0.74811181  0.55846181  1
  Se  Se121  1  0.43221263  0.08893767  0.04666576  1
  Se  Se122  1  0.41028644  0.07357860  0.55989768  1
  Se  Se123  1  0.41936180  0.41609451  0.05321721  1
  Se  Se124  1  0.41743788  0.41673977  0.55515705  1
  Se  Se125  1  0.42104054  0.74680261  0.05788316  1
  Se  Se126  1  0.42353872  0.75501837  0.55098097  1
  Se  Se127  1  0.75059533  0.08519645  0.06429420  1
  Se  Se128  1  0.73453623  0.07788647  0.55391881  1
  Se  Se129  1  0.73869248  0.40991266  0.05983047  1
  Se  Se130  1  0.74881070  0.41522148  0.56303345  1
  Se  Se131  1  0.74658198  0.75107689  0.04902062  1
  Se  Se132  1  0.75146417  0.75716500  0.54348561  1
  Se  Se133  1  0.25203887  0.24893175  0.05344446  1
  Se  Se134  1  0.25279367  0.24228469  0.55487047  1
  Se  Se135  1  0.24557603  0.57839369  0.05516725  1
  Se  Se136  1  0.26563825  0.59033613  0.55803580  1
  Se  Se137  1  0.26701982  0.92211526  0.04723512  1
  Se  Se138  1  0.25655775  0.91421604  0.56226303  1
  Se  Se139  1  0.58180553  0.24445149  0.05319022  1
  Se  Se140  1  0.58689880  0.25680144  0.55926693  1
  Se  Se141  1  0.57232637  0.56760486  0.05424664  1
  Se  Se142  1  0.59047916  0.58645019  0.54759605  1
  Se  Se143  1  0.58795632  0.91824641  0.05576770  1
  Se  Se144  1  0.57261135  0.91389357  0.55255471  1
  Se  Se145  1  0.92343922  0.25646174  0.06157800  1
  Se  Se146  1  0.91605900  0.25085814  0.55359375  1
  Se  Se147  1  0.90669888  0.58926325  0.06446699  1
  Se  Se148  1  0.92752593  0.59330157  0.55615040  1
  Se  Se149  1  0.91822101  0.91702585  0.05121051  1
  Se  Se150  1  0.91406830  0.91638599  0.54518032  1
  Se  Se151  1  0.09219412  0.24384533  0.44899069  1
  Se  Se152  1  0.08703468  0.24592187  0.95277392  1
  Se  Se153  1  0.09187931  0.59747363  0.43294271  1
  Se  Se154  1  0.06681543  0.58190392  0.96013364  1
  Se  Se155  1  0.07089149  0.93089193  0.43627469  1
  Se  Se156  1  0.09147295  0.91074913  0.95301190  1
  Se  Se157  1  0.41005060  0.25533452  0.43589708  1
  Se  Se158  1  0.41895071  0.25089275  0.94439584  1
  Se  Se159  1  0.42568852  0.57712920  0.44413466  1
  Se  Se160  1  0.41326883  0.58432355  0.95106521  1
  Se  Se161  1  0.41039350  0.91283415  0.44230259  1
  Se  Se162  1  0.43426964  0.90801616  0.95515261  1
  Se  Se163  1  0.74138243  0.24423046  0.44858625  1
  Se  Se164  1  0.74246602  0.25313917  0.94076714  1
  Se  Se165  1  0.75059001  0.59177501  0.43183260  1
  Se  Se166  1  0.73290593  0.58703549  0.93891550  1
  Se  Se167  1  0.73982834  0.91721702  0.44166414  1
  Se  Se168  1  0.75977222  0.92042035  0.95291845  1
  Se  Se169  1  0.24745707  0.08296321  0.44600724  1
  Se  Se170  1  0.24083250  0.10090718  0.94792844  1
  Se  Se171  1  0.26014449  0.40774437  0.43869283  1
  Se  Se172  1  0.25001752  0.41811083  0.95047963  1
  Se  Se173  1  0.25830402  0.74292055  0.43578578  1
  Se  Se174  1  0.25339669  0.75024200  0.95134624  1
  Se  Se175  1  0.57736304  0.07595701  0.43254399  1
  Se  Se176  1  0.58956325  0.08669112  0.94924513  1
  Se  Se177  1  0.59722234  0.41672894  0.44771262  1
  Se  Se178  1  0.57790522  0.41690798  0.94282626  1
  Se  Se179  1  0.57909791  0.75219452  0.43979639  1
  Se  Se180  1  0.59939091  0.74248209  0.96307974  1
  Se  Se181  1  0.90451078  0.09241781  0.45172246  1
  Se  Se182  1  0.93208176  0.07246296  0.93717089  1
  Se  Se183  1  0.92934637  0.41128173  0.43907621  1
  Se  Se184  1  0.91485027  0.40423077  0.93880454  1
  Se  Se185  1  0.91807780  0.75505639  0.44265487  1
  Se  Se186  1  0.91618924  0.74279220  0.95262354  1
  Se  Se187  1  0.24751802  0.24441518  0.30651051  1
  Se  Se188  1  0.25440678  0.24989654  0.80390271  1
  Se  Se189  1  0.25997011  0.59173586  0.29553835  1
  Se  Se190  1  0.23550466  0.57797313  0.81877689  1
  Se  Se191  1  0.22836263  0.90041147  0.29985209  1
  Se  Se192  1  0.26400639  0.92014221  0.81045406  1
  Se  Se193  1  0.57525848  0.24628950  0.30049593  1
  Se  Se194  1  0.58383620  0.25480274  0.80263356  1
  Se  Se195  1  0.58546865  0.58467058  0.30094180  1
  Se  Se196  1  0.56469316  0.58753366  0.81398498  1
  Se  Se197  1  0.58180001  0.91555362  0.29755557  1
  Se  Se198  1  0.59033672  0.92263548  0.81487641  1
  Se  Se199  1  0.91182984  0.24123922  0.31419052  1
  Se  Se200  1  0.90397751  0.24040326  0.81186548  1
  Se  Se201  1  0.92147129  0.59022152  0.29553630  1
  Se  Se202  1  0.89666816  0.57176793  0.80894938  1
  Se  Se203  1  0.90542123  0.91968512  0.31077155  1
  Se  Se204  1  0.91524098  0.90672915  0.80978544  1
  Se  Se205  1  0.08545612  0.09116978  0.30462538  1
  Se  Se206  1  0.09286530  0.07981489  0.81233729  1
  Se  Se207  1  0.09564715  0.43347898  0.30584630  1
  Se  Se208  1  0.08241239  0.41218174  0.82156944  1
  Se  Se209  1  0.06996020  0.75542641  0.28811693  1
  Se  Se210  1  0.09594724  0.75699846  0.81803093  1
  Se  Se211  1  0.40739765  0.07309327  0.29603885  1
  Se  Se212  1  0.42163666  0.08298537  0.80965451  1
  Se  Se213  1  0.42307801  0.42000659  0.31153815  1
  Se  Se214  1  0.41063215  0.41764387  0.80302836  1
  Se  Se215  1  0.41952262  0.75063065  0.30019914  1
  Se  Se216  1  0.43038052  0.76061275  0.81612285  1
  Se  Se217  1  0.73975147  0.07719532  0.30242012  1
  Se  Se218  1  0.74450065  0.07621646  0.80126364  1
  Se  Se219  1  0.75712513  0.41590826  0.30272029  1
  Se  Se220  1  0.74126329  0.42352225  0.79240044  1
  Se  Se221  1  0.74643243  0.75001660  0.29999569  1
  Se  Se222  1  0.74913610  0.76263335  0.81449055  1
  Se  Se223  1  0.25120366  0.07941401  0.19114033  1
  Se  Se224  1  0.25638782  0.07864341  0.69960257  1
  Se  Se225  1  0.24917056  0.42649146  0.18696404  1
  Se  Se226  1  0.24693039  0.41392395  0.70354771  1
  Se  Se227  1  0.25836019  0.74574172  0.19427433  1
  Se  Se228  1  0.24853000  0.74823654  0.69698955  1
  Se  Se229  1  0.58239456  0.07675430  0.19520538  1
  Se  Se230  1  0.58089578  0.08708108  0.69870300  1
  Se  Se231  1  0.58357511  0.40789837  0.19968666  1
  Se  Se232  1  0.57912255  0.42318936  0.69706835  1
  Se  Se233  1  0.58862453  0.74664191  0.19419662  1
  Se  Se234  1  0.58111282  0.76064632  0.69317276  1
  Se  Se235  1  0.90679583  0.09169983  0.19339698  1
  Se  Se236  1  0.90531155  0.08558347  0.68776575  1
  Se  Se237  1  0.91236228  0.42561591  0.18391240  1
  Se  Se238  1  0.90734914  0.42646460  0.69717516  1
  Se  Se239  1  0.91001335  0.75587420  0.19322277  1
  Se  Se240  1  0.91222616  0.75438954  0.69181864  1
  Se  Se241  1  0.08586430  0.25273864  0.19459360  1
  Se  Se242  1  0.08349912  0.23280702  0.69198591  1
  Se  Se243  1  0.08092997  0.59282287  0.19207884  1
  Se  Se244  1  0.08368386  0.57492907  0.70053943  1
  Se  Se245  1  0.08549398  0.90843008  0.17689629  1
  Se  Se246  1  0.09551763  0.90395285  0.69371537  1
  Se  Se247  1  0.42156552  0.23707932  0.18392840  1
  Se  Se248  1  0.41552146  0.25384707  0.69820764  1
  Se  Se249  1  0.41990097  0.58564494  0.19792968  1
  Se  Se250  1  0.42007968  0.58790016  0.68872256  1
  Se  Se251  1  0.41695425  0.91561413  0.19163393  1
  Se  Se252  1  0.41799746  0.91974205  0.70204627  1
  Se  Se253  1  0.74154573  0.25379883  0.20500765  1
  Se  Se254  1  0.74572490  0.25304373  0.69678895  1
  Se  Se255  1  0.74487883  0.58346083  0.19878949  1
  Se  Se256  1  0.75745516  0.58139563  0.69108723  1
  Se  Se257  1  0.74335884  0.92035924  0.19579507  1
  Se  Se258  1  0.74570606  0.91733537  0.69211810  1
