# generated using pymatgen
data_In86Cu29Se144
_symmetry_space_group_name_H-M   'P 1'
_cell_length_a   17.57491867
_cell_length_b   17.58135066
_cell_length_c   23.44039056
_cell_angle_alpha   89.98607328
_cell_angle_beta   89.99503160
_cell_angle_gamma   90.00607349
_symmetry_Int_Tables_number   1
_chemical_formula_structural   In86Cu29Se144
_chemical_formula_sum   'In86 Cu29 Se144'
_cell_volume   7242.86493523
_cell_formula_units_Z   1
loop_
 _symmetry_equiv_pos_site_id
 _symmetry_equiv_pos_as_xyz
  1  'x, y, z'
loop_
 _atom_site_type_symbol
 _atom_site_label
 _atom_site_symmetry_multiplicity
 _atom_site_fract_x
 _atom_site_fract_y
 _atom_site_fract_z
 _atom_site_occupancy
  In  In0  1  0.00711029  0.16761788  0.12863825  1
  In  In1  1  -0.01956540  0.17907527  0.64056208  1
  In  In2  1  -0.00071217  0.49964291  0.12426360  1
  In  In3  1  -0.01071299  0.50746790  0.62323765  1
  In  In4  1  -0.01360004  0.82456282  0.11713613  1
  In  In5  1  0.01543929  0.84183584  0.62304978  1
  In  In6  1  0.34840524  0.16178986  0.13887115  1
  In  In7  1  0.34383174  0.17523376  0.62585088  1
  In  In8  1  0.32730899  0.49173345  0.11960567  1
  In  In9  1  0.32957584  0.48873862  0.62639242  1
  In  In10  1  0.33147545  0.84628859  0.12348660  1
  In  In11  1  0.32622693  0.83781057  0.61893631  1
  In  In12  1  0.65352255  0.17161816  0.12876824  1
  In  In13  1  0.69072888  0.15707951  0.64706229  1
  In  In14  1  0.67674578  0.50742236  0.11600792  1
  In  In15  1  0.66570765  0.49958531  0.62785321  1
  In  In16  1  0.67353725  0.82433515  0.13107920  1
  In  In17  1  0.66752967  0.83627815  0.63099262  1
  In  In18  1  0.16276845  -0.01203771  0.37351958  1
  In  In19  1  0.15482766  -0.00453425  0.87178575  1
  In  In20  1  0.16274729  0.33203679  0.36657945  1
  In  In21  1  0.16869294  0.33063619  0.87096600  1
  In  In22  1  0.16779654  0.68464969  0.37545738  1
  In  In23  1  0.15979181  0.66708219  0.88485458  1
  In  In24  1  0.50701837  0.00954270  0.36044375  1
  In  In25  1  0.51744040  -0.00098877  0.87613321  1
  In  In26  1  0.50805304  0.34362754  0.37352846  1
  In  In27  1  0.50019141  0.33267915  0.87846750  1
  In  In28  1  0.49920302  0.64959136  0.37454032  1
  In  In29  1  0.49680986  0.65318169  0.87715914  1
  In  In30  1  0.83082239  0.01449713  0.38308245  1
  In  In31  1  0.82343411  -0.00762751  0.86816395  1
  In  In32  1  0.83432289  0.32603616  0.38187748  1
  In  In33  1  0.84042676  0.33806907  0.86648870  1
  In  In34  1  0.82207774  0.65346284  0.36867328  1
  In  In35  1  0.82652521  0.67305105  0.87819354  1
  In  In36  1  -0.02621770  0.16757491  0.37248404  1
  In  In37  1  -0.01485006  0.16072064  0.85449502  1
  In  In38  1  -0.01429048  0.48756896  0.36930951  1
  In  In39  1  0.00628655  0.49169418  0.88167664  1
  In  In40  1  0.01568227  0.83956909  0.37739391  1
  In  In41  1  -0.00330280  0.82886379  0.87804759  1
  In  In42  1  0.34197109  0.17179733  0.35719481  1
  In  In43  1  0.33360379  0.18089765  0.87678418  1
  In  In44  1  0.35107576  0.50237251  0.37374701  1
  In  In45  1  0.33749539  0.48676187  0.88596008  1
  In  In46  1  0.31615798  0.83382856  0.37365205  1
  In  In47  1  0.32934090  0.82537055  0.87976215  1
  In  In48  1  0.68004008  0.16564666  0.37385371  1
  In  In49  1  0.66264003  0.15735905  0.86897640  1
  In  In50  1  0.65757816  0.49916174  0.38136599  1
  In  In51  1  0.66605592  0.50139954  0.87594239  1
  In  In52  1  0.67400528  0.83476179  0.36629216  1
  In  In53  1  0.67919494  0.83844655  0.86741283  1
  In  In54  1  0.17573917  0.00288046  0.12344366  1
  In  In55  1  0.15555958  -0.01691543  0.62134590  1
  In  In56  1  0.16093528  0.34105173  0.13052677  1
  In  In57  1  0.16905644  0.33607110  0.63480388  1
  In  In58  1  0.15528835  0.65526831  0.11826484  1
  In  In59  1  0.16005924  0.67406578  0.62190395  1
  In  In60  1  0.49788493  0.01153723  0.13562343  1
  In  In61  1  0.51007897  0.01434405  0.62341938  1
  In  In62  1  0.49170972  0.32414908  0.12017119  1
  In  In63  1  0.50017969  0.34052418  0.62964188  1
  In  In64  1  0.51526792  0.66548216  0.12469661  1
  In  In65  1  0.51425567  0.67170151  0.62540826  1
  In  In66  1  0.83802635  -0.01003812  0.12588848  1
  In  In67  1  0.82899499  0.01457697  0.63287025  1
  In  In68  1  0.82546430  0.34725108  0.12367656  1
  In  In69  1  0.83073976  0.33770778  0.62911570  1
  In  In70  1  0.83343208  0.66568401  0.12508889  1
  In  In71  1  0.83298580  0.65089629  0.62130254  1
  In  In72  1  0.16721490  0.17493956  -0.00127186  1
  In  In73  1  0.83870001  0.83723711  0.49873502  1
  In  In74  1  0.49827046  0.83327832  0.50169720  1
  In  In75  1  0.66711156  0.32863917  0.24952977  1
  In  In76  1  0.16484904  0.50561628  0.50164899  1
  In  In77  1  0.33309650  0.66705890  0.25167646  1
  In  In78  1  -0.00290574  0.00131822  0.25452355  1
  In  In79  1  0.15914848  0.15847465  0.49819873  1
  In  In80  1  -0.00201491  0.66819475  0.75018794  1
  In  In81  1  0.33503054  0.00215206  0.74550177  1
  In  In82  1  0.82967909  0.16843275  -0.00546045  1
  In  In83  1  0.33420227  0.66245928  0.74695785  1
  In  In84  1  0.50968768  0.17413528  0.49605167  1
  In  In85  1  0.50139845  0.83361124  0.00348576  1
  Cu  Cu86  1  0.32801857  0.66195932  0.00015027  1
  Cu  Cu87  1  0.66068760  0.33806919  -0.00074401  1
  Cu  Cu88  1  0.33012420  -0.00265208  0.49227139  1
  Cu  Cu89  1  0.66963101  0.66680502  -0.00038335  1
  Cu  Cu90  1  0.83361250  0.50176637  0.24619271  1
  Cu  Cu91  1  -0.00067522  0.33535163  -0.00229452  1
  Cu  Cu92  1  0.66421893  0.66099629  0.49895507  1
  Cu  Cu93  1  0.16719359  0.17240191  0.24771370  1
  Cu  Cu94  1  0.50544505  0.49465950  0.75739987  1
  Cu  Cu95  1  -0.00499004  0.66241603  0.00174961  1
  Cu  Cu96  1  -0.00067143  0.66796290  0.49854381  1
  Cu  Cu97  1  -0.00137410  -0.01149481  -0.00480545  1
  Cu  Cu98  1  0.16893938  0.49471988  0.75758986  1
  Cu  Cu99  1  0.33463330  0.33378772  0.00215934  1
  Cu  Cu100  1  0.33217360  0.00444244  0.00645669  1
  Cu  Cu101  1  0.33363090  0.33980762  0.50143041  1
  Cu  Cu102  1  0.50261129  0.83410211  0.24707053  1
  Cu  Cu103  1  0.83729013  0.82659684  0.24858955  1
  Cu  Cu104  1  0.66720626  0.00021175  -0.00247137  1
  Cu  Cu105  1  0.50117874  0.17377689  0.75030150  1
  Cu  Cu106  1  0.16231116  0.83377934  0.24738036  1
  Cu  Cu107  1  0.83046211  0.49906756  0.74901119  1
  Cu  Cu108  1  0.67001044  0.33434446  0.50646016  1
  Cu  Cu109  1  -0.00946322  0.32946967  0.50272521  1
  Cu  Cu110  1  0.16623011  0.16721904  0.74796962  1
  Cu  Cu111  1  0.83664042  0.83297255  0.74933336  1
  Cu  Cu112  1  0.50568540  0.49623286  0.24928337  1
  Cu  Cu113  1  0.16321067  0.50242118  0.24627432  1
  Cu  Cu114  1  0.50871297  0.83531232  0.74955185  1
  Se  Se115  1  0.07500463  0.07533937  0.05348400  1
  Se  Se116  1  0.07307823  0.08855396  0.57080133  1
  Se  Se117  1  0.08271796  0.41503470  0.05429695  1
  Se  Se118  1  0.07694001  0.40863079  0.55960487  1
  Se  Se119  1  0.08041830  0.74862214  0.05248212  1
  Se  Se120  1  0.08261240  0.75262839  0.54886182  1
  Se  Se121  1  0.41754040  0.08431676  0.05916541  1
  Se  Se122  1  0.40998009  0.07944712  0.55148627  1
  Se  Se123  1  0.42036838  0.41861676  0.05266265  1
  Se  Se124  1  0.41883759  0.41811610  0.55544939  1
  Se  Se125  1  0.40890050  0.74109644  0.06193155  1
  Se  Se126  1  0.40978459  0.74071931  0.55980109  1
  Se  Se127  1  0.74619923  0.07953577  0.06036200  1
  Se  Se128  1  0.74460390  0.08669698  0.56032206  1
  Se  Se129  1  0.75186821  0.41928195  0.04564717  1
  Se  Se130  1  0.75181872  0.42140394  0.55768082  1
  Se  Se131  1  0.75093750  0.75038460  0.05469762  1
  Se  Se132  1  0.74418841  0.74435631  0.55698507  1
  Se  Se133  1  0.25714006  0.25285031  0.06619262  1
  Se  Se134  1  0.25148611  0.25604882  0.55651978  1
  Se  Se135  1  0.24522736  0.57702811  0.05266215  1
  Se  Se136  1  0.25770142  0.59160329  0.56156262  1
  Se  Se137  1  0.24550569  0.91641557  0.04978517  1
  Se  Se138  1  0.24683993  0.91809501  0.54781245  1
  Se  Se139  1  0.58252419  0.24906546  0.05139635  1
  Se  Se140  1  0.59281240  0.25176812  0.56776793  1
  Se  Se141  1  0.58294878  0.58303877  0.04890741  1
  Se  Se142  1  0.58199916  0.58046780  0.55539311  1
  Se  Se143  1  0.58961971  0.92275844  0.06360820  1
  Se  Se144  1  0.59241413  0.92494389  0.55637040  1
  Se  Se145  1  0.92140511  0.25366987  0.05863255  1
  Se  Se146  1  0.90879607  0.24906263  0.55884119  1
  Se  Se147  1  0.91236798  0.57928677  0.05567922  1
  Se  Se148  1  0.91499988  0.58065528  0.54527198  1
  Se  Se149  1  0.90923948  0.91279894  0.04853299  1
  Se  Se150  1  0.91922730  0.92574036  0.56386562  1
  Se  Se151  1  0.07473848  0.25670645  0.44077131  1
  Se  Se152  1  0.06746321  0.24742694  0.93465127  1
  Se  Se153  1  0.07616916  0.58691339  0.43471370  1
  Se  Se154  1  0.08215598  0.57892693  0.95118808  1
  Se  Se155  1  0.08104953  0.92602574  0.45102876  1
  Se  Se156  1  0.08731230  0.90869558  0.94526511  1
  Se  Se157  1  0.40908939  0.25783716  0.43926018  1
  Se  Se158  1  0.41838123  0.24894304  0.95048002  1
  Se  Se159  1  0.41355558  0.58656387  0.44909507  1
  Se  Se160  1  0.41549089  0.58014338  0.95034836  1
  Se  Se161  1  0.41637940  0.92265126  0.43377227  1
  Se  Se162  1  0.41174550  0.92598505  0.94179925  1
  Se  Se163  1  0.74751868  0.24823063  0.45061754  1
  Se  Se164  1  0.74092298  0.25958407  0.93616969  1
  Se  Se165  1  0.74965024  0.57809368  0.44702285  1
  Se  Se166  1  0.75152207  0.58238316  0.94562561  1
  Se  Se167  1  0.73970076  0.92204448  0.44394492  1
  Se  Se168  1  0.75012087  0.91510787  0.94604084  1
  Se  Se169  1  0.25863556  0.08548298  0.43280571  1
  Se  Se170  1  0.25337093  0.07819499  0.93888610  1
  Se  Se171  1  0.25106016  0.41393619  0.43901542  1
  Se  Se172  1  0.24261504  0.40822344  0.94850019  1
  Se  Se173  1  0.25330802  0.74948371  0.44911388  1
  Se  Se174  1  0.24677918  0.75036761  0.95089406  1
  Se  Se175  1  0.59154191  0.07489963  0.44054391  1
  Se  Se176  1  0.58385020  0.08729830  0.94898213  1
  Se  Se177  1  0.58142876  0.41373589  0.45307856  1
  Se  Se178  1  0.57869955  0.42242860  0.94545685  1
  Se  Se179  1  0.58931753  0.74570237  0.43838469  1
  Se  Se180  1  0.58840679  0.74790136  0.93819870  1
  Se  Se181  1  0.93380257  0.07127931  0.44825447  1
  Se  Se182  1  0.92243559  0.07644214  0.93784419  1
  Se  Se183  1  0.91145510  0.41722915  0.44928776  1
  Se  Se184  1  0.91118870  0.41507233  0.94550171  1
  Se  Se185  1  0.91931134  0.74374695  0.43440648  1
  Se  Se186  1  0.91417635  0.74852105  0.94772613  1
  Se  Se187  1  0.25198245  0.25801080  0.29774606  1
  Se  Se188  1  0.25162559  0.24886569  0.80093679  1
  Se  Se189  1  0.24235564  0.57726009  0.31218583  1
  Se  Se190  1  0.24726065  0.57897232  0.81534843  1
  Se  Se191  1  0.24684431  0.91786749  0.29832586  1
  Se  Se192  1  0.24978836  0.91043970  0.80719500  1
  Se  Se193  1  0.57636118  0.23966692  0.31024387  1
  Se  Se194  1  0.58321948  0.25291827  0.80754139  1
  Se  Se195  1  0.58751011  0.57999269  0.30295157  1
  Se  Se196  1  0.58504393  0.58664860  0.80471930  1
  Se  Se197  1  0.58864603  0.91651288  0.29942804  1
  Se  Se198  1  0.59093149  0.92074112  0.80138886  1
  Se  Se199  1  0.91832432  0.26492492  0.30345042  1
  Se  Se200  1  0.90718264  0.25089351  0.79233440  1
  Se  Se201  1  0.91746825  0.58354460  0.30132800  1
  Se  Se202  1  0.91284159  0.57686201  0.81170616  1
  Se  Se203  1  0.90871951  0.90893173  0.31400205  1
  Se  Se204  1  0.91862733  0.91161662  0.80686910  1
  Se  Se205  1  0.08849846  0.09474592  0.31255937  1
  Se  Se206  1  0.08513763  0.08050594  0.79880550  1
  Se  Se207  1  0.08060490  0.41845388  0.30129970  1
  Se  Se208  1  0.07937446  0.41252675  0.80550459  1
  Se  Se209  1  0.08018389  0.75167242  0.30151724  1
  Se  Se210  1  0.09343253  0.75382407  0.80711160  1
  Se  Se211  1  0.40970139  0.07392315  0.29485082  1
  Se  Se212  1  0.42284356  0.08805676  0.81072800  1
  Se  Se213  1  0.41979670  0.41482200  0.30120066  1
  Se  Se214  1  0.41554833  0.41577608  0.80860899  1
  Se  Se215  1  0.42376895  0.75707036  0.31187579  1
  Se  Se216  1  0.42514568  0.75714006  0.80755820  1
  Se  Se217  1  0.75803285  0.08369558  0.30413515  1
  Se  Se218  1  0.75978508  0.09136045  0.80348814  1
  Se  Se219  1  0.75286891  0.42283193  0.30980768  1
  Se  Se220  1  0.74682719  0.41943482  0.80488789  1
  Se  Se221  1  0.74925273  0.74413748  0.29969954  1
  Se  Se222  1  0.75249825  0.74649928  0.79934069  1
  Se  Se223  1  0.24768784  0.08367102  0.19719484  1
  Se  Se224  1  0.24460664  0.08950590  0.68328032  1
  Se  Se225  1  0.25114942  0.41952639  0.19751762  1
  Se  Se226  1  0.25546845  0.41472440  0.70374628  1
  Se  Se227  1  0.24350473  0.75258684  0.18727544  1
  Se  Se228  1  0.24342947  0.75850635  0.69415463  1
  Se  Se229  1  0.59618335  0.07782807  0.20049935  1
  Se  Se230  1  0.58343812  0.08355767  0.70251748  1
  Se  Se231  1  0.58448159  0.42052530  0.18447423  1
  Se  Se232  1  0.58801131  0.41493756  0.69967037  1
  Se  Se233  1  0.58586029  0.74567221  0.19991531  1
  Se  Se234  1  0.59093246  0.74779212  0.69988671  1
  Se  Se235  1  0.90921067  0.09097697  0.19252174  1
  Se  Se236  1  0.92303389  0.07476716  0.70517742  1
  Se  Se237  1  0.91560760  0.41618820  0.19411253  1
  Se  Se238  1  0.92016395  0.42237642  0.69561144  1
  Se  Se239  1  0.92076293  0.74440665  0.19564648  1
  Se  Se240  1  0.91165892  0.75438375  0.68363461  1
  Se  Se241  1  0.07977474  0.25437967  0.19824850  1
  Se  Se242  1  0.08221847  0.25492518  0.69956174  1
  Se  Se243  1  0.07801294  0.58539260  0.19613875  1
  Se  Se244  1  0.09398312  0.57519337  0.69328701  1
  Se  Se245  1  0.08190712  0.91451874  0.18631769  1
  Se  Se246  1  0.08669059  0.91293896  0.70237276  1
  Se  Se247  1  0.42158280  0.25687243  0.20181386  1
  Se  Se248  1  0.41600142  0.25646377  0.69897986  1
  Se  Se249  1  0.42272764  0.57801667  0.18992112  1
  Se  Se250  1  0.42859867  0.57324938  0.69119503  1
  Se  Se251  1  0.41624125  0.91578637  0.19606360  1
  Se  Se252  1  0.42840357  0.91057263  0.68586148  1
  Se  Se253  1  0.76099736  0.24304635  0.18956370  1
  Se  Se254  1  0.75417205  0.26172229  0.70583048  1
  Se  Se255  1  0.74719511  0.58416757  0.19441601  1
  Se  Se256  1  0.74881747  0.58558930  0.69705811  1
  Se  Se257  1  0.75506631  0.91278987  0.19683921  1
  Se  Se258  1  0.75219716  0.91784944  0.69723537  1
