# generated using pymatgen
data_In86Cu29Se144
_symmetry_space_group_name_H-M   'P 1'
_cell_length_a   17.57183151
_cell_length_b   17.56867562
_cell_length_c   23.42996059
_cell_angle_alpha   89.97066983
_cell_angle_beta   90.03107219
_cell_angle_gamma   89.99995624
_symmetry_Int_Tables_number   1
_chemical_formula_structural   In86Cu29Se144
_chemical_formula_sum   'In86 Cu29 Se144'
_cell_volume   7233.15033968
_cell_formula_units_Z   1
loop_
 _symmetry_equiv_pos_site_id
 _symmetry_equiv_pos_as_xyz
  1  'x, y, z'
loop_
 _atom_site_type_symbol
 _atom_site_label
 _atom_site_symmetry_multiplicity
 _atom_site_fract_x
 _atom_site_fract_y
 _atom_site_fract_z
 _atom_site_occupancy
  In  In0  1  0.00056092  0.17170835  0.13056229  1
  In  In1  1  -0.00635743  0.16718582  0.61393804  1
  In  In2  1  0.00148280  0.49125292  0.13473090  1
  In  In3  1  0.00589906  0.51247195  0.62295392  1
  In  In4  1  0.00415688  0.83420283  0.13374844  1
  In  In5  1  -0.00021340  0.81004919  0.61928503  1
  In  In6  1  0.31955245  0.18466075  0.14068973  1
  In  In7  1  0.34041184  0.17393163  0.61625250  1
  In  In8  1  0.31873930  0.48404592  0.11121055  1
  In  In9  1  0.34649614  0.48634120  0.64728359  1
  In  In10  1  0.34537083  0.83548514  0.13068775  1
  In  In11  1  0.32502595  0.82616718  0.61579047  1
  In  In12  1  0.67894354  0.16336141  0.12575689  1
  In  In13  1  0.67318356  0.17766358  0.61058262  1
  In  In14  1  0.67490378  0.50412652  0.12302795  1
  In  In15  1  0.64936196  0.48409749  0.60612836  1
  In  In16  1  0.65500943  0.81873243  0.12941448  1
  In  In17  1  0.65697245  0.83265507  0.61009324  1
  In  In18  1  0.16719489  0.00130609  0.37410556  1
  In  In19  1  0.17671143  0.01146565  0.87992155  1
  In  In20  1  0.15465163  0.32588984  0.36287136  1
  In  In21  1  0.17233407  0.33074396  0.87964535  1
  In  In22  1  0.16593882  0.66694518  0.37519996  1
  In  In23  1  0.15467061  0.64759653  0.85983764  1
  In  In24  1  0.49230159  0.01116226  0.38897142  1
  In  In25  1  0.49764640  -0.00826774  0.87394492  1
  In  In26  1  0.49520873  0.33776310  0.38071449  1
  In  In27  1  0.51038266  0.35207644  0.85644774  1
  In  In28  1  0.51264318  0.65514139  0.39432666  1
  In  In29  1  0.47235455  0.65439694  0.86096485  1
  In  In30  1  0.84900904  0.00859088  0.36917397  1
  In  In31  1  0.84566544  0.00880382  0.87662552  1
  In  In32  1  0.83680361  0.33446879  0.37389521  1
  In  In33  1  0.83210635  0.33843770  0.88426288  1
  In  In34  1  0.82499784  0.65278250  0.35861738  1
  In  In35  1  0.82899339  0.64565171  0.87453962  1
  In  In36  1  0.00038844  0.17286577  0.37141527  1
  In  In37  1  -0.00383871  0.17924364  0.88634950  1
  In  In38  1  -0.01563483  0.47878230  0.34739170  1
  In  In39  1  -0.00775228  0.50081375  0.88048837  1
  In  In40  1  0.00375218  0.84237489  0.36833964  1
  In  In41  1  0.01201499  0.82550219  0.87588130  1
  In  In42  1  0.33368773  0.16520715  0.37702974  1
  In  In43  1  0.31863581  0.17502079  0.87992030  1
  In  In44  1  0.33581807  0.50120676  0.37143686  1
  In  In45  1  0.33304385  0.49942725  0.87727062  1
  In  In46  1  0.32255927  0.83491666  0.38388791  1
  In  In47  1  0.34141441  0.83205961  0.87664868  1
  In  In48  1  0.67502043  0.15859594  0.38877441  1
  In  In49  1  0.65925152  0.18747567  0.87499168  1
  In  In50  1  0.66190318  0.50955151  0.38303979  1
  In  In51  1  0.67702647  0.49072993  0.88159124  1
  In  In52  1  0.66776111  0.81830408  0.38538440  1
  In  In53  1  0.65615351  0.82792511  0.87332068  1
  In  In54  1  0.15019767  0.02018200  0.14065041  1
  In  In55  1  0.16987975  0.00513412  0.61531356  1
  In  In56  1  0.17343213  0.33662831  0.13087171  1
  In  In57  1  0.18399726  0.33808860  0.62451559  1
  In  In58  1  0.15842775  0.64375429  0.12843230  1
  In  In59  1  0.16338484  0.66305157  0.62379580  1
  In  In60  1  0.49958531  -0.01287709  0.13540821  1
  In  In61  1  0.50356421  -0.00186905  0.60492417  1
  In  In62  1  0.48387120  0.33506833  0.12872601  1
  In  In63  1  0.49952244  0.33907163  0.62525621  1
  In  In64  1  0.50917968  0.65958224  0.13136067  1
  In  In65  1  0.48365507  0.64085472  0.60335733  1
  In  In66  1  0.83903874  0.01624498  0.13118236  1
  In  In67  1  0.82086880  0.00451062  0.61186465  1
  In  In68  1  0.84411657  0.34235874  0.12637285  1
  In  In69  1  0.82417454  0.32672598  0.61719018  1
  In  In70  1  0.85843380  0.63034557  0.15650085  1
  In  In71  1  0.84259495  0.65702681  0.62232755  1
  In  In72  1  0.50206311  0.82678216  -0.00276077  1
  In  In73  1  0.66879193  0.33537619  0.25307615  1
  In  In74  1  0.66818240  -0.00234151  0.26306999  1
  In  In75  1  0.00165314  -0.00130648  0.74359052  1
  In  In76  1  0.84244814  0.83778222  0.49410699  1
  In  In77  1  0.33215624  0.66565917  0.25278023  1
  In  In78  1  0.67082333  0.00556437  0.72770741  1
  In  In79  1  0.33360895  0.00107175  0.75621722  1
  In  In80  1  0.16670725  0.50073715  0.49776047  1
  In  In81  1  0.82883963  0.82591334  0.01000372  1
  In  In82  1  0.16909572  0.83705166  0.00193455  1
  In  In83  1  0.00297178  0.33731594  0.75392480  1
  In  In84  1  0.49759837  0.16847388  0.00343848  1
  In  In85  1  0.66503225  0.65700317  0.73975607  1
  Cu  Cu86  1  0.33296236  0.66261766  0.49913700  1
  Cu  Cu87  1  0.16687676  0.81985808  0.74398823  1
  Cu  Cu88  1  0.66890928  0.33349359  -0.00048959  1
  Cu  Cu89  1  0.00269096  0.66283831  0.49221152  1
  Cu  Cu90  1  0.17363923  0.83681112  0.25336672  1
  Cu  Cu91  1  0.33358841  0.33488762  0.00025160  1
  Cu  Cu92  1  0.33338682  0.33149096  0.50056904  1
  Cu  Cu93  1  0.82332677  0.83790854  0.25632651  1
  Cu  Cu94  1  0.83535520  0.49165906  0.75224956  1
  Cu  Cu95  1  0.32590630  0.00004793  0.49674012  1
  Cu  Cu96  1  0.49450960  0.18007949  0.74323125  1
  Cu  Cu97  1  0.50057860  0.16376953  0.25888810  1
  Cu  Cu98  1  0.66509172  0.34039209  0.49722945  1
  Cu  Cu99  1  -0.00591892  0.65607733  0.00486797  1
  Cu  Cu100  1  -0.00106581  0.01761448  0.00638238  1
  Cu  Cu101  1  0.67838971  0.00459654  0.00175650  1
  Cu  Cu102  1  0.00978036  0.33438198  0.00874109  1
  Cu  Cu103  1  0.16439984  0.17108295  0.74996234  1
  Cu  Cu104  1  0.66880946  0.65273617  0.00560692  1
  Cu  Cu105  1  0.33156372  0.65656440  -0.00459868  1
  Cu  Cu106  1  0.16917211  0.16492534  0.25467964  1
  Cu  Cu107  1  0.81992581  0.16996591  0.74515076  1
  Cu  Cu108  1  0.32244819  0.01460860  0.01586483  1
  Cu  Cu109  1  -0.00163038  0.33434903  0.48950990  1
  Cu  Cu110  1  0.84159462  0.81899278  0.74480887  1
  Cu  Cu111  1  0.49850423  0.50314444  0.25661386  1
  Cu  Cu112  1  0.49217137  0.83160216  0.26245266  1
  Cu  Cu113  1  0.49989015  0.83607932  0.73625638  1
  Cu  Cu114  1  0.00740879  0.00450024  0.49159787  1
  Se  Se115  1  0.08857725  0.09424457  0.05782235  1
  Se  Se116  1  0.08521458  0.08899172  0.55015166  1
  Se  Se117  1  0.08885240  0.42029389  0.06203311  1
  Se  Se118  1  0.07645097  0.40679566  0.55832224  1
  Se  Se119  1  0.07620616  0.74310450  0.05837329  1
  Se  Se120  1  0.08785413  0.74280246  0.54683485  1
  Se  Se121  1  0.41447217  0.08330520  0.07326851  1
  Se  Se122  1  0.41214112  0.08438174  0.54693808  1
  Se  Se123  1  0.42295076  0.41721816  0.04886644  1
  Se  Se124  1  0.40695312  0.41898100  0.55920648  1
  Se  Se125  1  0.40979315  0.73795365  0.05798104  1
  Se  Se126  1  0.41666483  0.75119886  0.54883361  1
  Se  Se127  1  0.76021699  0.08797403  0.05323802  1
  Se  Se128  1  0.75099150  0.09107840  0.54278287  1
  Se  Se129  1  0.75088836  0.41335583  0.05702339  1
  Se  Se130  1  0.75717818  0.42042521  0.54704818  1
  Se  Se131  1  0.74578833  0.73198555  0.06874221  1
  Se  Se132  1  0.75626789  0.74627469  0.55600754  1
  Se  Se133  1  0.25284604  0.25279363  0.05710935  1
  Se  Se134  1  0.24526034  0.24824491  0.55025356  1
  Se  Se135  1  0.24227060  0.58167488  0.05006860  1
  Se  Se136  1  0.26044715  0.57783326  0.56266131  1
  Se  Se137  1  0.24978128  0.92392379  0.07165507  1
  Se  Se138  1  0.24381889  0.91315284  0.54930632  1
  Se  Se139  1  0.58996127  0.25690390  0.06507148  1
  Se  Se140  1  0.57864129  0.25957671  0.55124667  1
  Se  Se141  1  0.57697614  0.57530795  0.05648903  1
  Se  Se142  1  0.59919976  0.59642634  0.54587380  1
  Se  Se143  1  0.59270899  0.92276410  0.05693564  1
  Se  Se144  1  0.60378516  0.93263793  0.54176939  1
  Se  Se145  1  0.92040456  0.25324305  0.05829615  1
  Se  Se146  1  0.91413965  0.25314546  0.54720595  1
  Se  Se147  1  0.91555812  0.57499905  0.06356624  1
  Se  Se148  1  0.92105880  0.58016215  0.54751093  1
  Se  Se149  1  0.92441286  0.92354598  0.05964024  1
  Se  Se150  1  0.93277620  0.92556294  0.56010379  1
  Se  Se151  1  0.08691593  0.25065209  0.44341952  1
  Se  Se152  1  0.08936710  0.25120828  0.95101130  1
  Se  Se153  1  0.07161000  0.57406975  0.43084413  1
  Se  Se154  1  0.08189473  0.58505014  0.94436161  1
  Se  Se155  1  0.08642785  0.91376404  0.44355044  1
  Se  Se156  1  0.07444869  0.93213517  0.94452962  1
  Se  Se157  1  0.41697458  0.24803508  0.44707450  1
  Se  Se158  1  0.41710841  0.25830351  0.93811374  1
  Se  Se159  1  0.41291450  0.57289049  0.44911613  1
  Se  Se160  1  0.42357161  0.57772343  0.94752499  1
  Se  Se161  1  0.41307302  0.91404274  0.44957198  1
  Se  Se162  1  0.40288772  0.93066530  0.95316735  1
  Se  Se163  1  0.75226691  0.25882661  0.44575007  1
  Se  Se164  1  0.75115551  0.24650110  0.94875722  1
  Se  Se165  1  0.75377152  0.59342495  0.44341306  1
  Se  Se166  1  0.75753703  0.57255326  0.95346925  1
  Se  Se167  1  0.75292699  0.92694773  0.43390200  1
  Se  Se168  1  0.74745341  0.91795211  0.93817917  1
  Se  Se169  1  0.24504928  0.08650382  0.44495954  1
  Se  Se170  1  0.24464544  0.09407191  0.95557516  1
  Se  Se171  1  0.25188359  0.40636448  0.43662239  1
  Se  Se172  1  0.24861123  0.41965093  0.94812387  1
  Se  Se173  1  0.24449180  0.74346871  0.44954318  1
  Se  Se174  1  0.25339534  0.74574831  0.94010850  1
  Se  Se175  1  0.58233092  0.08753998  0.45407964  1
  Se  Se176  1  0.58907952  0.07615201  0.94086389  1
  Se  Se177  1  0.57762893  0.42256354  0.44753498  1
  Se  Se178  1  0.58299516  0.40936926  0.94335764  1
  Se  Se179  1  0.57600978  0.75792642  0.45730145  1
  Se  Se180  1  0.58797110  0.72907243  0.94068148  1
  Se  Se181  1  0.92002402  0.08920974  0.44447426  1
  Se  Se182  1  0.91087738  0.09387326  0.95153590  1
  Se  Se183  1  0.92048293  0.42471868  0.43864407  1
  Se  Se184  1  0.92240977  0.41237408  0.95189450  1
  Se  Se185  1  0.92216935  0.74385345  0.43160288  1
  Se  Se186  1  0.91950029  0.74184691  0.94222292  1
  Se  Se187  1  0.25578503  0.24853540  0.30480808  1
  Se  Se188  1  0.24903390  0.25328830  0.80212603  1
  Se  Se189  1  0.23723062  0.57197797  0.30389596  1
  Se  Se190  1  0.28170564  0.61258424  0.81424203  1
  Se  Se191  1  0.25600167  0.91846554  0.30708883  1
  Se  Se192  1  0.23618046  0.90598247  0.80933445  1
  Se  Se193  1  0.58462683  0.24215935  0.31628388  1
  Se  Se194  1  0.58736960  0.25566619  0.79402210  1
  Se  Se195  1  0.57943734  0.58731346  0.30947663  1
  Se  Se196  1  0.58514024  0.57628606  0.81272523  1
  Se  Se197  1  0.57489951  0.91098083  0.32096253  1
  Se  Se198  1  0.58246885  0.91536921  0.79616513  1
  Se  Se199  1  0.92957175  0.26753307  0.30455176  1
  Se  Se200  1  0.90765622  0.24181661  0.80663480  1
  Se  Se201  1  0.93617751  0.60187152  0.29684307  1
  Se  Se202  1  0.91766726  0.57852343  0.80228172  1
  Se  Se203  1  0.91688468  0.91923885  0.29792008  1
  Se  Se204  1  0.91282512  0.90667103  0.80703909  1
  Se  Se205  1  0.08217622  0.08260723  0.30582363  1
  Se  Se206  1  0.08345450  0.09124146  0.81035307  1
  Se  Se207  1  0.09332870  0.41802814  0.29075327  1
  Se  Se208  1  0.09167491  0.42569928  0.81333593  1
  Se  Se209  1  0.08959742  0.75398402  0.30540662  1
  Se  Se210  1  0.07724099  0.74484766  0.79847634  1
  Se  Se211  1  0.41632458  0.07833134  0.30821279  1
  Se  Se212  1  0.42604102  0.09709900  0.81127405  1
  Se  Se213  1  0.41740555  0.41425642  0.30493544  1
  Se  Se214  1  0.39461577  0.40547457  0.80463810  1
  Se  Se215  1  0.41891397  0.74490119  0.32144119  1
  Se  Se216  1  0.41674399  0.76258035  0.79718794  1
  Se  Se217  1  0.76049846  0.09980937  0.30518055  1
  Se  Se218  1  0.74781660  0.08484263  0.80861636  1
  Se  Se219  1  0.75186765  0.43073497  0.31132491  1
  Se  Se220  1  0.75334362  0.40997783  0.80694826  1
  Se  Se221  1  0.74012720  0.75104792  0.30352576  1
  Se  Se222  1  0.75400598  0.74965170  0.80696690  1
  Se  Se223  1  0.25651078  0.07989844  0.20354711  1
  Se  Se224  1  0.24611880  0.08904433  0.69201419  1
  Se  Se225  1  0.26383281  0.41497125  0.19705156  1
  Se  Se226  1  0.22304162  0.44074243  0.69601953  1
  Se  Se227  1  0.24184615  0.75302742  0.18713546  1
  Se  Se228  1  0.25499565  0.74302171  0.69072623  1
  Se  Se229  1  0.58155860  0.08882567  0.19549644  1
  Se  Se230  1  0.56906779  0.09580770  0.68034046  1
  Se  Se231  1  0.57510206  0.42240010  0.19269946  1
  Se  Se232  1  0.58385129  0.42287450  0.69172346  1
  Se  Se233  1  0.57235230  0.75104253  0.20497800  1
  Se  Se234  1  0.57577305  0.74925426  0.68045647  1
  Se  Se235  1  0.92953734  0.07999522  0.20105780  1
  Se  Se236  1  0.90242654  0.08829318  0.68887846  1
  Se  Se237  1  0.90933425  0.42096495  0.20468911  1
  Se  Se238  1  0.91420641  0.41665404  0.68614556  1
  Se  Se239  1  0.90429130  0.76162488  0.19438423  1
  Se  Se240  1  0.92492412  0.73371059  0.69587422  1
  Se  Se241  1  0.09099980  0.24959977  0.19750210  1
  Se  Se242  1  0.08336770  0.24517939  0.68716124  1
  Se  Se243  1  0.05948310  0.59973081  0.20133095  1
  Se  Se244  1  0.08974367  0.57906093  0.69678017  1
  Se  Se245  1  0.08373924  0.91776943  0.20263270  1
  Se  Se246  1  0.09119820  0.90716109  0.68474069  1
  Se  Se247  1  0.42050383  0.25025507  0.20569620  1
  Se  Se248  1  0.40599558  0.25848635  0.69200850  1
  Se  Se249  1  0.41497813  0.57280087  0.19003369  1
  Se  Se250  1  0.43463620  0.58382686  0.69647668  1
  Se  Se251  1  0.41306289  0.91675199  0.20781747  1
  Se  Se252  1  0.41708060  0.92240118  0.68286372  1
  Se  Se253  1  0.76070873  0.24634978  0.19454132  1
  Se  Se254  1  0.74038867  0.25468955  0.69177109  1
  Se  Se255  1  0.72976200  0.59317438  0.20002534  1
  Se  Se256  1  0.75622080  0.56401187  0.68489299  1
  Se  Se257  1  0.74708207  0.91404247  0.18773989  1
  Se  Se258  1  0.76258663  0.89938698  0.68347133  1
