# generated using pymatgen
data_In86Cu29Se144
_symmetry_space_group_name_H-M   'P 1'
_cell_length_a   17.56871426
_cell_length_b   17.56827979
_cell_length_c   23.42709188
_cell_angle_alpha   89.99993972
_cell_angle_beta   89.99819739
_cell_angle_gamma   89.98620006
_symmetry_Int_Tables_number   1
_chemical_formula_structural   In86Cu29Se144
_chemical_formula_sum   'In86 Cu29 Se144'
_cell_volume   7230.82060465
_cell_formula_units_Z   1
loop_
 _symmetry_equiv_pos_site_id
 _symmetry_equiv_pos_as_xyz
  1  'x, y, z'
loop_
 _atom_site_type_symbol
 _atom_site_label
 _atom_site_symmetry_multiplicity
 _atom_site_fract_x
 _atom_site_fract_y
 _atom_site_fract_z
 _atom_site_occupancy
  In  In0  1  -0.00214798  0.15813277  0.13710107  1
  In  In1  1  0.00752263  0.18209361  0.60144593  1
  In  In2  1  -0.01218347  0.48528679  0.13369002  1
  In  In3  1  -0.00659916  0.48579682  0.60322675  1
  In  In4  1  0.01518877  0.84928351  0.11886349  1
  In  In5  1  0.00300011  0.82434910  0.62236896  1
  In  In6  1  0.31362326  0.16491115  0.12418762  1
  In  In7  1  0.33224033  0.17144649  0.63170574  1
  In  In8  1  0.34282763  0.49428762  0.11879588  1
  In  In9  1  0.32689619  0.48874334  0.61565967  1
  In  In10  1  0.34934122  0.84171164  0.11344834  1
  In  In11  1  0.33394262  0.83497952  0.62586579  1
  In  In12  1  0.70007259  0.16571157  0.12876234  1
  In  In13  1  0.68110107  0.17287169  0.62032529  1
  In  In14  1  0.67411985  0.50129037  0.13572179  1
  In  In15  1  0.66290602  0.50232933  0.62505844  1
  In  In16  1  0.65891984  0.82892116  0.11433626  1
  In  In17  1  0.65270022  0.83676341  0.62465174  1
  In  In18  1  0.16044914  0.00339867  0.37820977  1
  In  In19  1  0.18253969  -0.00969983  0.88195871  1
  In  In20  1  0.15654077  0.32923126  0.38244938  1
  In  In21  1  0.16071449  0.31621304  0.87423680  1
  In  In22  1  0.16953500  0.66413387  0.38249161  1
  In  In23  1  0.17953206  0.68278225  0.87382675  1
  In  In24  1  0.48777767  0.00063116  0.37207878  1
  In  In25  1  0.48515395  0.00124378  0.87624221  1
  In  In26  1  0.50861647  0.34387881  0.37461798  1
  In  In27  1  0.50872844  0.34020119  0.87003979  1
  In  In28  1  0.50858729  0.66011920  0.38311323  1
  In  In29  1  0.49924184  0.65228869  0.88212006  1
  In  In30  1  0.85833886  0.01378690  0.36120139  1
  In  In31  1  0.82832384  0.00116744  0.89244535  1
  In  In32  1  0.83801828  0.33598414  0.38006024  1
  In  In33  1  0.82182778  0.33735803  0.87816472  1
  In  In34  1  0.81624367  0.66584519  0.37044508  1
  In  In35  1  0.82879979  0.68174423  0.87858107  1
  In  In36  1  0.00073884  0.17297919  0.37946573  1
  In  In37  1  0.00247532  0.16195133  0.88520993  1
  In  In38  1  0.00506293  0.48447586  0.38736786  1
  In  In39  1  0.00063383  0.49152845  0.87508669  1
  In  In40  1  0.00591326  0.84740635  0.37036894  1
  In  In41  1  -0.00170941  0.84072066  0.88318855  1
  In  In42  1  0.32640826  0.14712963  0.36630933  1
  In  In43  1  0.32783333  0.15507380  0.86749409  1
  In  In44  1  0.33296555  0.50096854  0.38712938  1
  In  In45  1  0.34837588  0.50573052  0.87187214  1
  In  In46  1  0.32678436  0.84082344  0.38187738  1
  In  In47  1  0.31987321  0.84322862  0.88521730  1
  In  In48  1  0.67442628  0.19534595  0.36367794  1
  In  In49  1  0.66948962  0.17666071  0.87737626  1
  In  In50  1  0.67065015  0.49831513  0.37871490  1
  In  In51  1  0.65374807  0.49254675  0.86915801  1
  In  In52  1  0.66994795  0.82194740  0.37268870  1
  In  In53  1  0.67387045  0.82547578  0.88418003  1
  In  In54  1  0.16928190  0.00759155  0.13232992  1
  In  In55  1  0.17263167  0.00401406  0.62276216  1
  In  In56  1  0.16219059  0.31457542  0.13071235  1
  In  In57  1  0.17320212  0.33663099  0.61672663  1
  In  In58  1  0.15843581  0.67659031  0.12490209  1
  In  In59  1  0.16848552  0.66486833  0.61665381  1
  In  In60  1  0.50630412  -0.01782873  0.12479699  1
  In  In61  1  0.49918196  -0.01483128  0.62262016  1
  In  In62  1  0.50553824  0.34853634  0.12147289  1
  In  In63  1  0.49201918  0.34090221  0.62881134  1
  In  In64  1  0.51555847  0.67815834  0.11148004  1
  In  In65  1  0.50490738  0.67473580  0.62351539  1
  In  In66  1  0.84211491  0.01431670  0.11059209  1
  In  In67  1  0.82840266  0.01513813  0.62074212  1
  In  In68  1  0.86588100  0.30494315  0.16944156  1
  In  In69  1  0.82524213  0.32824867  0.61869659  1
  In  In70  1  0.82035449  0.65955829  0.12860888  1
  In  In71  1  0.83452181  0.65571876  0.62603660  1
  In  In72  1  0.17175785  0.50536393  -0.00383409  1
  In  In73  1  0.50082569  0.16625019  0.48937389  1
  In  In74  1  0.66046760  0.00670563  0.75096422  1
  In  In75  1  0.00021157  0.00325765  0.74337456  1
  In  In76  1  0.33041464  0.32694732  0.25633313  1
  In  In77  1  0.33990647  0.67197014  0.24402564  1
  In  In78  1  0.83420092  0.83551978  0.48977726  1
  In  In79  1  0.66897483  -0.00062485  0.24265365  1
  In  In80  1  0.33698816  0.66876328  0.74995306  1
  In  In81  1  0.00084686  0.66264688  0.75410719  1
  In  In82  1  -0.00252412  0.33055521  0.73553932  1
  In  In83  1  -0.00478596  0.66273536  0.25173368  1
  In  In84  1  0.50317004  0.16556573  -0.00331205  1
  In  In85  1  0.82985569  0.49721696  0.01213923  1
  Cu  Cu86  1  0.51122614  0.50839060  0.25150839  1
  Cu  Cu87  1  0.83405997  0.17659478  0.74838775  1
  Cu  Cu88  1  0.66491694  0.66732455  0.50075203  1
  Cu  Cu89  1  0.83170663  0.82905455  0.24296088  1
  Cu  Cu90  1  0.66508377  0.65897070  0.00119812  1
  Cu  Cu91  1  0.81802940  0.50308712  0.74948837  1
  Cu  Cu92  1  0.50099714  0.49776004  0.74844980  1
  Cu  Cu93  1  0.33684018  0.66870357  0.50388159  1
  Cu  Cu94  1  0.50140917  0.16964820  0.75239089  1
  Cu  Cu95  1  0.49751888  0.83122982  0.75085580  1
  Cu  Cu96  1  -0.00135141  0.32406122  0.01378432  1
  Cu  Cu97  1  0.00174911  0.67583317  -0.00014824  1
  Cu  Cu98  1  0.00247505  0.66519095  0.49694899  1
  Cu  Cu99  1  0.33180337  0.32482765  0.50003243  1
  Cu  Cu100  1  0.33229623  -0.00396896  0.49893111  1
  Cu  Cu101  1  0.16738804  0.49853865  0.73687746  1
  Cu  Cu102  1  0.50072188  0.82628014  0.24342820  1
  Cu  Cu103  1  0.33361244  0.33049007  -0.00011030  1
  Cu  Cu104  1  0.17057255  0.84713415  0.25180382  1
  Cu  Cu105  1  0.00317874  0.00749054  0.00599866  1
  Cu  Cu106  1  0.49247751  0.16564595  0.24519616  1
  Cu  Cu107  1  0.82489853  0.83618909  0.75766645  1
  Cu  Cu108  1  0.67437561  0.33078595  0.00238625  1
  Cu  Cu109  1  0.66954207  0.00449613  0.49371777  1
  Cu  Cu110  1  0.66631920  0.34040319  0.49756383  1
  Cu  Cu111  1  0.17614714  0.15847764  0.75044910  1
  Cu  Cu112  1  0.32833259  0.00666028  0.00200319  1
  Cu  Cu113  1  0.00223336  -0.00001315  0.49393664  1
  Cu  Cu114  1  0.16874669  0.49380788  0.25606652  1
  Se  Se115  1  0.08466829  0.08930701  0.06227174  1
  Se  Se116  1  0.08698235  0.07842989  0.55072238  1
  Se  Se117  1  0.08232223  0.41579309  0.06084887  1
  Se  Se118  1  0.08256824  0.40213776  0.54540020  1
  Se  Se119  1  0.08948882  0.75828404  0.04922823  1
  Se  Se120  1  0.08420182  0.75008785  0.54989889  1
  Se  Se121  1  0.41392437  0.08174763  0.06275995  1
  Se  Se122  1  0.41571565  0.07933120  0.55659027  1
  Se  Se123  1  0.42079614  0.41615865  0.04520246  1
  Se  Se124  1  0.41750110  0.41090417  0.54871070  1
  Se  Se125  1  0.41052248  0.73893492  0.05088930  1
  Se  Se126  1  0.41820961  0.75491436  0.55652871  1
  Se  Se127  1  0.73075193  0.06922314  0.05091996  1
  Se  Se128  1  0.75194388  0.08993261  0.54504751  1
  Se  Se129  1  0.75162405  0.40126522  0.07091006  1
  Se  Se130  1  0.74737620  0.42255621  0.55527043  1
  Se  Se131  1  0.75052132  0.74157173  0.05344111  1
  Se  Se132  1  0.74808415  0.75106717  0.55912880  1
  Se  Se133  1  0.24520951  0.25224446  0.05096702  1
  Se  Se134  1  0.25226787  0.24051867  0.55451739  1
  Se  Se135  1  0.25489211  0.59189051  0.06247291  1
  Se  Se136  1  0.24992705  0.58018676  0.54999691  1
  Se  Se137  1  0.24853614  0.92386931  0.05983758  1
  Se  Se138  1  0.24994890  0.91394732  0.55512831  1
  Se  Se139  1  0.59134794  0.25049438  0.06183797  1
  Se  Se140  1  0.58458834  0.25520743  0.55577806  1
  Se  Se141  1  0.59121079  0.57120202  0.05847365  1
  Se  Se142  1  0.58051867  0.58559036  0.55517805  1
  Se  Se143  1  0.57102477  0.90586348  0.04625046  1
  Se  Se144  1  0.58826541  0.92127264  0.54757379  1
  Se  Se145  1  0.91242964  0.25052870  0.07202095  1
  Se  Se146  1  0.90907777  0.25718420  0.54561572  1
  Se  Se147  1  0.93006136  0.59070782  0.06209287  1
  Se  Se148  1  0.91337484  0.58712967  0.54880608  1
  Se  Se149  1  0.91871624  0.91581551  0.05087320  1
  Se  Se150  1  0.92031071  0.92348622  0.55834168  1
  Se  Se151  1  0.08690178  0.24152492  0.45405593  1
  Se  Se152  1  0.08215962  0.24908715  0.95305585  1
  Se  Se153  1  0.08801099  0.57876398  0.44834582  1
  Se  Se154  1  0.07545920  0.59401839  0.93606928  1
  Se  Se155  1  0.08712978  0.91046287  0.44917592  1
  Se  Se156  1  0.08327073  0.92443634  0.94818374  1
  Se  Se157  1  0.40637678  0.25315350  0.42946222  1
  Se  Se158  1  0.41223729  0.25316896  0.93523505  1
  Se  Se159  1  0.41958844  0.58381107  0.45122966  1
  Se  Se160  1  0.40979230  0.58081684  0.95218174  1
  Se  Se161  1  0.42167378  0.91608449  0.44797730  1
  Se  Se162  1  0.41251239  0.92098362  0.95102248  1
  Se  Se163  1  0.74816264  0.25179341  0.44883461  1
  Se  Se164  1  0.75776933  0.24577386  0.95057342  1
  Se  Se165  1  0.75051592  0.58551563  0.44881935  1
  Se  Se166  1  0.74734526  0.58009413  0.93983309  1
  Se  Se167  1  0.75072540  0.92928853  0.42843374  1
  Se  Se168  1  0.75074454  0.90934610  0.95328519  1
  Se  Se169  1  0.25018722  0.08211292  0.44713777  1
  Se  Se170  1  0.24740528  0.09180137  0.94778252  1
  Se  Se171  1  0.24899559  0.41077345  0.44677881  1
  Se  Se172  1  0.25378706  0.40884923  0.93502491  1
  Se  Se173  1  0.25178141  0.74942082  0.44862544  1
  Se  Se174  1  0.25207853  0.74822799  0.95319925  1
  Se  Se175  1  0.59462079  0.08293187  0.42723700  1
  Se  Se176  1  0.59142544  0.07413771  0.93684412  1
  Se  Se177  1  0.57850957  0.42475473  0.45014545  1
  Se  Se178  1  0.58833361  0.41123396  0.94795723  1
  Se  Se179  1  0.58510702  0.75533599  0.44836581  1
  Se  Se180  1  0.58319211  0.74143503  0.94584623  1
  Se  Se181  1  0.91436681  0.08456321  0.44772215  1
  Se  Se182  1  0.91403565  0.08893585  0.95458949  1
  Se  Se183  1  0.90927463  0.41928090  0.45504957  1
  Se  Se184  1  0.92475762  0.40686007  0.94934289  1
  Se  Se185  1  0.92527713  0.74341897  0.43188104  1
  Se  Se186  1  0.91356425  0.75592224  0.94889139  1
  Se  Se187  1  0.23356852  0.23840091  0.30779168  1
  Se  Se188  1  0.25133821  0.25068952  0.80262778  1
  Se  Se189  1  0.25141088  0.57986194  0.30723519  1
  Se  Se190  1  0.23973850  0.57559224  0.80563979  1
  Se  Se191  1  0.25264043  0.92483156  0.30995846  1
  Se  Se192  1  0.25483710  0.91767640  0.80409244  1
  Se  Se193  1  0.56841849  0.25277614  0.29968638  1
  Se  Se194  1  0.58849761  0.24990374  0.80356239  1
  Se  Se195  1  0.59140470  0.58843731  0.30903635  1
  Se  Se196  1  0.57927650  0.58532838  0.80268383  1
  Se  Se197  1  0.57871641  0.91010759  0.30564742  1
  Se  Se198  1  0.57872836  0.91148094  0.81218204  1
  Se  Se199  1  0.91575013  0.25153010  0.30938774  1
  Se  Se200  1  0.91762817  0.24928017  0.81160261  1
  Se  Se201  1  0.91632882  0.57621177  0.31927201  1
  Se  Se202  1  0.90384544  0.57337102  0.81249924  1
  Se  Se203  1  0.91706856  0.91005408  0.29542127  1
  Se  Se204  1  0.90756156  0.92065762  0.81058876  1
  Se  Se205  1  0.05721762  0.06503923  0.31460750  1
  Se  Se206  1  0.08890604  0.08605769  0.81058219  1
  Se  Se207  1  0.08415452  0.41434920  0.30884276  1
  Se  Se208  1  0.08795840  0.41907890  0.80053716  1
  Se  Se209  1  0.09547996  0.75289214  0.30592683  1
  Se  Se210  1  0.08544959  0.76242438  0.80778085  1
  Se  Se211  1  0.41397744  0.07584127  0.29437701  1
  Se  Se212  1  0.41773279  0.08057899  0.79837067  1
  Se  Se213  1  0.41874944  0.43186972  0.30618665  1
  Se  Se214  1  0.41669942  0.41486138  0.80159345  1
  Se  Se215  1  0.42390495  0.75471963  0.31323285  1
  Se  Se216  1  0.42028867  0.75513618  0.81632756  1
  Se  Se217  1  0.75376908  0.09265761  0.30351349  1
  Se  Se218  1  0.76205647  0.08825537  0.80851771  1
  Se  Se219  1  0.73013232  0.39344052  0.31553252  1
  Se  Se220  1  0.74433088  0.41231158  0.80336791  1
  Se  Se221  1  0.74598925  0.74878930  0.29507860  1
  Se  Se222  1  0.74207319  0.74752599  0.80362070  1
  Se  Se223  1  0.24790148  0.09057431  0.20348387  1
  Se  Se224  1  0.25774285  0.07528219  0.69647499  1
  Se  Se225  1  0.24773183  0.42036614  0.18989443  1
  Se  Se226  1  0.25323320  0.41045733  0.69261209  1
  Se  Se227  1  0.24579973  0.76418436  0.19036950  1
  Se  Se228  1  0.23898789  0.75206095  0.69277297  1
  Se  Se229  1  0.57818271  0.09198341  0.18327542  1
  Se  Se230  1  0.57651450  0.09384408  0.68343508  1
  Se  Se231  1  0.58483142  0.41530988  0.19985821  1
  Se  Se232  1  0.58526981  0.41460570  0.69520532  1
  Se  Se233  1  0.58868207  0.74690978  0.19250705  1
  Se  Se234  1  0.58429148  0.75113947  0.69891131  1
  Se  Se235  1  0.89735984  0.08332664  0.19678776  1
  Se  Se236  1  0.91678866  0.10332161  0.68532392  1
  Se  Se237  1  0.90845224  0.43177166  0.21465060  1
  Se  Se238  1  0.90462750  0.42997849  0.68817757  1
  Se  Se239  1  0.91958076  0.75508926  0.18320060  1
  Se  Se240  1  0.90706326  0.75756322  0.69651542  1
  Se  Se241  1  0.06500843  0.26187513  0.20078789  1
  Se  Se242  1  0.09452500  0.23578709  0.68754624  1
  Se  Se243  1  0.09165064  0.57337001  0.19215983  1
  Se  Se244  1  0.07872939  0.57428924  0.68263250  1
  Se  Se245  1  0.08075581  0.92450432  0.19977316  1
  Se  Se246  1  0.08904054  0.90722996  0.69065136  1
  Se  Se247  1  0.41776235  0.25031849  0.18362299  1
  Se  Se248  1  0.41716041  0.25295505  0.69869712  1
  Se  Se249  1  0.42979873  0.57988353  0.18682212  1
  Se  Se250  1  0.41867979  0.57522977  0.68638763  1
  Se  Se251  1  0.41570911  0.91404055  0.19689951  1
  Se  Se252  1  0.41621739  0.91568833  0.69770816  1
  Se  Se253  1  0.73242425  0.26408930  0.20485862  1
  Se  Se254  1  0.74669524  0.25686710  0.69735578  1
  Se  Se255  1  0.76457466  0.57342629  0.20526517  1
  Se  Se256  1  0.74130175  0.59067272  0.69605708  1
  Se  Se257  1  0.75508179  0.90983871  0.18051680  1
  Se  Se258  1  0.75509526  0.91721171  0.69014507  1
