# generated using pymatgen
data_In86Cu29Se144
_symmetry_space_group_name_H-M   'P 1'
_cell_length_a   17.54285540
_cell_length_b   17.54075674
_cell_length_c   23.38985347
_cell_angle_alpha   89.98864399
_cell_angle_beta   89.99365154
_cell_angle_gamma   89.97975698
_symmetry_Int_Tables_number   1
_chemical_formula_structural   In86Cu29Se144
_chemical_formula_sum   'In86 Cu29 Se144'
_cell_volume   7197.40717012
_cell_formula_units_Z   1
loop_
 _symmetry_equiv_pos_site_id
 _symmetry_equiv_pos_as_xyz
  1  'x, y, z'
loop_
 _atom_site_type_symbol
 _atom_site_label
 _atom_site_symmetry_multiplicity
 _atom_site_fract_x
 _atom_site_fract_y
 _atom_site_fract_z
 _atom_site_occupancy
  In  In0  1  -0.00827625  0.18266267  0.11592595  1
  In  In1  1  0.00461158  0.16810584  0.62907075  1
  In  In2  1  0.01632877  0.50587574  0.11429025  1
  In  In3  1  0.02281667  0.47391758  0.66046501  1
  In  In4  1  0.00195387  0.81612337  0.12253402  1
  In  In5  1  -0.02339535  0.84691784  0.65303683  1
  In  In6  1  0.34122248  0.16116600  0.13467180  1
  In  In7  1  0.34054375  0.17823917  0.61998730  1
  In  In8  1  0.33198632  0.49890531  0.12740452  1
  In  In9  1  0.31313055  0.50583899  0.64028012  1
  In  In10  1  0.32294124  0.84028904  0.12662114  1
  In  In11  1  0.32119248  0.82607852  0.62632434  1
  In  In12  1  0.66964086  0.16789378  0.12810378  1
  In  In13  1  0.66926804  0.16854658  0.63139073  1
  In  In14  1  0.65209645  0.49597830  0.11636251  1
  In  In15  1  0.66883849  0.47597432  0.62951076  1
  In  In16  1  0.67814310  0.84376145  0.12550919  1
  In  In17  1  0.69911782  0.83379917  0.62998563  1
  In  In18  1  0.17415459  -0.00018610  0.37645713  1
  In  In19  1  0.14218404  0.00198414  0.86882335  1
  In  In20  1  0.17306365  0.32771456  0.38844573  1
  In  In21  1  0.18574380  0.35292209  0.84773430  1
  In  In22  1  0.16186756  0.66232933  0.37112615  1
  In  In23  1  0.16786300  0.65464436  0.88054055  1
  In  In24  1  0.51087750  0.00927751  0.37000744  1
  In  In25  1  0.51059220  -0.00286678  0.87556993  1
  In  In26  1  0.49384821  0.32518665  0.37123402  1
  In  In27  1  0.50975722  0.34517564  0.87544042  1
  In  In28  1  0.49357981  0.67766874  0.37268179  1
  In  In29  1  0.48002223  0.65927694  0.87568347  1
  In  In30  1  0.82445788  0.01432503  0.38817176  1
  In  In31  1  0.86139450  0.02053468  0.84346357  1
  In  In32  1  0.82439452  0.32991887  0.37545526  1
  In  In33  1  0.83025645  0.33823615  0.85583638  1
  In  In34  1  0.85408986  0.66455436  0.37825810  1
  In  In35  1  0.85521772  0.66513390  0.86182223  1
  In  In36  1  -0.00274895  0.17298543  0.39271683  1
  In  In37  1  -0.00185459  0.16923805  0.85472412  1
  In  In38  1  0.00379339  0.51529489  0.37829305  1
  In  In39  1  0.02674956  0.51655107  0.83873577  1
  In  In40  1  0.00661086  0.81812785  0.37978083  1
  In  In41  1  0.00097063  0.83849255  0.87308710  1
  In  In42  1  0.33719857  0.17335806  0.37933579  1
  In  In43  1  0.31597423  0.18120586  0.86806742  1
  In  In44  1  0.32302080  0.48945591  0.37088118  1
  In  In45  1  0.32574471  0.49859732  0.87713800  1
  In  In46  1  0.32946749  0.83182610  0.36445142  1
  In  In47  1  0.32648917  0.80255313  0.87045404  1
  In  In48  1  0.66386601  0.16433233  0.37847358  1
  In  In49  1  0.69815165  0.18801262  0.85031132  1
  In  In50  1  0.67944923  0.48591682  0.37281859  1
  In  In51  1  0.67067475  0.46834162  0.88125933  1
  In  In52  1  0.66827434  0.85058306  0.37733574  1
  In  In53  1  0.67393642  0.85009245  0.86910675  1
  In  In54  1  0.17985714  0.00582529  0.12311286  1
  In  In55  1  0.15017672  0.00229638  0.62951717  1
  In  In56  1  0.16920550  0.34412225  0.12004828  1
  In  In57  1  0.16965734  0.33349324  0.62737449  1
  In  In58  1  0.16541595  0.66527687  0.12362467  1
  In  In59  1  0.16428600  0.66113059  0.63610928  1
  In  In60  1  0.50278255  0.00135107  0.13123991  1
  In  In61  1  0.49974957  0.02110498  0.62004966  1
  In  In62  1  0.49693519  0.33640958  0.12796131  1
  In  In63  1  0.50852292  0.32227130  0.63262537  1
  In  In64  1  0.49801820  0.64670371  0.12072311  1
  In  In65  1  0.49517118  0.65079066  0.62783967  1
  In  In66  1  0.81876406  0.00125275  0.12835644  1
  In  In67  1  0.83654711  0.00713064  0.63435675  1
  In  In68  1  0.83397369  0.31799329  0.11575708  1
  In  In69  1  0.86540426  0.30179995  0.67447023  1
  In  In70  1  0.83707764  0.67763178  0.12694165  1
  In  In71  1  0.85029636  0.67378815  0.62555387  1
  In  In72  1  0.84174939  0.49736639  -0.01316352  1
  In  In73  1  0.49672585  0.49342131  0.50407128  1
  In  In74  1  0.49799569  0.82941252  0.00096043  1
  In  In75  1  0.84358843  0.49251134  0.51200419  1
  In  In76  1  0.15501840  0.17199625  -0.00741450  1
  In  In77  1  0.66265629  0.66509958  0.75715407  1
  In  In78  1  0.49984070  0.16956593  0.00493520  1
  In  In79  1  0.83644635  0.83609052  -0.00843514  1
  In  In80  1  0.15863570  0.83903973  0.50613976  1
  In  In81  1  0.50327706  0.84053745  0.49316072  1
  In  In82  1  0.33312432  -0.00042937  0.74340632  1
  In  In83  1  0.00394279  0.33966743  0.24444671  1
  In  In84  1  -0.00093379  -0.00438336  0.25709030  1
  In  In85  1  0.66112156  0.66805965  0.24457648  1
  Cu  Cu86  1  0.17174767  0.82432094  0.75576901  1
  Cu  Cu87  1  0.66584479  0.66168858  -0.01193444  1
  Cu  Cu88  1  0.67362719  0.01706341  -0.00489815  1
  Cu  Cu89  1  0.32132016  0.65425004  -0.00114397  1
  Cu  Cu90  1  0.83725675  0.49550414  0.24870505  1
  Cu  Cu91  1  0.16969578  0.50193272  0.24756698  1
  Cu  Cu92  1  0.50515251  0.83157168  0.74730477  1
  Cu  Cu93  1  0.32956238  0.33772526  -0.00077185  1
  Cu  Cu94  1  0.50365220  0.16847285  0.25216568  1
  Cu  Cu95  1  0.67141512  0.00154800  0.50641278  1
  Cu  Cu96  1  0.00620084  0.66744245  0.50735643  1
  Cu  Cu97  1  0.32349067  -0.01191768  -0.00507550  1
  Cu  Cu98  1  0.17650616  0.16990533  0.25684680  1
  Cu  Cu99  1  0.49996803  0.49659251  0.24825892  1
  Cu  Cu100  1  -0.00514220  0.33301805  -0.01642009  1
  Cu  Cu101  1  0.49920435  0.16479001  0.75115284  1
  Cu  Cu102  1  0.67131629  0.31948185  0.50382030  1
  Cu  Cu103  1  0.33155745  0.01592682  0.49676811  1
  Cu  Cu104  1  0.82799781  0.16423792  0.25287942  1
  Cu  Cu105  1  0.32630726  0.66323959  0.50540829  1
  Cu  Cu106  1  0.48660761  0.50008271  0.75397622  1
  Cu  Cu107  1  0.83203818  0.83407999  0.25311310  1
  Cu  Cu108  1  -0.01018846  0.00194612  -0.01069549  1
  Cu  Cu109  1  0.32763959  0.33878585  0.50419406  1
  Cu  Cu110  1  0.16533489  0.82687408  0.24801068  1
  Cu  Cu111  1  0.68321217  0.66809128  0.50672043  1
  Cu  Cu112  1  0.49004767  0.83243953  0.24738201  1
  Cu  Cu113  1  -0.00404807  0.33753958  0.51711726  1
  Cu  Cu114  1  -0.01112630  0.00413345  0.51247984  1
  Se  Se115  1  0.07142567  0.07785911  0.05689535  1
  Se  Se116  1  0.08280155  0.08719820  0.55394361  1
  Se  Se117  1  0.07882554  0.40709925  0.04592034  1
  Se  Se118  1  0.08076356  0.42414626  0.56579315  1
  Se  Se119  1  0.08568561  0.74620136  0.05137301  1
  Se  Se120  1  0.07531051  0.75361970  0.57211651  1
  Se  Se121  1  0.40585647  0.06873204  0.05502742  1
  Se  Se122  1  0.41983993  0.09609081  0.54689175  1
  Se  Se123  1  0.41379967  0.41513892  0.05692567  1
  Se  Se124  1  0.40764592  0.41382131  0.57047123  1
  Se  Se125  1  0.40530637  0.73803517  0.05783312  1
  Se  Se126  1  0.41475658  0.74559120  0.55622867  1
  Se  Se127  1  0.75639723  0.09236237  0.05519969  1
  Se  Se128  1  0.75220947  0.08532926  0.56250145  1
  Se  Se129  1  0.75120073  0.41533917  0.05377266  1
  Se  Se130  1  0.75587876  0.39401218  0.56338148  1
  Se  Se131  1  0.73976656  0.74421708  0.05162623  1
  Se  Se132  1  0.76839211  0.75286128  0.55294453  1
  Se  Se133  1  0.25728383  0.24642323  0.05838007  1
  Se  Se134  1  0.24481543  0.24995067  0.55354026  1
  Se  Se135  1  0.24200275  0.57143077  0.05687234  1
  Se  Se136  1  0.24348022  0.58372012  0.56071556  1
  Se  Se137  1  0.23947805  0.91071240  0.05060433  1
  Se  Se138  1  0.25718766  0.93115726  0.55907187  1
  Se  Se139  1  0.59342465  0.26106818  0.05815993  1
  Se  Se140  1  0.58098788  0.24244427  0.55701469  1
  Se  Se141  1  0.58169583  0.58231297  0.04312440  1
  Se  Se142  1  0.59699397  0.58358245  0.55844586  1
  Se  Se143  1  0.59367112  0.92889252  0.05178141  1
  Se  Se144  1  0.59027141  0.91742140  0.56489795  1
  Se  Se145  1  0.91270137  0.24839449  0.03657109  1
  Se  Se146  1  0.91068304  0.25879253  0.57205423  1
  Se  Se147  1  0.91759788  0.59201239  0.05572762  1
  Se  Se148  1  0.93901465  0.57790803  0.56856978  1
  Se  Se149  1  0.91936979  0.92395789  0.06155374  1
  Se  Se150  1  0.91427940  0.91402993  0.56581984  1
  Se  Se151  1  0.07989938  0.25822114  0.45771844  1
  Se  Se152  1  0.08168417  0.26043294  0.92240099  1
  Se  Se153  1  0.08987119  0.58720801  0.45093976  1
  Se  Se154  1  0.07709914  0.56267539  0.93549512  1
  Se  Se155  1  0.06832331  0.92979620  0.44422949  1
  Se  Se156  1  0.08033207  0.91753631  0.94712879  1
  Se  Se157  1  0.41603509  0.25829674  0.45102422  1
  Se  Se158  1  0.40711394  0.25334555  0.94069728  1
  Se  Se159  1  0.41070689  0.58877780  0.44289754  1
  Se  Se160  1  0.41260037  0.57465785  0.95044328  1
  Se  Se161  1  0.40479538  0.92675431  0.43640810  1
  Se  Se162  1  0.40859247  0.91333973  0.93483673  1
  Se  Se163  1  0.75609119  0.24115611  0.44682751  1
  Se  Se164  1  0.75446506  0.26336983  0.93412732  1
  Se  Se165  1  0.75452416  0.58084803  0.44330756  1
  Se  Se166  1  0.74879750  0.58902475  0.92722979  1
  Se  Se167  1  0.75385657  0.91534947  0.45343240  1
  Se  Se168  1  0.75654492  0.93808804  0.93578070  1
  Se  Se169  1  0.24262828  0.09348796  0.44427662  1
  Se  Se170  1  0.24955985  0.07823579  0.93689526  1
  Se  Se171  1  0.24562898  0.42626802  0.45274637  1
  Se  Se172  1  0.24005901  0.40977132  0.94197985  1
  Se  Se173  1  0.25184222  0.75112639  0.44436508  1
  Se  Se174  1  0.24325833  0.74703196  0.95072178  1
  Se  Se175  1  0.58424482  0.08014262  0.45033133  1
  Se  Se176  1  0.59125786  0.09409248  0.93561721  1
  Se  Se177  1  0.59343103  0.40547965  0.44539722  1
  Se  Se178  1  0.57685553  0.41828191  0.95681347  1
  Se  Se179  1  0.59785952  0.74005484  0.44279976  1
  Se  Se180  1  0.58850417  0.75031389  0.93182322  1
  Se  Se181  1  0.90978801  0.09164989  0.45784210  1
  Se  Se182  1  0.92007174  0.08983136  0.93103052  1
  Se  Se183  1  0.92843570  0.40781307  0.43925971  1
  Se  Se184  1  0.92997009  0.41922400  0.91846596  1
  Se  Se185  1  0.92084449  0.74938538  0.45458778  1
  Se  Se186  1  0.92897181  0.73815025  0.94357895  1
  Se  Se187  1  0.25300630  0.25844554  0.31041590  1
  Se  Se188  1  0.24505522  0.24503713  0.78622401  1
  Se  Se189  1  0.25210253  0.58509533  0.30409747  1
  Se  Se190  1  0.25780456  0.58983086  0.80683367  1
  Se  Se191  1  0.24324512  0.91741031  0.30047594  1
  Se  Se192  1  0.25075631  0.91313609  0.81306853  1
  Se  Se193  1  0.58846413  0.25098743  0.30634934  1
  Se  Se194  1  0.57845001  0.25148270  0.80587522  1
  Se  Se195  1  0.57956531  0.57497222  0.31284025  1
  Se  Se196  1  0.57532948  0.57213778  0.81611088  1
  Se  Se197  1  0.57878206  0.91187232  0.30171561  1
  Se  Se198  1  0.58320902  0.91990041  0.79827427  1
  Se  Se199  1  0.91817385  0.24474564  0.30723956  1
  Se  Se200  1  0.89769901  0.23848319  0.78929769  1
  Se  Se201  1  0.91976113  0.58144896  0.30070709  1
  Se  Se202  1  0.89571420  0.55631398  0.79347557  1
  Se  Se203  1  0.90916361  0.91004534  0.31998565  1
  Se  Se204  1  0.91780333  0.90252441  0.79559664  1
  Se  Se205  1  0.08446466  0.09668893  0.31345340  1
  Se  Se206  1  0.08765988  0.08716915  0.79089824  1
  Se  Se207  1  0.09066364  0.42283680  0.31217184  1
  Se  Se208  1  0.06662248  0.39114078  0.78674715  1
  Se  Se209  1  0.07971431  0.74568162  0.30123750  1
  Se  Se210  1  0.08835414  0.74754989  0.81406315  1
  Se  Se211  1  0.41704027  0.08817011  0.30762093  1
  Se  Se212  1  0.41736116  0.08723310  0.81252349  1
  Se  Se213  1  0.41607319  0.41535829  0.30490817  1
  Se  Se214  1  0.41068731  0.41188751  0.81013444  1
  Se  Se215  1  0.40927216  0.74384581  0.29687148  1
  Se  Se216  1  0.42057898  0.74540101  0.79646885  1
  Se  Se217  1  0.74722921  0.07992429  0.30761291  1
  Se  Se218  1  0.73451757  0.06367571  0.79818852  1
  Se  Se219  1  0.75377373  0.40859297  0.29704543  1
  Se  Se220  1  0.74111992  0.42339345  0.79234007  1
  Se  Se221  1  0.75334943  0.74905992  0.31287934  1
  Se  Se222  1  0.76058002  0.75901993  0.80677843  1
  Se  Se223  1  0.25233892  0.08110039  0.20145115  1
  Se  Se224  1  0.24581023  0.09240278  0.68608289  1
  Se  Se225  1  0.25017188  0.41262917  0.19677595  1
  Se  Se226  1  0.25412472  0.40260310  0.70375093  1
  Se  Se227  1  0.25058811  0.74640336  0.19326389  1
  Se  Se228  1  0.25554146  0.74328313  0.70203014  1
  Se  Se229  1  0.58701120  0.08474892  0.19690115  1
  Se  Se230  1  0.58225001  0.08207530  0.69841222  1
  Se  Se231  1  0.58702673  0.41623502  0.19575619  1
  Se  Se232  1  0.57371372  0.41883469  0.70194891  1
  Se  Se233  1  0.57259047  0.75943197  0.18152972  1
  Se  Se234  1  0.58266225  0.75252631  0.68346967  1
  Se  Se235  1  0.91682430  0.09122544  0.19232318  1
  Se  Se236  1  0.93503984  0.07594792  0.69934214  1
  Se  Se237  1  0.91331029  0.42299966  0.17976761  1
  Se  Se238  1  0.88471915  0.44836894  0.69461884  1
  Se  Se239  1  0.91741948  0.75225939  0.20127555  1
  Se  Se240  1  0.92242710  0.73388990  0.71006231  1
  Se  Se241  1  0.09451204  0.24085306  0.18925101  1
  Se  Se242  1  0.06450893  0.27426006  0.69531428  1
  Se  Se243  1  0.08196908  0.58220582  0.19491158  1
  Se  Se244  1  0.08038848  0.59049160  0.71082070  1
  Se  Se245  1  0.08712584  0.91382461  0.18866718  1
  Se  Se246  1  0.09059601  0.91173054  0.70424727  1
  Se  Se247  1  0.41858304  0.25231768  0.19917921  1
  Se  Se248  1  0.41499273  0.24884481  0.69968659  1
  Se  Se249  1  0.41550164  0.58215286  0.19818964  1
  Se  Se250  1  0.40772563  0.58779297  0.70239421  1
  Se  Se251  1  0.41109292  0.92088438  0.19389675  1
  Se  Se252  1  0.42584400  0.90945586  0.68309819  1
  Se  Se253  1  0.75445270  0.25243045  0.19557799  1
  Se  Se254  1  0.72748366  0.26650311  0.70244488  1
  Se  Se255  1  0.75415082  0.57623255  0.18692694  1
  Se  Se256  1  0.74014001  0.59067568  0.67969746  1
  Se  Se257  1  0.74717882  0.92034167  0.20476921  1
  Se  Se258  1  0.74916863  0.92715568  0.70416912  1
