# generated using pymatgen
data_In86Cu29Se144
_symmetry_space_group_name_H-M   'P 1'
_cell_length_a   17.58014924
_cell_length_b   17.58214569
_cell_length_c   23.44073676
_cell_angle_alpha   90.00891690
_cell_angle_beta   90.00654394
_cell_angle_gamma   89.99532224
_symmetry_Int_Tables_number   1
_chemical_formula_structural   In86Cu29Se144
_chemical_formula_sum   'In86 Cu29 Se144'
_cell_volume   7245.45527711
_cell_formula_units_Z   1
loop_
 _symmetry_equiv_pos_site_id
 _symmetry_equiv_pos_as_xyz
  1  'x, y, z'
loop_
 _atom_site_type_symbol
 _atom_site_label
 _atom_site_symmetry_multiplicity
 _atom_site_fract_x
 _atom_site_fract_y
 _atom_site_fract_z
 _atom_site_occupancy
  In  In0  1  -0.00081112  0.16267172  0.13180893  1
  In  In1  1  -0.00152256  0.16659542  0.62017930  1
  In  In2  1  0.00136755  0.48957484  0.13388337  1
  In  In3  1  -0.01089061  0.48795380  0.61128234  1
  In  In4  1  -0.00219151  0.83820972  0.13340617  1
  In  In5  1  -0.00476919  0.84547897  0.62287669  1
  In  In6  1  0.33957469  0.17145161  0.11930778  1
  In  In7  1  0.32867137  0.17976702  0.62180903  1
  In  In8  1  0.31226972  0.50305091  0.12249003  1
  In  In9  1  0.34069588  0.50403646  0.61710666  1
  In  In10  1  0.35091005  0.82187689  0.11850127  1
  In  In11  1  0.32985070  0.81592524  0.62763921  1
  In  In12  1  0.66849610  0.17263865  0.12178452  1
  In  In13  1  0.68996533  0.15135854  0.64317647  1
  In  In14  1  0.67598369  0.49586162  0.14205875  1
  In  In15  1  0.66670740  0.49415956  0.61800031  1
  In  In16  1  0.65394157  0.82541392  0.12108367  1
  In  In17  1  0.67600551  0.84145607  0.61716942  1
  In  In18  1  0.15505579  0.01876534  0.38027737  1
  In  In19  1  0.16759227  0.01513774  0.87676546  1
  In  In20  1  0.16121557  0.33623505  0.37240049  1
  In  In21  1  0.16068588  0.33800078  0.88143920  1
  In  In22  1  0.14837231  0.66179582  0.36959667  1
  In  In23  1  0.16740242  0.64374549  0.87996090  1
  In  In24  1  0.49613141  -0.00903559  0.38147393  1
  In  In25  1  0.51472237  -0.00181616  0.88549597  1
  In  In26  1  0.51442898  0.34671862  0.36599247  1
  In  In27  1  0.49741218  0.32622919  0.87952251  1
  In  In28  1  0.51059847  0.65791949  0.38140688  1
  In  In29  1  0.50105271  0.68360692  0.88109013  1
  In  In30  1  0.84077944  -0.00711475  0.38091879  1
  In  In31  1  0.83572086  0.00989401  0.85950886  1
  In  In32  1  0.83387334  0.33560114  0.37195362  1
  In  In33  1  0.83174074  0.32232426  0.85746508  1
  In  In34  1  0.83191290  0.66352537  0.37237283  1
  In  In35  1  0.83293615  0.66448298  0.87861500  1
  In  In36  1  -0.00704228  0.17476362  0.37114953  1
  In  In37  1  0.00336892  0.17934063  0.86415525  1
  In  In38  1  -0.00320137  0.50076538  0.37431274  1
  In  In39  1  0.01452827  0.48900633  0.87901591  1
  In  In40  1  -0.01142126  0.81759761  0.36440677  1
  In  In41  1  -0.01241961  0.83667401  0.87442653  1
  In  In42  1  0.31494919  0.17158938  0.37772223  1
  In  In43  1  0.33125987  0.16791776  0.88647059  1
  In  In44  1  0.34336778  0.49221824  0.37916381  1
  In  In45  1  0.31925264  0.49218810  0.87495288  1
  In  In46  1  0.34190283  0.83596102  0.37875863  1
  In  In47  1  0.34836689  0.83423389  0.87282962  1
  In  In48  1  0.67277189  0.18517565  0.37039717  1
  In  In49  1  0.66369303  0.16473709  0.86765717  1
  In  In50  1  0.66954621  0.49571005  0.37518271  1
  In  In51  1  0.67863779  0.49704534  0.87532784  1
  In  In52  1  0.67842730  0.82284680  0.38461793  1
  In  In53  1  0.65589043  0.83987063  0.88071967  1
  In  In54  1  0.15065371  0.00588894  0.12283457  1
  In  In55  1  0.14440542  0.00312102  0.62760188  1
  In  In56  1  0.16375602  0.33270754  0.12746675  1
  In  In57  1  0.15439838  0.32369016  0.61151947  1
  In  In58  1  0.16546049  0.65477923  0.11807459  1
  In  In59  1  0.17755844  0.66285166  0.62605108  1
  In  In60  1  0.50530714  -0.00877435  0.11009179  1
  In  In61  1  0.51867157  0.00837163  0.62654037  1
  In  In62  1  0.50593874  0.32351301  0.13209458  1
  In  In63  1  0.50990773  0.34584324  0.62012988  1
  In  In64  1  0.50337231  0.67527630  0.12131100  1
  In  In65  1  0.49620801  0.66180378  0.61956117  1
  In  In66  1  0.83721821  0.01372187  0.12940075  1
  In  In67  1  0.83774989  0.00124790  0.61906396  1
  In  In68  1  0.83921844  0.32472199  0.15769918  1
  In  In69  1  0.83401096  0.33194508  0.62101482  1
  In  In70  1  0.84015908  0.65157156  0.14308333  1
  In  In71  1  0.83225134  0.66497443  0.61333439  1
  In  In72  1  0.17417579  0.83213473  0.00362255  1
  In  In73  1  0.49693895  0.50541271  0.00913760  1
  In  In74  1  0.33179668  0.33406550  0.74524023  1
  In  In75  1  0.83712275  0.49366745  0.01073412  1
  In  In76  1  0.50376964  0.17360266  0.50075222  1
  In  In77  1  0.83023204  0.16669719  0.00595379  1
  In  In78  1  0.33087205  0.66480239  0.23915716  1
  In  In79  1  0.34011700  -0.00043874  0.75405005  1
  In  In80  1  0.66639282  0.66917309  0.75741224  1
  In  In81  1  0.00097569  0.66236215  0.75482879  1
  In  In82  1  0.82599603  0.82978280  -0.00129527  1
  In  In83  1  0.32842062  0.00273195  0.25234547  1
  In  In84  1  0.66871606  0.00312763  0.24808045  1
  In  In85  1  0.16358297  0.83108500  0.50350824  1
  Cu  Cu86  1  0.16388022  0.84277421  0.24863898  1
  Cu  Cu87  1  0.67405844  0.33596003  0.49802067  1
  Cu  Cu88  1  0.82892031  0.83233349  0.25499892  1
  Cu  Cu89  1  -0.00011193  0.33299455  0.49208431  1
  Cu  Cu90  1  0.33288854  0.00382501  -0.00306507  1
  Cu  Cu91  1  0.83459083  0.49247978  0.74271761  1
  Cu  Cu92  1  0.16516493  0.49691297  0.25018063  1
  Cu  Cu93  1  0.66203843  0.66541206  0.49798221  1
  Cu  Cu94  1  0.15838507  0.17366309  0.25250040  1
  Cu  Cu95  1  0.16235517  0.16707010  0.74810045  1
  Cu  Cu96  1  0.49953411  0.49588751  0.25384490  1
  Cu  Cu97  1  0.49291065  0.16835442  0.24842490  1
  Cu  Cu98  1  0.50542844  0.83395850  0.75125805  1
  Cu  Cu99  1  -0.00023606  0.33332884  0.00350332  1
  Cu  Cu100  1  0.49796927  0.50653136  0.74243495  1
  Cu  Cu101  1  0.66724256  0.33292648  0.00689712  1
  Cu  Cu102  1  0.83355635  0.84231770  0.74343359  1
  Cu  Cu103  1  0.16569912  0.82875815  0.74759063  1
  Cu  Cu104  1  -0.00310905  0.00246941  0.49853851  1
  Cu  Cu105  1  0.32942970  0.33487607  0.49588739  1
  Cu  Cu106  1  0.16226140  0.49225608  0.74893827  1
  Cu  Cu107  1  0.50512827  0.82884519  0.24984085  1
  Cu  Cu108  1  0.66983388  0.00477658  0.50284364  1
  Cu  Cu109  1  0.33288831  0.66343392  0.49974570  1
  Cu  Cu110  1  0.32508419  0.33363500  0.00345603  1
  Cu  Cu111  1  0.51094408  0.17041815  0.75500197  1
  Cu  Cu112  1  0.33327723  -0.00507325  0.50139167  1
  Cu  Cu113  1  -0.00522319  0.66408935  0.49250830  1
  Cu  Cu114  1  -0.00072703  0.00715560  -0.00051731  1
  Se  Se115  1  0.07873072  0.09394626  0.05224043  1
  Se  Se116  1  0.08465655  0.08474587  0.54855492  1
  Se  Se117  1  0.08154360  0.41708887  0.05735157  1
  Se  Se118  1  0.08479665  0.41836951  0.54447613  1
  Se  Se119  1  0.07460107  0.75054791  0.06012276  1
  Se  Se120  1  0.07198135  0.73871936  0.56180338  1
  Se  Se121  1  0.41844045  0.08309748  0.05253668  1
  Se  Se122  1  0.41230881  0.07938983  0.56103724  1
  Se  Se123  1  0.40876721  0.40860862  0.06502137  1
  Se  Se124  1  0.41673213  0.41254288  0.55055600  1
  Se  Se125  1  0.42272727  0.74347309  0.04485403  1
  Se  Se126  1  0.41420987  0.74969912  0.55238054  1
  Se  Se127  1  0.73746447  0.06862464  0.05573833  1
  Se  Se128  1  0.75238774  0.09008348  0.55462669  1
  Se  Se129  1  0.75112075  0.40029486  0.07096858  1
  Se  Se130  1  0.75799641  0.42168678  0.55006569  1
  Se  Se131  1  0.75566732  0.73688545  0.06838513  1
  Se  Se132  1  0.74808997  0.74993865  0.54906152  1
  Se  Se133  1  0.24373026  0.24808041  0.05668388  1
  Se  Se134  1  0.24785783  0.24654871  0.54555015  1
  Se  Se135  1  0.26691957  0.60207423  0.05007422  1
  Se  Se136  1  0.24727139  0.58048867  0.55089063  1
  Se  Se137  1  0.26008598  0.92661743  0.06543006  1
  Se  Se138  1  0.25156273  0.92198947  0.56677357  1
  Se  Se139  1  0.57933633  0.24799159  0.05340854  1
  Se  Se140  1  0.59981600  0.25242340  0.56200909  1
  Se  Se141  1  0.59992099  0.58204138  0.06584086  1
  Se  Se142  1  0.58201566  0.58044787  0.55327543  1
  Se  Se143  1  0.58631251  0.90630964  0.04509300  1
  Se  Se144  1  0.58318904  0.92101905  0.55244094  1
  Se  Se145  1  0.91504625  0.26190024  0.06662073  1
  Se  Se146  1  0.91901825  0.25212108  0.55113220  1
  Se  Se147  1  0.92738161  0.58852085  0.06297035  1
  Se  Se148  1  0.91185265  0.57972062  0.54629584  1
  Se  Se149  1  0.91921914  0.92492348  0.05718330  1
  Se  Se150  1  0.91379550  0.91333718  0.54687202  1
  Se  Se151  1  0.08447628  0.24767285  0.44169759  1
  Se  Se152  1  0.07755326  0.24871606  0.94521734  1
  Se  Se153  1  0.08395622  0.58054495  0.44676977  1
  Se  Se154  1  0.07683597  0.57981414  0.95041865  1
  Se  Se155  1  0.07457486  0.91505591  0.43844659  1
  Se  Se156  1  0.07844674  0.92158253  0.94259115  1
  Se  Se157  1  0.41522521  0.25781233  0.43542743  1
  Se  Se158  1  0.41391049  0.25392966  0.95203687  1
  Se  Se159  1  0.41894565  0.58126289  0.44707486  1
  Se  Se160  1  0.41335821  0.58182854  0.93589366  1
  Se  Se161  1  0.41947677  0.91062353  0.45464274  1
  Se  Se162  1  0.41712719  0.91970069  0.94566144  1
  Se  Se163  1  0.75593502  0.25031602  0.44631074  1
  Se  Se164  1  0.74863404  0.26009122  0.94187118  1
  Se  Se165  1  0.74734883  0.58476891  0.44338188  1
  Se  Se166  1  0.74577070  0.58719633  0.94995505  1
  Se  Se167  1  0.75055906  0.91838896  0.44929411  1
  Se  Se168  1  0.75306685  0.93034899  0.93594380  1
  Se  Se169  1  0.25092797  0.08042170  0.45072483  1
  Se  Se170  1  0.24314139  0.08866506  0.95345565  1
  Se  Se171  1  0.24661366  0.41822145  0.44222837  1
  Se  Se172  1  0.24297111  0.41904612  0.95168326  1
  Se  Se173  1  0.25138250  0.74249487  0.43799735  1
  Se  Se174  1  0.25544229  0.74666162  0.93527777  1
  Se  Se175  1  0.59144719  0.08192115  0.43803184  1
  Se  Se176  1  0.58240227  0.10005983  0.94527373  1
  Se  Se177  1  0.58349782  0.41678170  0.44796692  1
  Se  Se178  1  0.58954512  0.41510862  0.94645547  1
  Se  Se179  1  0.57839841  0.75442776  0.44872772  1
  Se  Se180  1  0.60071369  0.74017682  0.94856199  1
  Se  Se181  1  0.91696683  0.08826166  0.44400419  1
  Se  Se182  1  0.91993527  0.08548105  0.93834153  1
  Se  Se183  1  0.91427263  0.41865527  0.44362347  1
  Se  Se184  1  0.91433368  0.40336701  0.93924452  1
  Se  Se185  1  0.91134985  0.75158476  0.44430550  1
  Se  Se186  1  0.92745873  0.73822651  0.94665742  1
  Se  Se187  1  0.24758502  0.25383741  0.30229890  1
  Se  Se188  1  0.24628542  0.24386318  0.80893513  1
  Se  Se189  1  0.24850933  0.57886420  0.30821122  1
  Se  Se190  1  0.24638299  0.57583239  0.80085986  1
  Se  Se191  1  0.24044654  0.91356700  0.31582581  1
  Se  Se192  1  0.24278827  0.91118729  0.81071962  1
  Se  Se193  1  0.58149972  0.24947372  0.29825461  1
  Se  Se194  1  0.58592379  0.26301752  0.80582371  1
  Se  Se195  1  0.58280421  0.57980688  0.30588125  1
  Se  Se196  1  0.57480668  0.57623218  0.81350793  1
  Se  Se197  1  0.58199924  0.91063666  0.31088245  1
  Se  Se198  1  0.58340652  0.92018024  0.80533988  1
  Se  Se199  1  0.92437801  0.26551599  0.30076419  1
  Se  Se200  1  0.91749569  0.24621109  0.79066205  1
  Se  Se201  1  0.93947839  0.60661249  0.30993597  1
  Se  Se202  1  0.90916565  0.56807785  0.81127232  1
  Se  Se203  1  0.91539799  0.91768414  0.30289648  1
  Se  Se204  1  0.92135104  0.91916443  0.79874480  1
  Se  Se205  1  0.07666545  0.08604029  0.30295462  1
  Se  Se206  1  0.08262674  0.08152356  0.80246118  1
  Se  Se207  1  0.07812887  0.41733413  0.30294931  1
  Se  Se208  1  0.08210489  0.40706441  0.80210211  1
  Se  Se209  1  0.08418572  0.75023481  0.29570244  1
  Se  Se210  1  0.09073297  0.75264690  0.81536172  1
  Se  Se211  1  0.42123306  0.08965055  0.31388585  1
  Se  Se212  1  0.42375025  0.09414784  0.81377328  1
  Se  Se213  1  0.41157040  0.41215624  0.30133778  1
  Se  Se214  1  0.42235611  0.42316134  0.80639388  1
  Se  Se215  1  0.41978045  0.74933664  0.30684630  1
  Se  Se216  1  0.42135579  0.74846832  0.80061995  1
  Se  Se217  1  0.75636558  0.08540477  0.31288060  1
  Se  Se218  1  0.75902410  0.10242700  0.79820581  1
  Se  Se219  1  0.73210224  0.39906628  0.30658639  1
  Se  Se220  1  0.74689197  0.41690584  0.79938064  1
  Se  Se221  1  0.74451636  0.74747219  0.30419906  1
  Se  Se222  1  0.76109766  0.76357258  0.81090948  1
  Se  Se223  1  0.23972258  0.09197128  0.19159199  1
  Se  Se224  1  0.24810749  0.08756720  0.69112464  1
  Se  Se225  1  0.24957429  0.41499349  0.19705552  1
  Se  Se226  1  0.24197961  0.41888913  0.68240423  1
  Se  Se227  1  0.24205137  0.76426573  0.18547892  1
  Se  Se228  1  0.25075988  0.74193704  0.70252526  1
  Se  Se229  1  0.56920158  0.08373615  0.18821296  1
  Se  Se230  1  0.59011807  0.07937036  0.70599597  1
  Se  Se231  1  0.58258349  0.41112856  0.20017866  1
  Se  Se232  1  0.58572812  0.42340604  0.69540774  1
  Se  Se233  1  0.58610342  0.74318477  0.19840990  1
  Se  Se234  1  0.58335868  0.75397919  0.68836075  1
  Se  Se235  1  0.91229802  0.08929624  0.20231918  1
  Se  Se236  1  0.93456595  0.06700076  0.68607508  1
  Se  Se237  1  0.89640047  0.44305859  0.20352195  1
  Se  Se238  1  0.92164944  0.41294209  0.69138156  1
  Se  Se239  1  0.91665582  0.75347804  0.20026519  1
  Se  Se240  1  0.91041177  0.75030572  0.69092019  1
  Se  Se241  1  0.07588933  0.25615335  0.19697654  1
  Se  Se242  1  0.08411138  0.24957057  0.69060714  1
  Se  Se243  1  0.08767652  0.58302544  0.19425542  1
  Se  Se244  1  0.08302299  0.57423296  0.68763326  1
  Se  Se245  1  0.07870348  0.92716877  0.19870435  1
  Se  Se246  1  0.07922449  0.91197165  0.69947913  1
  Se  Se247  1  0.40798555  0.25143160  0.19724986  1
  Se  Se248  1  0.43105686  0.24434110  0.69014422  1
  Se  Se249  1  0.42513478  0.57216790  0.18543989  1
  Se  Se250  1  0.41157765  0.58738057  0.69278709  1
  Se  Se251  1  0.42369813  0.91288128  0.19358937  1
  Se  Se252  1  0.42439765  0.91162313  0.68770087  1
  Se  Se253  1  0.74814445  0.22746699  0.20254357  1
  Se  Se254  1  0.73450148  0.27361682  0.69109670  1
  Se  Se255  1  0.75499077  0.57643197  0.21175792  1
  Se  Se256  1  0.75529770  0.58296997  0.69165073  1
  Se  Se257  1  0.75357552  0.90837871  0.18676704  1
  Se  Se258  1  0.74914159  0.92314634  0.69082858  1
