# generated using pymatgen
data_In86Cu29Se144
_symmetry_space_group_name_H-M   'P 1'
_cell_length_a   17.58808136
_cell_length_b   17.58998821
_cell_length_c   23.44883369
_cell_angle_alpha   90.02077615
_cell_angle_beta   89.99564905
_cell_angle_gamma   90.00773566
_symmetry_Int_Tables_number   1
_chemical_formula_structural   In86Cu29Se144
_chemical_formula_sum   'In86 Cu29 Se144'
_cell_volume   7254.46228173
_cell_formula_units_Z   1
loop_
 _symmetry_equiv_pos_site_id
 _symmetry_equiv_pos_as_xyz
  1  'x, y, z'
loop_
 _atom_site_type_symbol
 _atom_site_label
 _atom_site_symmetry_multiplicity
 _atom_site_fract_x
 _atom_site_fract_y
 _atom_site_fract_z
 _atom_site_occupancy
  In  In0  1  0.00024272  0.16277806  0.10912002  1
  In  In1  1  0.01037574  0.18209862  0.62058117  1
  In  In2  1  -0.00224570  0.51099618  0.11822409  1
  In  In3  1  -0.00038537  0.49167229  0.63432373  1
  In  In4  1  0.00938779  0.82657927  0.10844112  1
  In  In5  1  -0.01620429  0.81921812  0.63474957  1
  In  In6  1  0.32793511  0.16687407  0.11254557  1
  In  In7  1  0.34331511  0.17803837  0.61935342  1
  In  In8  1  0.34560254  0.48336395  0.12089962  1
  In  In9  1  0.33490807  0.50330106  0.62890442  1
  In  In10  1  0.34775432  0.84574149  0.11279533  1
  In  In11  1  0.33425151  0.81947283  0.63033304  1
  In  In12  1  0.67209198  0.17529426  0.11791704  1
  In  In13  1  0.65965077  0.16611823  0.61636896  1
  In  In14  1  0.65857535  0.48867643  0.11216574  1
  In  In15  1  0.66192778  0.50010848  0.62432247  1
  In  In16  1  0.65873416  0.84568959  0.12140148  1
  In  In17  1  0.66827879  0.83874021  0.63572651  1
  In  In18  1  0.18555520  -0.00185640  0.37222781  1
  In  In19  1  0.14737728  -0.00118669  0.89078249  1
  In  In20  1  0.17086378  0.33033255  0.38714977  1
  In  In21  1  0.16404704  0.33173525  0.86740665  1
  In  In22  1  0.15880529  0.66297911  0.38245202  1
  In  In23  1  0.17309236  0.66505000  0.86892355  1
  In  In24  1  0.48472758  0.01190791  0.38056532  1
  In  In25  1  0.50348179  -0.00125194  0.87769466  1
  In  In26  1  0.50833316  0.32280191  0.39345414  1
  In  In27  1  0.49078839  0.34285036  0.88386161  1
  In  In28  1  0.50896409  0.66079533  0.38868729  1
  In  In29  1  0.50380442  0.66191042  0.86425134  1
  In  In30  1  0.84321459  0.01104911  0.37472095  1
  In  In31  1  0.83460436  0.01388511  0.87501463  1
  In  In32  1  0.82050762  0.34329550  0.38843577  1
  In  In33  1  0.83946155  0.32622741  0.87349029  1
  In  In34  1  0.82285750  0.65758376  0.38487334  1
  In  In35  1  0.80817974  0.65218911  0.84811957  1
  In  In36  1  -0.00582908  0.17083060  0.38432270  1
  In  In37  1  -0.00702674  0.16942785  0.88148213  1
  In  In38  1  -0.00134473  0.50145167  0.39036969  1
  In  In39  1  -0.01705092  0.49091278  0.85716841  1
  In  In40  1  0.00074319  0.82448595  0.38117224  1
  In  In41  1  0.00601246  0.82733020  0.87985724  1
  In  In42  1  0.34085670  0.15455323  0.37967243  1
  In  In43  1  0.32595175  0.18129874  0.88503840  1
  In  In44  1  0.34207085  0.48652396  0.38984117  1
  In  In45  1  0.34532260  0.50071857  0.86181415  1
  In  In46  1  0.33493601  0.84988397  0.37374543  1
  In  In47  1  0.33737609  0.82259172  0.87987275  1
  In  In48  1  0.64627166  0.18820181  0.39699742  1
  In  In49  1  0.67271815  0.16281283  0.87673016  1
  In  In50  1  0.67539361  0.48357163  0.39844837  1
  In  In51  1  0.66217460  0.50314280  0.86996542  1
  In  In52  1  0.66485823  0.81857112  0.37859369  1
  In  In53  1  0.65403962  0.82496896  0.85924132  1
  In  In54  1  0.18399978  0.01791907  0.10754027  1
  In  In55  1  0.16085054  0.01095892  0.62678122  1
  In  In56  1  0.18148519  0.31571859  0.12099967  1
  In  In57  1  0.16624660  0.33641583  0.62881490  1
  In  In58  1  0.15673635  0.66673700  0.11669600  1
  In  In59  1  0.17930231  0.65691496  0.63716042  1
  In  In60  1  0.49562718  -0.00149593  0.11885861  1
  In  In61  1  0.51231742  0.00713245  0.62104225  1
  In  In62  1  0.50514482  0.34384197  0.11250556  1
  In  In63  1  0.50103987  0.32996963  0.61898309  1
  In  In64  1  0.49859564  0.66316579  0.11122335  1
  In  In65  1  0.49517727  0.66622708  0.62801803  1
  In  In66  1  0.81924898  0.00998533  0.12349862  1
  In  In67  1  0.81825241  -0.00302233  0.63205758  1
  In  In68  1  0.82196840  0.32519997  0.11545589  1
  In  In69  1  0.83948476  0.34950615  0.62065563  1
  In  In70  1  0.83966205  0.66082952  0.11381201  1
  In  In71  1  0.84435895  0.63570558  0.65745429  1
  In  In72  1  0.16897830  0.50053040  -0.00325775  1
  In  In73  1  0.00913164  0.00717288  0.23474603  1
  In  In74  1  0.83080440  0.83419664  -0.00759047  1
  In  In75  1  0.33368334  -0.00170054  0.76327538  1
  In  In76  1  0.82187229  0.83064208  0.51101603  1
  In  In77  1  0.66040418  0.00638190  0.25263241  1
  In  In78  1  0.16916637  0.83606964  0.50277640  1
  In  In79  1  0.66432791  0.33508231  0.74147055  1
  In  In80  1  0.66545077  0.66180101  0.24965105  1
  In  In81  1  0.00127468  0.66767588  0.26140938  1
  In  In82  1  -0.00079563  0.00098675  0.75357385  1
  In  In83  1  -0.00213378  0.33705912  0.24693495  1
  In  In84  1  0.33394491  0.66756102  0.24990025  1
  In  In85  1  0.34109498  0.32365622  0.24834192  1
  Cu  Cu86  1  0.18294384  0.84344782  0.24138447  1
  Cu  Cu87  1  0.33789499  0.00257892  0.50190998  1
  Cu  Cu88  1  0.49509505  0.83587555  0.75127386  1
  Cu  Cu89  1  -0.00092384  0.00819977  0.50534664  1
  Cu  Cu90  1  0.67381857  0.33452872  -0.00842779  1
  Cu  Cu91  1  0.33471033  0.66422971  0.50867654  1
  Cu  Cu92  1  -0.00825384  0.65840874  -0.01095161  1
  Cu  Cu93  1  0.66729612  -0.00546789  0.50441342  1
  Cu  Cu94  1  0.33370461  -0.00430575  -0.00696994  1
  Cu  Cu95  1  0.16255440  0.83383633  0.75615366  1
  Cu  Cu96  1  0.16673434  0.49683924  0.75055866  1
  Cu  Cu97  1  0.17567008  0.17233705  0.75115262  1
  Cu  Cu98  1  0.32048593  0.33856374  0.50906713  1
  Cu  Cu99  1  0.49648481  0.83691050  0.24893023  1
  Cu  Cu100  1  0.33682778  0.66450799  -0.01093296  1
  Cu  Cu101  1  0.82093650  0.48977725  0.25170990  1
  Cu  Cu102  1  -0.00067265  0.65620022  0.51757767  1
  Cu  Cu103  1  0.50600610  0.16836043  0.74658658  1
  Cu  Cu104  1  0.00320557  0.33883866  -0.00803688  1
  Cu  Cu105  1  0.66478080  0.66704520  -0.01419996  1
  Cu  Cu106  1  0.17155073  0.49680416  0.25784041  1
  Cu  Cu107  1  0.82185320  0.18126394  0.25027415  1
  Cu  Cu108  1  0.66720492  0.66698509  0.51280336  1
  Cu  Cu109  1  -0.00137985  0.33853335  0.50501553  1
  Cu  Cu110  1  0.84872719  0.83564583  0.24880150  1
  Cu  Cu111  1  0.66210921  0.00046359  -0.00149024  1
  Cu  Cu112  1  0.50917387  0.49232067  0.24772381  1
  Cu  Cu113  1  0.83629264  0.16959003  0.75000647  1
  Cu  Cu114  1  0.17153151  0.15886588  0.24626452  1
  Se  Se115  1  0.08158147  0.07939693  0.04452676  1
  Se  Se116  1  0.08804266  0.09043405  0.55281226  1
  Se  Se117  1  0.08195393  0.40847124  0.06238396  1
  Se  Se118  1  0.08302727  0.41976550  0.55929327  1
  Se  Se119  1  0.08197710  0.73833884  0.03830476  1
  Se  Se120  1  0.08160304  0.74675360  0.56617137  1
  Se  Se121  1  0.41401983  0.07947090  0.04881473  1
  Se  Se122  1  0.42182008  0.08544590  0.55520475  1
  Se  Se123  1  0.42077631  0.42086584  0.04200754  1
  Se  Se124  1  0.41124416  0.41738032  0.55777443  1
  Se  Se125  1  0.41744479  0.74907645  0.04630173  1
  Se  Se126  1  0.41723458  0.75366177  0.55462165  1
  Se  Se127  1  0.74792827  0.08604206  0.04749851  1
  Se  Se128  1  0.75103543  0.07817158  0.55561843  1
  Se  Se129  1  0.75625558  0.42054918  0.04585058  1
  Se  Se130  1  0.72959742  0.40202593  0.55944310  1
  Se  Se131  1  0.73746158  0.74441503  0.05656988  1
  Se  Se132  1  0.75277600  0.73513794  0.57701010  1
  Se  Se133  1  0.25944457  0.25794537  0.04160730  1
  Se  Se134  1  0.24172314  0.24722046  0.55781239  1
  Se  Se135  1  0.26282257  0.58846894  0.05981637  1
  Se  Se136  1  0.24692087  0.58249924  0.55694916  1
  Se  Se137  1  0.24894728  0.91158046  0.04676650  1
  Se  Se138  1  0.25827592  0.92555038  0.56543568  1
  Se  Se139  1  0.58940910  0.25552795  0.04807429  1
  Se  Se140  1  0.58124280  0.25030642  0.54821359  1
  Se  Se141  1  0.58681795  0.58438162  0.04644604  1
  Se  Se142  1  0.57609814  0.58368352  0.55723938  1
  Se  Se143  1  0.57696796  0.91465918  0.04752971  1
  Se  Se144  1  0.58737778  0.90956057  0.55798509  1
  Se  Se145  1  0.92034484  0.25718457  0.04965630  1
  Se  Se146  1  0.91452846  0.25378457  0.55565888  1
  Se  Se147  1  0.91125577  0.57403643  0.04259317  1
  Se  Se148  1  0.91075793  0.57808636  0.56842829  1
  Se  Se149  1  0.91258354  0.92207193  0.06112416  1
  Se  Se150  1  0.92267720  0.92189325  0.56323499  1
  Se  Se151  1  0.07951427  0.25193091  0.45054845  1
  Se  Se152  1  0.08648298  0.25312408  0.94197909  1
  Se  Se153  1  0.08497369  0.58324672  0.45655733  1
  Se  Se154  1  0.07544929  0.57737531  0.93075201  1
  Se  Se155  1  0.07657885  0.92672613  0.44216908  1
  Se  Se156  1  0.07025531  0.91046101  0.95616800  1
  Se  Se157  1  0.39775224  0.25693743  0.44724330  1
  Se  Se158  1  0.43338994  0.23735843  0.94691374  1
  Se  Se159  1  0.41686138  0.58282798  0.45207932  1
  Se  Se160  1  0.42015184  0.58233310  0.93634328  1
  Se  Se161  1  0.41852729  0.91488885  0.44998049  1
  Se  Se162  1  0.41938661  0.91262593  0.94276913  1
  Se  Se163  1  0.76733282  0.23233673  0.44749596  1
  Se  Se164  1  0.75781818  0.24601417  0.94415666  1
  Se  Se165  1  0.75149291  0.58107641  0.46104645  1
  Se  Se166  1  0.75220611  0.58490079  0.93679937  1
  Se  Se167  1  0.74820631  0.92117844  0.43717059  1
  Se  Se168  1  0.73754097  0.91988176  0.93367981  1
  Se  Se169  1  0.24878854  0.08163653  0.44936920  1
  Se  Se170  1  0.24851526  0.08049420  0.94343482  1
  Se  Se171  1  0.23976454  0.42459753  0.45449839  1
  Se  Se172  1  0.25542909  0.41704193  0.93294936  1
  Se  Se173  1  0.26051665  0.74533397  0.44073987  1
  Se  Se174  1  0.24409041  0.74637308  0.94564710  1
  Se  Se175  1  0.58272319  0.07443648  0.44917756  1
  Se  Se176  1  0.58251496  0.08664248  0.94511241  1
  Se  Se177  1  0.55952508  0.43456425  0.45285804  1
  Se  Se178  1  0.58821458  0.42100926  0.94364482  1
  Se  Se179  1  0.58671903  0.75041078  0.45613868  1
  Se  Se180  1  0.57928889  0.75088061  0.93658703  1
  Se  Se181  1  0.91187448  0.08749663  0.45312323  1
  Se  Se182  1  0.92319383  0.07602964  0.94830273  1
  Se  Se183  1  0.91100847  0.42215674  0.45485005  1
  Se  Se184  1  0.91658714  0.41910916  0.94045774  1
  Se  Se185  1  0.92183993  0.73840690  0.45256702  1
  Se  Se186  1  0.90551490  0.73442905  0.93136290  1
  Se  Se187  1  0.24178608  0.24421322  0.30955185  1
  Se  Se188  1  0.26015332  0.25517437  0.80285332  1
  Se  Se189  1  0.25049987  0.57742945  0.31652165  1
  Se  Se190  1  0.25237694  0.58166398  0.79972260  1
  Se  Se191  1  0.26376203  0.92606839  0.29533080  1
  Se  Se192  1  0.23622105  0.91331174  0.81927703  1
  Se  Se193  1  0.57808426  0.25206547  0.31326731  1
  Se  Se194  1  0.58365076  0.24797138  0.81001086  1
  Se  Se195  1  0.58187358  0.57289516  0.31312631  1
  Se  Se196  1  0.60016436  0.59354341  0.79483404  1
  Se  Se197  1  0.57875953  0.90863930  0.31386230  1
  Se  Se198  1  0.57809171  0.92517390  0.79920651  1
  Se  Se199  1  0.90927533  0.25251320  0.31095347  1
  Se  Se200  1  0.92370301  0.24733372  0.80246874  1
  Se  Se201  1  0.90374893  0.56996403  0.31187327  1
  Se  Se202  1  0.92066122  0.59293128  0.79273746  1
  Se  Se203  1  0.92755255  0.91583604  0.30673523  1
  Se  Se204  1  0.91332593  0.91224687  0.81426277  1
  Se  Se205  1  0.08769527  0.08805900  0.31081301  1
  Se  Se206  1  0.09372400  0.09107547  0.80934518  1
  Se  Se207  1  0.08590369  0.42139018  0.31477057  1
  Se  Se208  1  0.08028752  0.41149712  0.79814409  1
  Se  Se209  1  0.10368579  0.76681491  0.30684103  1
  Se  Se210  1  0.08051348  0.74662644  0.80574822  1
  Se  Se211  1  0.41708696  0.08627622  0.30117747  1
  Se  Se212  1  0.42348154  0.09724411  0.81192538  1
  Se  Se213  1  0.42288699  0.42000424  0.30856603  1
  Se  Se214  1  0.42250086  0.40610676  0.79987783  1
  Se  Se215  1  0.42635521  0.75158695  0.31286565  1
  Se  Se216  1  0.41333350  0.75001025  0.80287542  1
  Se  Se217  1  0.75214158  0.09410766  0.31146636  1
  Se  Se218  1  0.75168841  0.08612736  0.80059250  1
  Se  Se219  1  0.73976851  0.41520676  0.31225910  1
  Se  Se220  1  0.75574837  0.41635577  0.80656922  1
  Se  Se221  1  0.76538799  0.75381064  0.30625348  1
  Se  Se222  1  0.75678167  0.76926884  0.79276478  1
  Se  Se223  1  0.25670540  0.08362946  0.18966356  1
  Se  Se224  1  0.25346364  0.08837409  0.69402231  1
  Se  Se225  1  0.24440574  0.41927348  0.19278516  1
  Se  Se226  1  0.25225232  0.41635569  0.69680041  1
  Se  Se227  1  0.24966144  0.75237655  0.18132970  1
  Se  Se228  1  0.24923721  0.75234004  0.70463926  1
  Se  Se229  1  0.57939698  0.09100037  0.18476233  1
  Se  Se230  1  0.59010607  0.08512974  0.69520171  1
  Se  Se231  1  0.58896900  0.41203699  0.19067052  1
  Se  Se232  1  0.56432969  0.42499545  0.69366967  1
  Se  Se233  1  0.57514474  0.75496310  0.18985015  1
  Se  Se234  1  0.57684010  0.75385928  0.69592155  1
  Se  Se235  1  0.90490485  0.10205029  0.19023251  1
  Se  Se236  1  0.91720823  0.08986951  0.68712891  1
  Se  Se237  1  0.90809162  0.42597664  0.18667577  1
  Se  Se238  1  0.90713183  0.41878974  0.70210302  1
  Se  Se239  1  0.91971162  0.75244298  0.18625628  1
  Se  Se240  1  0.90611837  0.75044361  0.70993225  1
  Se  Se241  1  0.08745087  0.23947038  0.19069895  1
  Se  Se242  1  0.08597993  0.25106512  0.69994700  1
  Se  Se243  1  0.09080764  0.57664563  0.19664421  1
  Se  Se244  1  0.08242252  0.58283323  0.69924064  1
  Se  Se245  1  0.09570655  0.91114379  0.17870632  1
  Se  Se246  1  0.08844535  0.90830978  0.69055050  1
  Se  Se247  1  0.42581412  0.24538482  0.17883442  1
  Se  Se248  1  0.42154037  0.25097147  0.69472613  1
  Se  Se249  1  0.42724248  0.57542486  0.19145101  1
  Se  Se250  1  0.40179849  0.59825560  0.69728024  1
  Se  Se251  1  0.41676219  0.91896717  0.19356140  1
  Se  Se252  1  0.41772821  0.91945354  0.69091071  1
  Se  Se253  1  0.74096302  0.26075110  0.19430188  1
  Se  Se254  1  0.75655721  0.24254085  0.68535133  1
  Se  Se255  1  0.75538319  0.57665488  0.18597975  1
  Se  Se256  1  0.72114052  0.58419603  0.70556312  1
  Se  Se257  1  0.75659581  0.90950427  0.19552114  1
  Se  Se258  1  0.75724693  0.91084520  0.70666646  1
