# generated using pymatgen
data_In86Cu29Se144
_symmetry_space_group_name_H-M   'P 1'
_cell_length_a   17.55864408
_cell_length_b   17.55607469
_cell_length_c   23.41062865
_cell_angle_alpha   89.99918690
_cell_angle_beta   89.98834799
_cell_angle_gamma   90.01034331
_symmetry_Int_Tables_number   1
_chemical_formula_structural   In86Cu29Se144
_chemical_formula_sum   'In86 Cu29 Se144'
_cell_volume   7216.58041401
_cell_formula_units_Z   1
loop_
 _symmetry_equiv_pos_site_id
 _symmetry_equiv_pos_as_xyz
  1  'x, y, z'
loop_
 _atom_site_type_symbol
 _atom_site_label
 _atom_site_symmetry_multiplicity
 _atom_site_fract_x
 _atom_site_fract_y
 _atom_site_fract_z
 _atom_site_occupancy
  In  In0  1  -0.01721157  0.17170523  0.12902497  1
  In  In1  1  -0.00308885  0.14988269  0.62872161  1
  In  In2  1  -0.00476755  0.51162231  0.13232092  1
  In  In3  1  0.01207697  0.51434176  0.61872519  1
  In  In4  1  0.00006169  0.83575636  0.13092155  1
  In  In5  1  -0.00174918  0.83157469  0.62295919  1
  In  In6  1  0.33396055  0.16798373  0.13631231  1
  In  In7  1  0.33399638  0.16670579  0.61875296  1
  In  In8  1  0.33657531  0.49811843  0.14679242  1
  In  In9  1  0.32401083  0.49333361  0.61154828  1
  In  In10  1  0.32971364  0.83620415  0.14572334  1
  In  In11  1  0.33621863  0.83926499  0.61190483  1
  In  In12  1  0.67799888  0.17317074  0.12520670  1
  In  In13  1  0.66703569  0.19639542  0.62180303  1
  In  In14  1  0.66889667  0.49304400  0.13325512  1
  In  In15  1  0.64770890  0.47501266  0.59354676  1
  In  In16  1  0.67410109  0.81905519  0.13039247  1
  In  In17  1  0.65891427  0.81662007  0.60639931  1
  In  In18  1  0.16633308  -0.00343911  0.37795214  1
  In  In19  1  0.16565479  0.00406137  0.85762442  1
  In  In20  1  0.17630474  0.31775430  0.38856055  1
  In  In21  1  0.16761253  0.32843410  0.86485453  1
  In  In22  1  0.16881108  0.66981469  0.38368750  1
  In  In23  1  0.16273457  0.68306310  0.86981157  1
  In  In24  1  0.49413875  0.00965087  0.38243795  1
  In  In25  1  0.50082488  0.00806056  0.86382228  1
  In  In26  1  0.50349236  0.34096117  0.38097721  1
  In  In27  1  0.49850131  0.33148164  0.85873007  1
  In  In28  1  0.48492100  0.67298707  0.39745847  1
  In  In29  1  0.49732923  0.65392185  0.87032206  1
  In  In30  1  0.83269460  -0.01473975  0.37185861  1
  In  In31  1  0.84615540  -0.00913293  0.87883222  1
  In  In32  1  0.83210906  0.35621329  0.37111118  1
  In  In33  1  0.82274282  0.33854610  0.87815447  1
  In  In34  1  0.84167097  0.65296686  0.38119047  1
  In  In35  1  0.84396703  0.65998599  0.87526352  1
  In  In36  1  0.01466268  0.16635759  0.37784625  1
  In  In37  1  -0.00172586  0.15574235  0.87083392  1
  In  In38  1  -0.00714781  0.51137596  0.38106289  1
  In  In39  1  -0.01686972  0.49072798  0.86566309  1
  In  In40  1  0.00227804  0.83107280  0.37438845  1
  In  In41  1  -0.00649604  0.82511468  0.86348822  1
  In  In42  1  0.33396980  0.16546875  0.37567646  1
  In  In43  1  0.33609517  0.16752044  0.85821856  1
  In  In44  1  0.33520306  0.50204250  0.38657547  1
  In  In45  1  0.34672800  0.49497249  0.86752892  1
  In  In46  1  0.32458436  0.83027475  0.38650815  1
  In  In47  1  0.32117178  0.83448229  0.86804801  1
  In  In48  1  0.65260781  0.17910309  0.38226737  1
  In  In49  1  0.66883480  0.17855648  0.86882276  1
  In  In50  1  0.67963841  0.48615234  0.39725753  1
  In  In51  1  0.67850769  0.49780680  0.87006233  1
  In  In52  1  0.67672492  0.81577977  0.39845184  1
  In  In53  1  0.67550216  0.84824716  0.87082038  1
  In  In54  1  0.16945802  -0.00413777  0.13679122  1
  In  In55  1  0.16449759  0.00213972  0.61992634  1
  In  In56  1  0.17249617  0.34380111  0.13144581  1
  In  In57  1  0.18311278  0.35022100  0.61462786  1
  In  In58  1  0.16235306  0.66841616  0.14627866  1
  In  In59  1  0.15973782  0.65371013  0.60589169  1
  In  In60  1  0.49403327  -0.00671339  0.13366831  1
  In  In61  1  0.48362762  -0.00819848  0.61466705  1
  In  In62  1  0.49993206  0.33407864  0.13725880  1
  In  In63  1  0.50309791  0.32038382  0.61555728  1
  In  In64  1  0.49937853  0.65968949  0.13925930  1
  In  In65  1  0.48867809  0.64806330  0.58831320  1
  In  In66  1  0.84523488  0.00200493  0.12648165  1
  In  In67  1  0.84457300  -0.00005302  0.62900993  1
  In  In68  1  0.82129984  0.33324565  0.12151518  1
  In  In69  1  0.81424027  0.33263074  0.62782095  1
  In  In70  1  0.83986278  0.67315289  0.12257566  1
  In  In71  1  0.83574413  0.67032977  0.61705067  1
  In  In72  1  0.15739731  0.83733247  0.00127984  1
  In  In73  1  0.83620570  0.16815041  0.50678084  1
  In  In74  1  0.16122293  0.16472638  -0.00275767  1
  In  In75  1  0.16016127  0.49996915  0.00023606  1
  In  In76  1  0.65682346  0.00422108  0.25686709  1
  In  In77  1  0.32410727  0.65929502  0.73022609  1
  In  In78  1  0.66905711  0.66551107  0.73441097  1
  In  In79  1  0.66578470  0.00132745  0.74053977  1
  In  In80  1  0.00620346  0.33585236  0.74593207  1
  In  In81  1  0.65898056  0.66035121  0.26660878  1
  In  In82  1  0.51461196  0.49549580  0.00095902  1
  In  In83  1  0.51173041  0.83326348  0.00343356  1
  In  In84  1  0.51020459  0.16871794  0.00306773  1
  In  In85  1  0.00573927  0.33242364  0.25223454  1
  Cu  Cu86  1  -0.00161027  -0.00712973  0.50028492  1
  Cu  Cu87  1  0.17142723  0.49756651  0.26482693  1
  Cu  Cu88  1  0.83522364  0.83041729  0.74256267  1
  Cu  Cu89  1  0.48983035  0.82551520  0.73435071  1
  Cu  Cu90  1  0.49414257  0.16425141  0.74028620  1
  Cu  Cu91  1  0.67693389  0.67282294  -0.00107120  1
  Cu  Cu92  1  0.17022110  0.82662210  0.26251072  1
  Cu  Cu93  1  -0.00064449  0.33968729  0.50205325  1
  Cu  Cu94  1  0.33483719  -0.00354555  -0.00536274  1
  Cu  Cu95  1  0.49452724  0.17703383  0.25966325  1
  Cu  Cu96  1  -0.00255821  0.67058659  0.49813747  1
  Cu  Cu97  1  -0.00374413  -0.00298193  0.00215290  1
  Cu  Cu98  1  0.66742013  0.00141470  0.50170354  1
  Cu  Cu99  1  0.32603328  0.00602572  0.49687807  1
  Cu  Cu100  1  -0.00538291  0.66393268  -0.00265380  1
  Cu  Cu101  1  0.17225471  0.15851848  0.25811719  1
  Cu  Cu102  1  0.33857159  0.33418645  -0.00012317  1
  Cu  Cu103  1  0.49342526  0.50567442  0.26504808  1
  Cu  Cu104  1  0.16326407  0.84227966  0.74197783  1
  Cu  Cu105  1  0.17403570  0.17062035  0.74013318  1
  Cu  Cu106  1  0.68294148  0.00014103  -0.00009623  1
  Cu  Cu107  1  0.33137986  0.66398860  0.01680102  1
  Cu  Cu108  1  0.33971249  0.33079594  0.49711571  1
  Cu  Cu109  1  0.50421807  0.48504350  0.73448542  1
  Cu  Cu110  1  0.49267250  0.83902361  0.27039755  1
  Cu  Cu111  1  0.84132362  0.83042192  0.25081694  1
  Cu  Cu112  1  0.83072242  0.50364225  0.74408805  1
  Cu  Cu113  1  0.83250529  0.16747847  0.25122652  1
  Cu  Cu114  1  -0.01490295  0.33449818  -0.00001816  1
  Se  Se115  1  0.07840786  0.07550946  0.06385933  1
  Se  Se116  1  0.07753878  0.08324060  0.55053311  1
  Se  Se117  1  0.07106194  0.40741969  0.06142167  1
  Se  Se118  1  0.08768522  0.42424761  0.54990503  1
  Se  Se119  1  0.08109826  0.73531662  0.06143182  1
  Se  Se120  1  0.08159369  0.75456017  0.55011973  1
  Se  Se121  1  0.41091721  0.07769770  0.05828486  1
  Se  Se122  1  0.41631061  0.08758325  0.54646350  1
  Se  Se123  1  0.41147449  0.41698018  0.06294910  1
  Se  Se124  1  0.42125951  0.41410810  0.55220179  1
  Se  Se125  1  0.41549053  0.74987105  0.06840043  1
  Se  Se126  1  0.41864278  0.75995151  0.54126781  1
  Se  Se127  1  0.75646345  0.08323724  0.06050745  1
  Se  Se128  1  0.74264207  0.07963226  0.56597905  1
  Se  Se129  1  0.74519625  0.42505548  0.05609430  1
  Se  Se130  1  0.76349154  0.41264412  0.54457077  1
  Se  Se131  1  0.75717573  0.75698966  0.05281401  1
  Se  Se132  1  0.76053616  0.75353805  0.54436465  1
  Se  Se133  1  0.25497265  0.25480499  0.05838637  1
  Se  Se134  1  0.25111584  0.25071740  0.55007055  1
  Se  Se135  1  0.24981760  0.58112211  0.07097639  1
  Se  Se136  1  0.27333512  0.60268151  0.54504216  1
  Se  Se137  1  0.25959230  0.91867861  0.06059568  1
  Se  Se138  1  0.24383989  0.91959228  0.54842247  1
  Se  Se139  1  0.59103966  0.26669529  0.06053594  1
  Se  Se140  1  0.58506176  0.24649851  0.54024971  1
  Se  Se141  1  0.59144825  0.59898776  0.06156628  1
  Se  Se142  1  0.61407276  0.60164298  0.54254421  1
  Se  Se143  1  0.59874405  0.92725792  0.06514836  1
  Se  Se144  1  0.58025074  0.91763209  0.55082318  1
  Se  Se145  1  0.90750488  0.24805290  0.05470692  1
  Se  Se146  1  0.92608002  0.25890541  0.56686529  1
  Se  Se147  1  0.91572913  0.58097752  0.05451685  1
  Se  Se148  1  0.91692180  0.58181599  0.55023107  1
  Se  Se149  1  0.91810913  0.91053832  0.05717096  1
  Se  Se150  1  0.91175466  0.91454414  0.55420446  1
  Se  Se151  1  0.08020877  0.24736531  0.45566294  1
  Se  Se152  1  0.07289640  0.26171079  0.93956343  1
  Se  Se153  1  0.08324655  0.58329154  0.44993050  1
  Se  Se154  1  0.07648408  0.58860901  0.93427751  1
  Se  Se155  1  0.08382354  0.91172094  0.44604704  1
  Se  Se156  1  0.07785831  0.92755945  0.93391151  1
  Se  Se157  1  0.42075566  0.24678436  0.44269761  1
  Se  Se158  1  0.41375836  0.25140138  0.93762560  1
  Se  Se159  1  0.40728055  0.58224434  0.46503782  1
  Se  Se160  1  0.40872814  0.58668185  0.94979774  1
  Se  Se161  1  0.41211450  0.92178442  0.44684930  1
  Se  Se162  1  0.41763087  0.91761855  0.93686700  1
  Se  Se163  1  0.75572255  0.25686553  0.43964849  1
  Se  Se164  1  0.74547301  0.24871893  0.94458823  1
  Se  Se165  1  0.73212802  0.60638263  0.44850452  1
  Se  Se166  1  0.75020501  0.58521054  0.94113988  1
  Se  Se167  1  0.75558636  0.91972239  0.45182645  1
  Se  Se168  1  0.75961640  0.91011135  0.94809811  1
  Se  Se169  1  0.24314999  0.08951516  0.44351960  1
  Se  Se170  1  0.25648309  0.07891133  0.93534078  1
  Se  Se171  1  0.24848442  0.41562556  0.45160840  1
  Se  Se172  1  0.25629141  0.41117298  0.93959001  1
  Se  Se173  1  0.25243792  0.74226371  0.45820798  1
  Se  Se174  1  0.25898301  0.74348380  0.94894351  1
  Se  Se175  1  0.58412595  0.08613370  0.45024123  1
  Se  Se176  1  0.59302644  0.07153743  0.94000302  1
  Se  Se177  1  0.58124983  0.41469009  0.45869657  1
  Se  Se178  1  0.58939733  0.40362515  0.93351448  1
  Se  Se179  1  0.56521927  0.76732760  0.45887182  1
  Se  Se180  1  0.59138635  0.74168778  0.93362083  1
  Se  Se181  1  0.91933882  0.07708513  0.44013111  1
  Se  Se182  1  0.91822656  0.08467484  0.94734260  1
  Se  Se183  1  0.91510983  0.42064232  0.44864373  1
  Se  Se184  1  0.90922810  0.42274367  0.94539792  1
  Se  Se185  1  0.91423064  0.75273745  0.44312677  1
  Se  Se186  1  0.91846056  0.75296092  0.94259006  1
  Se  Se187  1  0.25008808  0.25017727  0.30698836  1
  Se  Se188  1  0.25463444  0.25634813  0.79427087  1
  Se  Se189  1  0.25339571  0.58427851  0.31550268  1
  Se  Se190  1  0.24929523  0.58356989  0.81180310  1
  Se  Se191  1  0.25342622  0.91487550  0.31065835  1
  Se  Se192  1  0.25370384  0.92016204  0.79422085  1
  Se  Se193  1  0.58410393  0.26023764  0.30556143  1
  Se  Se194  1  0.58093901  0.24381421  0.79415070  1
  Se  Se195  1  0.57033586  0.57816455  0.33123432  1
  Se  Se196  1  0.57791966  0.57122224  0.79714776  1
  Se  Se197  1  0.58706012  0.90862033  0.32515784  1
  Se  Se198  1  0.57210071  0.90303585  0.79726713  1
  Se  Se199  1  0.91255971  0.24574927  0.31452469  1
  Se  Se200  1  0.91589578  0.25358911  0.81130783  1
  Se  Se201  1  0.90725002  0.57178534  0.30423305  1
  Se  Se202  1  0.91689327  0.58575010  0.79611078  1
  Se  Se203  1  0.92381279  0.91683323  0.30200787  1
  Se  Se204  1  0.91474596  0.91542819  0.79797752  1
  Se  Se205  1  0.08225271  0.07754507  0.30568450  1
  Se  Se206  1  0.08391010  0.09210077  0.79357784  1
  Se  Se207  1  0.08983928  0.41449853  0.32137757  1
  Se  Se208  1  0.09554354  0.43192443  0.80355252  1
  Se  Se209  1  0.08266858  0.74084794  0.30885557  1
  Se  Se210  1  0.08300945  0.75236680  0.79339516  1
  Se  Se211  1  0.41660872  0.08252337  0.30500391  1
  Se  Se212  1  0.41295832  0.07659303  0.79226924  1
  Se  Se213  1  0.41097992  0.41677815  0.31399961  1
  Se  Se214  1  0.41385126  0.41257016  0.79082196  1
  Se  Se215  1  0.41271404  0.74809386  0.31797891  1
  Se  Se216  1  0.41559628  0.74632101  0.80236651  1
  Se  Se217  1  0.75163655  0.09212606  0.31525553  1
  Se  Se218  1  0.75222679  0.07644495  0.81231524  1
  Se  Se219  1  0.74128634  0.43034925  0.30613632  1
  Se  Se220  1  0.75195739  0.41544317  0.79709531  1
  Se  Se221  1  0.75715635  0.75668127  0.31250116  1
  Se  Se222  1  0.75254497  0.75311045  0.80410014  1
  Se  Se223  1  0.25669886  0.07737671  0.20167542  1
  Se  Se224  1  0.25286742  0.08157971  0.68827194  1
  Se  Se225  1  0.25089288  0.41101157  0.20945986  1
  Se  Se226  1  0.24677175  0.43271572  0.69241643  1
  Se  Se227  1  0.25684027  0.74217523  0.21039487  1
  Se  Se228  1  0.23873105  0.75981245  0.67868378  1
  Se  Se229  1  0.57244364  0.09852885  0.19272456  1
  Se  Se230  1  0.57605819  0.08675451  0.67821342  1
  Se  Se231  1  0.57331533  0.42873723  0.20246457  1
  Se  Se232  1  0.59173629  0.40617135  0.68243429  1
  Se  Se233  1  0.57370687  0.76204225  0.20528012  1
  Se  Se234  1  0.56450931  0.74155174  0.67629804  1
  Se  Se235  1  0.91801582  0.08210309  0.20281149  1
  Se  Se236  1  0.90686728  0.08918762  0.70210755  1
  Se  Se237  1  0.91038293  0.41604200  0.19315717  1
  Se  Se238  1  0.91547895  0.42436665  0.68444427  1
  Se  Se239  1  0.92254824  0.74519213  0.19752513  1
  Se  Se240  1  0.91805722  0.74381514  0.69194737  1
  Se  Se241  1  0.09543069  0.23738359  0.19154173  1
  Se  Se242  1  0.09334707  0.24967535  0.68019305  1
  Se  Se243  1  0.08386665  0.57416976  0.20768879  1
  Se  Se244  1  0.09980619  0.58296848  0.69085398  1
  Se  Se245  1  0.08970634  0.90726464  0.20126791  1
  Se  Se246  1  0.07664964  0.92338740  0.68958595  1
  Se  Se247  1  0.40930112  0.25783730  0.20312621  1
  Se  Se248  1  0.41346775  0.25257842  0.68890242  1
  Se  Se249  1  0.41206463  0.59165771  0.21151164  1
  Se  Se250  1  0.42904769  0.57534159  0.67865456  1
  Se  Se251  1  0.41605584  0.92152815  0.20976040  1
  Se  Se252  1  0.40660169  0.91742986  0.69184556  1
  Se  Se253  1  0.75028129  0.25334344  0.20056163  1
  Se  Se254  1  0.76442471  0.23167459  0.69910765  1
  Se  Se255  1  0.75019190  0.59073384  0.19399650  1
  Se  Se256  1  0.74926012  0.56937309  0.67536998  1
  Se  Se257  1  0.75170395  0.91252646  0.19743310  1
  Se  Se258  1  0.74682488  0.90022368  0.68245531  1
