# generated using pymatgen
data_In86Cu29Se144
_symmetry_space_group_name_H-M   'P 1'
_cell_length_a   17.60082793
_cell_length_b   17.59674980
_cell_length_c   23.45895933
_cell_angle_alpha   90.02085113
_cell_angle_beta   90.00705835
_cell_angle_gamma   89.99595922
_symmetry_Int_Tables_number   1
_chemical_formula_structural   In86Cu29Se144
_chemical_formula_sum   'In86 Cu29 Se144'
_cell_volume   7265.64652288
_cell_formula_units_Z   1
loop_
 _symmetry_equiv_pos_site_id
 _symmetry_equiv_pos_as_xyz
  1  'x, y, z'
loop_
 _atom_site_type_symbol
 _atom_site_label
 _atom_site_symmetry_multiplicity
 _atom_site_fract_x
 _atom_site_fract_y
 _atom_site_fract_z
 _atom_site_occupancy
  In  In0  1  -0.00083286  0.16844851  0.11294725  1
  In  In1  1  -0.00243117  0.16424062  0.62746147  1
  In  In2  1  -0.00426303  0.51394481  0.12575268  1
  In  In3  1  0.00163581  0.50326838  0.62869313  1
  In  In4  1  -0.00962731  0.83159347  0.13092010  1
  In  In5  1  0.00032730  0.83542435  0.63163886  1
  In  In6  1  0.33454565  0.17150822  0.12341563  1
  In  In7  1  0.31567630  0.16308990  0.62397366  1
  In  In8  1  0.31425648  0.49386305  0.12979062  1
  In  In9  1  0.32376047  0.51829029  0.61870475  1
  In  In10  1  0.32478563  0.82902973  0.12924849  1
  In  In11  1  0.34419119  0.83896615  0.61408136  1
  In  In12  1  0.67081801  0.16537363  0.12875052  1
  In  In13  1  0.68708384  0.14878136  0.63132332  1
  In  In14  1  0.67375721  0.49604009  0.12826763  1
  In  In15  1  0.67295046  0.49580404  0.62626175  1
  In  In16  1  0.67179426  0.83654280  0.13610279  1
  In  In17  1  0.66787025  0.83108339  0.61828773  1
  In  In18  1  0.17098854  -0.00324221  0.38856082  1
  In  In19  1  0.17311044  0.00751526  0.85876240  1
  In  In20  1  0.16981916  0.32456925  0.38038248  1
  In  In21  1  0.14043712  0.33065451  0.86812349  1
  In  In22  1  0.15288360  0.67470623  0.39168155  1
  In  In23  1  0.15898432  0.67038739  0.86048899  1
  In  In24  1  0.50825487  -0.01358301  0.38221342  1
  In  In25  1  0.49935184  -0.00013519  0.86480539  1
  In  In26  1  0.50404498  0.33485607  0.36677329  1
  In  In27  1  0.50482763  0.32239518  0.87425768  1
  In  In28  1  0.52087538  0.67265224  0.38413402  1
  In  In29  1  0.51383844  0.66250296  0.87411466  1
  In  In30  1  0.81867771  0.00077144  0.39748414  1
  In  In31  1  0.84335658  0.00754232  0.86508233  1
  In  In32  1  0.82318704  0.34336721  0.38194136  1
  In  In33  1  0.83305436  0.33742876  0.87249246  1
  In  In34  1  0.82818695  0.66250198  0.38090445  1
  In  In35  1  0.83646022  0.66384544  0.86790359  1
  In  In36  1  0.00202316  0.16050128  0.38535463  1
  In  In37  1  -0.00470738  0.17023096  0.87399021  1
  In  In38  1  -0.01759247  0.51165424  0.38651188  1
  In  In39  1  -0.01084164  0.48178387  0.85199762  1
  In  In40  1  0.00585237  0.82659490  0.38579711  1
  In  In41  1  0.00913343  0.83192708  0.84593779  1
  In  In42  1  0.32461971  0.16598747  0.37617040  1
  In  In43  1  0.32502512  0.14714759  0.87101533  1
  In  In44  1  0.33529488  0.48474282  0.37633027  1
  In  In45  1  0.33256842  0.50549238  0.87706426  1
  In  In46  1  0.33561993  0.82072546  0.39611182  1
  In  In47  1  0.32661650  0.84854639  0.86519587  1
  In  In48  1  0.66932252  0.16699828  0.37469707  1
  In  In49  1  0.67620435  0.17716837  0.86439924  1
  In  In50  1  0.67293062  0.50773959  0.37030601  1
  In  In51  1  0.69266221  0.52319988  0.86232198  1
  In  In52  1  0.67109345  0.83170700  0.38376018  1
  In  In53  1  0.66885103  0.83173436  0.86489647  1
  In  In54  1  0.15429207  -0.00234435  0.12107580  1
  In  In55  1  0.16143334  -0.00231798  0.63410802  1
  In  In56  1  0.17038979  0.33007180  0.12806499  1
  In  In57  1  0.15722730  0.33225892  0.62489359  1
  In  In58  1  0.15711445  0.65843782  0.13004913  1
  In  In59  1  0.16464450  0.65875997  0.61326582  1
  In  In60  1  0.50601209  0.01091977  0.12624592  1
  In  In61  1  0.51478410  -0.01605190  0.62779317  1
  In  In62  1  0.49815797  0.33044823  0.13235547  1
  In  In63  1  0.51148891  0.34266134  0.62537274  1
  In  In64  1  0.50874157  0.67674370  0.12785542  1
  In  In65  1  0.49950911  0.67961452  0.61652662  1
  In  In66  1  0.82457142  0.00018801  0.12546031  1
  In  In67  1  0.83178132  -0.00014033  0.62065508  1
  In  In68  1  0.82361635  0.32574158  0.11972587  1
  In  In69  1  0.83750789  0.33252862  0.62443744  1
  In  In70  1  0.83709008  0.66583668  0.13178442  1
  In  In71  1  0.82748365  0.67146203  0.61749303  1
  In  In72  1  0.15951051  0.49752933  -0.00142281  1
  In  In73  1  -0.00441429  -0.00661758  0.25532908  1
  In  In74  1  0.33846826  -0.00154521  0.25470627  1
  In  In75  1  0.33785471  0.33445278  0.74292762  1
  In  In76  1  0.50037567  0.16532559  0.00297409  1
  In  In77  1  0.16674907  0.83923609  -0.01166316  1
  In  In78  1  0.83579003  0.83574347  -0.00421016  1
  In  In79  1  0.50189110  0.16590334  0.49720780  1
  In  In80  1  0.50165947  0.50698437  0.50259425  1
  In  In81  1  0.50963153  0.49012843  0.01306917  1
  In  In82  1  -0.00633428  0.33534357  0.25598214  1
  In  In83  1  0.33427294  0.67365961  0.74436246  1
  In  In84  1  0.34167786  0.65394740  0.26372113  1
  In  In85  1  0.50596311  0.83804382  -0.01508234  1
  Cu  Cu86  1  0.66878562  0.00710156  0.00045579  1
  Cu  Cu87  1  0.50326766  0.16400628  0.74668593  1
  Cu  Cu88  1  0.50997154  0.50133235  0.75017956  1
  Cu  Cu89  1  0.32520448  0.33431720  0.50301137  1
  Cu  Cu90  1  0.67331179  0.34233878  -0.00518328  1
  Cu  Cu91  1  0.83405088  0.17084833  0.74900570  1
  Cu  Cu92  1  0.83537143  0.50236679  0.74120371  1
  Cu  Cu93  1  0.00013382  0.66913133  -0.00189909  1
  Cu  Cu94  1  0.16862110  0.82352694  0.26406242  1
  Cu  Cu95  1  0.16204236  0.16921194  0.74702839  1
  Cu  Cu96  1  0.00463374  0.00075093  0.50995422  1
  Cu  Cu97  1  0.50799996  0.16686171  0.25040202  1
  Cu  Cu98  1  0.51223642  0.83405863  0.25490690  1
  Cu  Cu99  1  0.83039545  0.16010600  0.25518047  1
  Cu  Cu100  1  -0.00420109  0.66277738  0.50884911  1
  Cu  Cu101  1  0.50486015  0.83426773  0.74299766  1
  Cu  Cu102  1  0.00263648  0.00734752  -0.01004871  1
  Cu  Cu103  1  0.82437957  0.83259047  0.73888257  1
  Cu  Cu104  1  0.83155026  0.82661618  0.25990539  1
  Cu  Cu105  1  0.32033883  0.32408942  0.00093440  1
  Cu  Cu106  1  0.32544634  0.01243943  0.50700566  1
  Cu  Cu107  1  0.00087200  0.33309408  0.50374289  1
  Cu  Cu108  1  -0.00863536  0.33245507  -0.00634322  1
  Cu  Cu109  1  0.82848162  0.50012280  0.25477261  1
  Cu  Cu110  1  0.50213628  0.49863500  0.25205936  1
  Cu  Cu111  1  0.15854320  0.49953715  0.25539227  1
  Cu  Cu112  1  0.67219892  0.33099220  0.50062046  1
  Cu  Cu113  1  0.33831278  0.67157953  -0.00317595  1
  Cu  Cu114  1  0.17110427  0.16690847  0.25285357  1
  Se  Se115  1  0.08586650  0.08399549  0.04903249  1
  Se  Se116  1  0.08849172  0.08557276  0.56052711  1
  Se  Se117  1  0.07014461  0.40764281  0.06143332  1
  Se  Se118  1  0.08206536  0.42010346  0.55584506  1
  Se  Se119  1  0.08035718  0.74994601  0.05773200  1
  Se  Se120  1  0.07716783  0.75253118  0.55713420  1
  Se  Se121  1  0.40619234  0.07112740  0.05593013  1
  Se  Se122  1  0.41796291  0.08071766  0.56519497  1
  Se  Se123  1  0.39984898  0.40521576  0.06051597  1
  Se  Se124  1  0.40860939  0.41225245  0.56057921  1
  Se  Se125  1  0.41463452  0.75313940  0.05576812  1
  Se  Se126  1  0.40277024  0.73673473  0.54747096  1
  Se  Se127  1  0.75167087  0.08794749  0.05498928  1
  Se  Se128  1  0.75230379  0.08210123  0.54840746  1
  Se  Se129  1  0.75444036  0.42248447  0.05270527  1
  Se  Se130  1  0.75260200  0.41549233  0.55498994  1
  Se  Se131  1  0.74877387  0.75267907  0.06194195  1
  Se  Se132  1  0.76318315  0.76728662  0.54563335  1
  Se  Se133  1  0.24032824  0.24233341  0.05590499  1
  Se  Se134  1  0.24336684  0.25109974  0.55568636  1
  Se  Se135  1  0.25461722  0.59426656  0.05537373  1
  Se  Se136  1  0.25230357  0.58790205  0.54080780  1
  Se  Se137  1  0.25569746  0.92072988  0.05806779  1
  Se  Se138  1  0.24688133  0.92498425  0.55938165  1
  Se  Se139  1  0.59129493  0.26305210  0.05627673  1
  Se  Se140  1  0.59187226  0.25161499  0.56047529  1
  Se  Se141  1  0.59452367  0.59492348  0.05962707  1
  Se  Se142  1  0.59808345  0.59390175  0.55675592  1
  Se  Se143  1  0.59097116  0.92216440  0.05753710  1
  Se  Se144  1  0.56863643  0.89580542  0.54872994  1
  Se  Se145  1  0.91055858  0.24955786  0.04982794  1
  Se  Se146  1  0.91777133  0.24727743  0.55519029  1
  Se  Se147  1  0.91556379  0.59100119  0.05375680  1
  Se  Se148  1  0.91123407  0.57701562  0.55774613  1
  Se  Se149  1  0.92820063  0.92862413  0.05699114  1
  Se  Se150  1  0.92005015  0.91432828  0.55718806  1
  Se  Se151  1  0.08343753  0.24824042  0.44970189  1
  Se  Se152  1  0.08044639  0.24903155  0.94677340  1
  Se  Se153  1  0.07878760  0.57796857  0.45423075  1
  Se  Se154  1  0.07853040  0.59028288  0.93615989  1
  Se  Se155  1  0.08421316  0.91598056  0.45271447  1
  Se  Se156  1  0.07107459  0.92033281  0.92878671  1
  Se  Se157  1  0.41083875  0.26112322  0.44193241  1
  Se  Se158  1  0.40521366  0.25111028  0.94021003  1
  Se  Se159  1  0.41393542  0.58853171  0.43531138  1
  Se  Se160  1  0.42103208  0.58528738  0.94701024  1
  Se  Se161  1  0.40325998  0.93203811  0.44733868  1
  Se  Se162  1  0.40581877  0.93037552  0.94009645  1
  Se  Se163  1  0.75175184  0.24534858  0.44614882  1
  Se  Se164  1  0.74968011  0.25262190  0.94175192  1
  Se  Se165  1  0.74773094  0.57553187  0.44787251  1
  Se  Se166  1  0.75946469  0.59077082  0.94437687  1
  Se  Se167  1  0.76588770  0.89000626  0.45942379  1
  Se  Se168  1  0.74416749  0.92625786  0.93715766  1
  Se  Se169  1  0.24475546  0.09478572  0.45118649  1
  Se  Se170  1  0.24096949  0.07585024  0.94163824  1
  Se  Se171  1  0.24537793  0.41717531  0.44766755  1
  Se  Se172  1  0.25001080  0.40693354  0.93722687  1
  Se  Se173  1  0.23665021  0.75561985  0.45830661  1
  Se  Se174  1  0.25775198  0.74175214  0.93271892  1
  Se  Se175  1  0.59620862  0.07181047  0.44775232  1
  Se  Se176  1  0.58816630  0.08213802  0.93679932  1
  Se  Se177  1  0.58680681  0.41032918  0.44302905  1
  Se  Se178  1  0.58855444  0.41696287  0.93564365  1
  Se  Se179  1  0.56610984  0.77732240  0.45349031  1
  Se  Se180  1  0.60364139  0.74045163  0.94382957  1
  Se  Se181  1  0.91965099  0.07940118  0.45331903  1
  Se  Se182  1  0.91038956  0.08744886  0.94351515  1
  Se  Se183  1  0.91388963  0.41340751  0.45126930  1
  Se  Se184  1  0.91971734  0.42344386  0.93884066  1
  Se  Se185  1  0.91706385  0.74317942  0.44843887  1
  Se  Se186  1  0.93211715  0.75568196  0.93351893  1
  Se  Se187  1  0.25270444  0.25209987  0.30381802  1
  Se  Se188  1  0.24670178  0.24879595  0.80765043  1
  Se  Se189  1  0.23797546  0.57668701  0.31860207  1
  Se  Se190  1  0.24916973  0.57474509  0.80226434  1
  Se  Se191  1  0.25171453  0.90687250  0.31611436  1
  Se  Se192  1  0.22844921  0.89912170  0.79599763  1
  Se  Se193  1  0.59051455  0.25016393  0.30373382  1
  Se  Se194  1  0.58298090  0.25257782  0.79762299  1
  Se  Se195  1  0.57974087  0.58599351  0.30563580  1
  Se  Se196  1  0.59097715  0.59112257  0.79814477  1
  Se  Se197  1  0.59296874  0.91625633  0.30957842  1
  Se  Se198  1  0.58595253  0.91790531  0.79979792  1
  Se  Se199  1  0.90991378  0.23997248  0.31516189  1
  Se  Se200  1  0.91615885  0.25446778  0.80377396  1
  Se  Se201  1  0.91204384  0.58408655  0.30674076  1
  Se  Se202  1  0.91904392  0.58682827  0.79551095  1
  Se  Se203  1  0.90870679  0.91076808  0.32050328  1
  Se  Se204  1  0.90838003  0.91383797  0.79452795  1
  Se  Se205  1  0.09354568  0.08322270  0.31075937  1
  Se  Se206  1  0.07644881  0.08903348  0.80170101  1
  Se  Se207  1  0.08093549  0.42230245  0.31892096  1
  Se  Se208  1  0.09995368  0.42697650  0.79368727  1
  Se  Se209  1  0.07883964  0.74319016  0.31039647  1
  Se  Se210  1  0.08002167  0.73443306  0.78254727  1
  Se  Se211  1  0.42909114  0.08924220  0.31371059  1
  Se  Se212  1  0.41576311  0.08378397  0.79801624  1
  Se  Se213  1  0.41566566  0.41400651  0.29986179  1
  Se  Se214  1  0.42563870  0.42530918  0.80923650  1
  Se  Se215  1  0.42382460  0.75924909  0.31336409  1
  Se  Se216  1  0.42765767  0.75757264  0.81040942  1
  Se  Se217  1  0.75492333  0.07516295  0.31263173  1
  Se  Se218  1  0.74962454  0.08285301  0.79936726  1
  Se  Se219  1  0.74513196  0.41242305  0.30292407  1
  Se  Se220  1  0.75360288  0.41976501  0.79945351  1
  Se  Se221  1  0.74502766  0.74553986  0.31119006  1
  Se  Se222  1  0.75173342  0.74700099  0.79977850  1
  Se  Se223  1  0.24332291  0.08156499  0.19134077  1
  Se  Se224  1  0.24936216  0.08314459  0.70129345  1
  Se  Se225  1  0.24073732  0.41392435  0.20348114  1
  Se  Se226  1  0.24820696  0.42635262  0.68758693  1
  Se  Se227  1  0.24598166  0.74386407  0.20134420  1
  Se  Se228  1  0.24904311  0.75541888  0.67901876  1
  Se  Se229  1  0.59002956  0.08073167  0.19859526  1
  Se  Se230  1  0.58667528  0.07942349  0.69403876  1
  Se  Se231  1  0.58305733  0.41712448  0.19448134  1
  Se  Se232  1  0.59175867  0.41503168  0.69936552  1
  Se  Se233  1  0.59072611  0.74755242  0.20145029  1
  Se  Se234  1  0.58491909  0.74863513  0.69033669  1
  Se  Se235  1  0.91615632  0.09061613  0.19234050  1
  Se  Se236  1  0.91067215  0.08254986  0.69403796  1
  Se  Se237  1  0.90809810  0.42233417  0.19102015  1
  Se  Se238  1  0.92006647  0.41405112  0.69508009  1
  Se  Se239  1  0.91743215  0.74991173  0.20290653  1
  Se  Se240  1  0.91035584  0.74686217  0.69172983  1
  Se  Se241  1  0.08187879  0.24006522  0.19493707  1
  Se  Se242  1  0.07762361  0.25296373  0.69676605  1
  Se  Se243  1  0.07659552  0.58404114  0.20284671  1
  Se  Se244  1  0.08555818  0.59253739  0.69231923  1
  Se  Se245  1  0.09445466  0.90300238  0.19848190  1
  Se  Se246  1  0.06994834  0.92650376  0.70230912  1
  Se  Se247  1  0.41682882  0.24234434  0.19754029  1
  Se  Se248  1  0.42539973  0.24138510  0.68309782  1
  Se  Se249  1  0.42165701  0.57444488  0.18617223  1
  Se  Se250  1  0.42714675  0.57788056  0.68920266  1
  Se  Se251  1  0.42703072  0.90646981  0.19211851  1
  Se  Se252  1  0.41596658  0.91571673  0.69388415  1
  Se  Se253  1  0.75393556  0.24709475  0.19815676  1
  Se  Se254  1  0.75001781  0.25264753  0.69444357  1
  Se  Se255  1  0.74892304  0.58497393  0.19754854  1
  Se  Se256  1  0.75043461  0.58713538  0.69170230  1
  Se  Se257  1  0.75922605  0.91673245  0.20200807  1
  Se  Se258  1  0.74279670  0.91923531  0.68885023  1
