# generated using pymatgen
data_In86Cu29Se144
_symmetry_space_group_name_H-M   'P 1'
_cell_length_a   17.58745864
_cell_length_b   17.58837336
_cell_length_c   23.44638892
_cell_angle_alpha   89.98326812
_cell_angle_beta   89.99143697
_cell_angle_gamma   90.00077371
_symmetry_Int_Tables_number   1
_chemical_formula_structural   In86Cu29Se144
_chemical_formula_sum   'In86 Cu29 Se144'
_cell_volume   7252.78338145
_cell_formula_units_Z   1
loop_
 _symmetry_equiv_pos_site_id
 _symmetry_equiv_pos_as_xyz
  1  'x, y, z'
loop_
 _atom_site_type_symbol
 _atom_site_label
 _atom_site_symmetry_multiplicity
 _atom_site_fract_x
 _atom_site_fract_y
 _atom_site_fract_z
 _atom_site_occupancy
  In  In0  1  0.00702576  0.16090652  0.12533083  1
  In  In1  1  0.00246016  0.16929051  0.63513693  1
  In  In2  1  0.00685939  0.48335321  0.13811809  1
  In  In3  1  -0.00123458  0.49853551  0.62580591  1
  In  In4  1  -0.00852875  0.83894153  0.12861767  1
  In  In5  1  -0.01776120  0.83941862  0.64070811  1
  In  In6  1  0.34369747  0.17825236  0.12160212  1
  In  In7  1  0.34575516  0.15504673  0.62853078  1
  In  In8  1  0.32505906  0.50898098  0.13365957  1
  In  In9  1  0.31680336  0.49912142  0.62118294  1
  In  In10  1  0.33393260  0.82080662  0.12648016  1
  In  In11  1  0.34070018  0.84229946  0.62657303  1
  In  In12  1  0.64631272  0.16015413  0.12312818  1
  In  In13  1  0.65775927  0.17047480  0.63003485  1
  In  In14  1  0.67099156  0.49975900  0.12615430  1
  In  In15  1  0.67039280  0.48217227  0.62513583  1
  In  In16  1  0.67754918  0.84581517  0.11950892  1
  In  In17  1  0.68365094  0.83727167  0.62974932  1
  In  In18  1  0.16445327  0.01371381  0.37167990  1
  In  In19  1  0.17798493  0.00833432  0.86949373  1
  In  In20  1  0.17456672  0.33975674  0.37125371  1
  In  In21  1  0.16678392  0.33148347  0.87950726  1
  In  In22  1  0.15326843  0.65654049  0.36760117  1
  In  In23  1  0.15214072  0.66544980  0.87722349  1
  In  In24  1  0.50993892  -0.00325659  0.37536219  1
  In  In25  1  0.49908425  0.00855944  0.88179841  1
  In  In26  1  0.48428359  0.33023695  0.37117336  1
  In  In27  1  0.48951495  0.32468828  0.87112112  1
  In  In28  1  0.49943449  0.67858679  0.36157765  1
  In  In29  1  0.50966531  0.67497385  0.87963540  1
  In  In30  1  0.82626147  -0.00781886  0.37230813  1
  In  In31  1  0.82386889  -0.01127106  0.86310968  1
  In  In32  1  0.84864568  0.33853960  0.37211852  1
  In  In33  1  0.83919722  0.34947669  0.85514919  1
  In  In34  1  0.85080926  0.65414834  0.38879728  1
  In  In35  1  0.84628743  0.67001801  0.87141059  1
  In  In36  1  0.00119070  0.16821660  0.36510180  1
  In  In37  1  0.00948146  0.17618479  0.86920661  1
  In  In38  1  0.00119330  0.50240466  0.37713551  1
  In  In39  1  0.00641430  0.50696410  0.87248757  1
  In  In40  1  -0.00800444  0.82350713  0.37106887  1
  In  In41  1  -0.01055780  0.82759117  0.86492508  1
  In  In42  1  0.33012906  0.17657367  0.37660792  1
  In  In43  1  0.33289660  0.16896254  0.88082505  1
  In  In44  1  0.32373832  0.48690171  0.36523085  1
  In  In45  1  0.33072173  0.48087106  0.87484850  1
  In  In46  1  0.34987305  0.82970902  0.36536509  1
  In  In47  1  0.33359115  0.85142393  0.87684473  1
  In  In48  1  0.66780371  0.15005883  0.37455581  1
  In  In49  1  0.65967568  0.16124294  0.87075597  1
  In  In50  1  0.67403332  0.50821409  0.37843546  1
  In  In51  1  0.68243265  0.49785760  0.86794099  1
  In  In52  1  0.67146466  0.84406782  0.37438526  1
  In  In53  1  0.66024553  0.84304820  0.88309904  1
  In  In54  1  0.15083177  0.00053693  0.12241673  1
  In  In55  1  0.16733771  -0.00129858  0.63214721  1
  In  In56  1  0.16648956  0.33259560  0.12343115  1
  In  In57  1  0.15795484  0.34290465  0.63140726  1
  In  In58  1  0.17130117  0.65388700  0.12940929  1
  In  In59  1  0.15912525  0.64925333  0.62127773  1
  In  In60  1  0.50999732  0.01166508  0.12348178  1
  In  In61  1  0.48870744  0.01524156  0.63253901  1
  In  In62  1  0.49603749  0.31744518  0.12899958  1
  In  In63  1  0.50488858  0.31634994  0.62779748  1
  In  In64  1  0.48554540  0.67093762  0.12955416  1
  In  In65  1  0.50208088  0.67490068  0.62243251  1
  In  In66  1  0.84178931  -0.00979890  0.12779436  1
  In  In67  1  0.83736229  -0.01126918  0.63906253  1
  In  In68  1  0.84387361  0.34089140  0.12689499  1
  In  In69  1  0.83136588  0.33960174  0.63200710  1
  In  In70  1  0.83076610  0.67627205  0.12614661  1
  In  In71  1  0.84615485  0.67786790  0.62147279  1
  In  In72  1  0.66751517  0.32689013  0.24910850  1
  In  In73  1  0.66978322  0.66820548  0.24870684  1
  In  In74  1  0.33234892  0.00101322  0.24781642  1
  In  In75  1  0.49789981  0.50104995  0.00314001  1
  In  In76  1  0.49995912  0.49901069  0.49181615  1
  In  In77  1  0.82850028  0.16472486  -0.01366939  1
  In  In78  1  0.32921262  0.66891111  0.74197228  1
  In  In79  1  0.83752913  0.50562443  -0.00514012  1
  In  In80  1  0.67085224  0.66373149  0.74784331  1
  In  In81  1  0.83089327  0.16554720  0.50321114  1
  In  In82  1  0.16513177  0.83314482  0.50120034  1
  In  In83  1  0.50471590  0.83549981  0.49440289  1
  In  In84  1  0.17183632  0.17198747  0.50051913  1
  In  In85  1  0.16526694  0.83531530  -0.00171405  1
  Cu  Cu86  1  0.66716179  0.68339525  0.00391794  1
  Cu  Cu87  1  0.16152415  0.49682019  0.25073405  1
  Cu  Cu88  1  0.17508048  0.17063245  0.75290524  1
  Cu  Cu89  1  0.00092684  0.66692945  0.49942980  1
  Cu  Cu90  1  0.66194962  0.33059036  -0.00482775  1
  Cu  Cu91  1  0.00782848  0.32910421  0.00167892  1
  Cu  Cu92  1  0.16357707  0.83056815  0.24381507  1
  Cu  Cu93  1  -0.00008008  0.66470496  -0.00001916  1
  Cu  Cu94  1  0.33628616  0.00562774  0.00075630  1
  Cu  Cu95  1  0.66639479  0.00450867  -0.00205216  1
  Cu  Cu96  1  0.33074490  0.66359157  0.00488202  1
  Cu  Cu97  1  0.33094360  0.33632556  0.49872484  1
  Cu  Cu98  1  0.16456842  0.49741106  0.75055594  1
  Cu  Cu99  1  0.83383884  0.16651193  0.75002212  1
  Cu  Cu100  1  0.49666140  0.16610507  0.75482713  1
  Cu  Cu101  1  0.83323976  0.16153907  0.24765678  1
  Cu  Cu102  1  -0.00431850  -0.00257169  0.50352854  1
  Cu  Cu103  1  0.49973914  0.84695633  0.75694865  1
  Cu  Cu104  1  0.67760506  0.66430859  0.50400624  1
  Cu  Cu105  1  0.83542185  0.83354346  0.25150327  1
  Cu  Cu106  1  0.16258886  0.17161377  0.24701049  1
  Cu  Cu107  1  0.66993333  0.32731959  0.50428376  1
  Cu  Cu108  1  0.32612356  0.66368698  0.48964061  1
  Cu  Cu109  1  0.66605913  -0.00262431  0.50210577  1
  Cu  Cu110  1  0.32779198  0.33109729  0.00104585  1
  Cu  Cu111  1  -0.00170499  -0.00028127  -0.00254157  1
  Cu  Cu112  1  0.15999703  0.83245113  0.75355669  1
  Cu  Cu113  1  0.49872779  0.49116227  0.74724669  1
  Cu  Cu114  1  0.00385521  0.34355077  0.50235621  1
  Se  Se115  1  0.08173078  0.08461242  0.04759985  1
  Se  Se116  1  0.07801238  0.07994615  0.55878716  1
  Se  Se117  1  0.08175770  0.41892031  0.05615499  1
  Se  Se118  1  0.08987746  0.42430033  0.55442086  1
  Se  Se119  1  0.08032257  0.74527000  0.06177409  1
  Se  Se120  1  0.07405996  0.74952508  0.56397285  1
  Se  Se121  1  0.42013775  0.08732915  0.05518480  1
  Se  Se122  1  0.42101300  0.08411333  0.55077543  1
  Se  Se123  1  0.40970535  0.41064836  0.06256059  1
  Se  Se124  1  0.41537710  0.41378623  0.55979605  1
  Se  Se125  1  0.41636103  0.74961664  0.05093066  1
  Se  Se126  1  0.40491259  0.74314948  0.55164370  1
  Se  Se127  1  0.74953234  0.08155798  0.05940424  1
  Se  Se128  1  0.74593186  0.07487020  0.56532029  1
  Se  Se129  1  0.74549489  0.40888706  0.05288410  1
  Se  Se130  1  0.75574759  0.41156705  0.55195163  1
  Se  Se131  1  0.76024568  0.75965529  0.05202803  1
  Se  Se132  1  0.75363615  0.75480048  0.55499628  1
  Se  Se133  1  0.24640012  0.24605039  0.05487118  1
  Se  Se134  1  0.25653478  0.25860624  0.56566973  1
  Se  Se135  1  0.24805388  0.57761036  0.05338434  1
  Se  Se136  1  0.24675134  0.58297795  0.54687356  1
  Se  Se137  1  0.25608993  0.92311961  0.06082030  1
  Se  Se138  1  0.25713244  0.92634165  0.55652300  1
  Se  Se139  1  0.58006634  0.25182712  0.05137444  1
  Se  Se140  1  0.58268769  0.24331949  0.55068680  1
  Se  Se141  1  0.59188117  0.59385098  0.06022769  1
  Se  Se142  1  0.58922230  0.58652724  0.55876736  1
  Se  Se143  1  0.58473486  0.92183769  0.05396558  1
  Se  Se144  1  0.58552206  0.91935187  0.56514730  1
  Se  Se145  1  0.91689052  0.25043042  0.05386950  1
  Se  Se146  1  0.92679015  0.25440213  0.55859500  1
  Se  Se147  1  0.92350356  0.58516762  0.06396483  1
  Se  Se148  1  0.91898136  0.58365769  0.55553614  1
  Se  Se149  1  0.91780309  0.91506464  0.05057988  1
  Se  Se150  1  0.91506879  0.91747315  0.56044111  1
  Se  Se151  1  0.07597287  0.25651090  0.44101436  1
  Se  Se152  1  0.08789965  0.24331657  0.94880243  1
  Se  Se153  1  0.08544599  0.58301764  0.44854143  1
  Se  Se154  1  0.08416651  0.57907446  0.95083445  1
  Se  Se155  1  0.07782649  0.92490895  0.43961816  1
  Se  Se156  1  0.07869604  0.92095440  0.93402941  1
  Se  Se157  1  0.41495301  0.25081998  0.44929261  1
  Se  Se158  1  0.41775634  0.25158605  0.95031628  1
  Se  Se159  1  0.41335804  0.59077982  0.43128558  1
  Se  Se160  1  0.40880256  0.58802586  0.93744475  1
  Se  Se161  1  0.40686056  0.92352846  0.44204446  1
  Se  Se162  1  0.41888075  0.91912453  0.95023091  1
  Se  Se163  1  0.74806921  0.25394673  0.43630518  1
  Se  Se164  1  0.74763038  0.26551755  0.92972251  1
  Se  Se165  1  0.75733195  0.57624344  0.45333664  1
  Se  Se166  1  0.74008980  0.59801635  0.94176090  1
  Se  Se167  1  0.75232414  0.91621769  0.45025233  1
  Se  Se168  1  0.75336637  0.92197985  0.94715830  1
  Se  Se169  1  0.25908065  0.07540992  0.44491614  1
  Se  Se170  1  0.24788217  0.08424318  0.94861955  1
  Se  Se171  1  0.24812917  0.42025681  0.44662374  1
  Se  Se172  1  0.24573301  0.41818384  0.95085448  1
  Se  Se173  1  0.25140960  0.75033388  0.43211843  1
  Se  Se174  1  0.25689342  0.74417633  0.93833556  1
  Se  Se175  1  0.58358370  0.08049658  0.44934520  1
  Se  Se176  1  0.58294646  0.09285517  0.95031997  1
  Se  Se177  1  0.59218081  0.40433789  0.43757000  1
  Se  Se178  1  0.58773443  0.41863160  0.93625680  1
  Se  Se179  1  0.59457080  0.73746474  0.44024628  1
  Se  Se180  1  0.57684659  0.76055814  0.95282623  1
  Se  Se181  1  0.92280943  0.08061603  0.44006701  1
  Se  Se182  1  0.92244207  0.07562658  0.93095799  1
  Se  Se183  1  0.91632915  0.42074034  0.44816983  1
  Se  Se184  1  0.92345417  0.40578152  0.94130738  1
  Se  Se185  1  0.91704548  0.75686999  0.45239152  1
  Se  Se186  1  0.92128731  0.75006817  0.94561887  1
  Se  Se187  1  0.24867452  0.24943926  0.30256583  1
  Se  Se188  1  0.25402362  0.25376876  0.81000032  1
  Se  Se189  1  0.24689683  0.58205520  0.30201723  1
  Se  Se190  1  0.24695377  0.58061235  0.80932685  1
  Se  Se191  1  0.24056356  0.90973222  0.30883666  1
  Se  Se192  1  0.24983292  0.91522996  0.80028986  1
  Se  Se193  1  0.57917012  0.24021879  0.31129559  1
  Se  Se194  1  0.58233470  0.25194572  0.80401467  1
  Se  Se195  1  0.57972603  0.57290858  0.30612376  1
  Se  Se196  1  0.57295275  0.57571846  0.80758306  1
  Se  Se197  1  0.56817303  0.89662271  0.30846520  1
  Se  Se198  1  0.58309738  0.92581242  0.81183110  1
  Se  Se199  1  0.91405775  0.24857446  0.29918047  1
  Se  Se200  1  0.91976511  0.25047206  0.80020618  1
  Se  Se201  1  0.92331816  0.58992560  0.30837117  1
  Se  Se202  1  0.89151520  0.55552856  0.81386888  1
  Se  Se203  1  0.91901825  0.91857356  0.30526543  1
  Se  Se204  1  0.92336143  0.92334749  0.79890492  1
  Se  Se205  1  0.08148147  0.08252523  0.29698199  1
  Se  Se206  1  0.08846365  0.08614037  0.80282450  1
  Se  Se207  1  0.08020299  0.41483669  0.30753390  1
  Se  Se208  1  0.08536463  0.41513864  0.80887624  1
  Se  Se209  1  0.08042989  0.75019845  0.30128385  1
  Se  Se210  1  0.07949974  0.74295244  0.80182713  1
  Se  Se211  1  0.41868761  0.08693464  0.31243596  1
  Se  Se212  1  0.41325856  0.08432613  0.81043138  1
  Se  Se213  1  0.41931250  0.41792491  0.29971736  1
  Se  Se214  1  0.41295371  0.41128190  0.80023397  1
  Se  Se215  1  0.41337941  0.74667861  0.28977272  1
  Se  Se216  1  0.41957008  0.75489787  0.80817376  1
  Se  Se217  1  0.75063730  0.07830904  0.30117136  1
  Se  Se218  1  0.74718042  0.08551829  0.80197762  1
  Se  Se219  1  0.75488683  0.42172456  0.30750479  1
  Se  Se220  1  0.74142116  0.41590577  0.79002612  1
  Se  Se221  1  0.76059099  0.75043537  0.31441776  1
  Se  Se222  1  0.74838653  0.75585696  0.81349801  1
  Se  Se223  1  0.24155901  0.08919870  0.18634853  1
  Se  Se224  1  0.25200673  0.08389265  0.69652941  1
  Se  Se225  1  0.24553361  0.41520278  0.19554154  1
  Se  Se226  1  0.25230913  0.41741308  0.69885585  1
  Se  Se227  1  0.24876049  0.74530146  0.19594563  1
  Se  Se228  1  0.23638577  0.75867828  0.68387941  1
  Se  Se229  1  0.58417257  0.08263244  0.20277914  1
  Se  Se230  1  0.58237917  0.08385867  0.70108707  1
  Se  Se231  1  0.57875108  0.41936022  0.18940974  1
  Se  Se232  1  0.58180167  0.40911981  0.69339218  1
  Se  Se233  1  0.58611336  0.75723466  0.18513644  1
  Se  Se234  1  0.57421425  0.76154931  0.69584360  1
  Se  Se235  1  0.91985267  0.08132777  0.19283045  1
  Se  Se236  1  0.91943084  0.08299238  0.69926679  1
  Se  Se237  1  0.91107146  0.41562265  0.20465866  1
  Se  Se238  1  0.93532292  0.40039500  0.69368527  1
  Se  Se239  1  0.91692073  0.74934036  0.19776664  1
  Se  Se240  1  0.91159017  0.74465463  0.70582987  1
  Se  Se241  1  0.07827407  0.25384293  0.19316794  1
  Se  Se242  1  0.08746170  0.25180965  0.70076402  1
  Se  Se243  1  0.07945493  0.58417576  0.19881417  1
  Se  Se244  1  0.08028368  0.58181159  0.69883943  1
  Se  Se245  1  0.07978163  0.91801518  0.19643644  1
  Se  Se246  1  0.08090770  0.91904496  0.69866596  1
  Se  Se247  1  0.41366626  0.24755431  0.20273681  1
  Se  Se248  1  0.41353995  0.24842684  0.69881498  1
  Se  Se249  1  0.42593021  0.57452676  0.19688511  1
  Se  Se250  1  0.42459992  0.57551946  0.68586307  1
  Se  Se251  1  0.42123465  0.91452160  0.18620236  1
  Se  Se252  1  0.41292212  0.92276520  0.70058123  1
  Se  Se253  1  0.75548702  0.23963413  0.18297909  1
  Se  Se254  1  0.74993969  0.24810948  0.69459370  1
  Se  Se255  1  0.76335228  0.57356804  0.19407581  1
  Se  Se256  1  0.75610121  0.57872797  0.68337545  1
  Se  Se257  1  0.75220870  0.91813265  0.19881979  1
  Se  Se258  1  0.74365241  0.91979589  0.70696129  1
