# generated using pymatgen
data_In86Cu29Se144
_symmetry_space_group_name_H-M   'P 1'
_cell_length_a   17.58837066
_cell_length_b   17.58549007
_cell_length_c   23.45246449
_cell_angle_alpha   89.99815854
_cell_angle_beta   89.98021284
_cell_angle_gamma   90.02633932
_symmetry_Int_Tables_number   1
_chemical_formula_structural   In86Cu29Se144
_chemical_formula_sum   'In86 Cu29 Se144'
_cell_volume   7253.84882007
_cell_formula_units_Z   1
loop_
 _symmetry_equiv_pos_site_id
 _symmetry_equiv_pos_as_xyz
  1  'x, y, z'
loop_
 _atom_site_type_symbol
 _atom_site_label
 _atom_site_symmetry_multiplicity
 _atom_site_fract_x
 _atom_site_fract_y
 _atom_site_fract_z
 _atom_site_occupancy
  In  In0  1  0.01984635  0.16372063  0.11976788  1
  In  In1  1  0.00489343  0.15320360  0.62768381  1
  In  In2  1  -0.01133807  0.50500696  0.12690591  1
  In  In3  1  0.00968220  0.51443556  0.61911413  1
  In  In4  1  -0.00289808  0.83419960  0.12355751  1
  In  In5  1  -0.00001361  0.83631868  0.62429819  1
  In  In6  1  0.32066694  0.18144698  0.13531315  1
  In  In7  1  0.33201071  0.18405858  0.62071280  1
  In  In8  1  0.34596021  0.48351319  0.13935288  1
  In  In9  1  0.32992999  0.48905410  0.61125657  1
  In  In10  1  0.34671241  0.82014741  0.14064152  1
  In  In11  1  0.33143886  0.82606915  0.61479935  1
  In  In12  1  0.64890656  0.17905703  0.12357621  1
  In  In13  1  0.67939550  0.17098190  0.62888587  1
  In  In14  1  0.67889152  0.50705973  0.11643976  1
  In  In15  1  0.66766585  0.50188434  0.62324456  1
  In  In16  1  0.66211364  0.82214800  0.12136034  1
  In  In17  1  0.65343657  0.82229226  0.61436736  1
  In  In18  1  0.17424817  -0.01098806  0.38442402  1
  In  In19  1  0.16738583  0.00734979  0.87241604  1
  In  In20  1  0.16686905  0.34184835  0.37747054  1
  In  In21  1  0.16506985  0.32114138  0.87607037  1
  In  In22  1  0.18527553  0.64806042  0.38635981  1
  In  In23  1  0.15314925  0.67261199  0.86998095  1
  In  In24  1  0.49009591  0.00180653  0.37669008  1
  In  In25  1  0.48837299  -0.00546269  0.87974180  1
  In  In26  1  0.48838822  0.35359512  0.38208398  1
  In  In27  1  0.50737163  0.34580420  0.86416075  1
  In  In28  1  0.50024525  0.66610862  0.37207862  1
  In  In29  1  0.51283052  0.65188101  0.88192537  1
  In  In30  1  0.83194668  -0.02184052  0.37669247  1
  In  In31  1  0.82872550  -0.01959102  0.87305870  1
  In  In32  1  0.84965186  0.33631094  0.37368451  1
  In  In33  1  0.82412047  0.35515373  0.88100287  1
  In  In34  1  0.82117870  0.67386492  0.37943927  1
  In  In35  1  0.83061616  0.66786599  0.87023006  1
  In  In36  1  0.00134606  0.18910396  0.37320960  1
  In  In37  1  0.01489332  0.16834794  0.87418710  1
  In  In38  1  0.00703558  0.49213464  0.38527041  1
  In  In39  1  -0.01335288  0.50257653  0.87429631  1
  In  In40  1  -0.00342204  0.83211706  0.38165734  1
  In  In41  1  -0.01069080  0.81567669  0.85709207  1
  In  In42  1  0.32249484  0.16550191  0.37293041  1
  In  In43  1  0.31976488  0.16703184  0.87617705  1
  In  In44  1  0.32703926  0.50179273  0.37058622  1
  In  In45  1  0.35016785  0.49848229  0.87712601  1
  In  In46  1  0.33601235  0.83156250  0.37682233  1
  In  In47  1  0.33432511  0.84143441  0.87685822  1
  In  In48  1  0.66515554  0.16211654  0.37389667  1
  In  In49  1  0.65339308  0.17644195  0.87259885  1
  In  In50  1  0.65485488  0.51402760  0.38159278  1
  In  In51  1  0.66362539  0.50671011  0.86916966  1
  In  In52  1  0.68366509  0.81564398  0.38773003  1
  In  In53  1  0.67624308  0.82089920  0.88027425  1
  In  In54  1  0.16955296  0.01246979  0.12817313  1
  In  In55  1  0.15696939  -0.00915913  0.61239437  1
  In  In56  1  0.18226974  0.32441636  0.13132938  1
  In  In57  1  0.18285993  0.34232532  0.61008112  1
  In  In58  1  0.16930618  0.66970842  0.13449149  1
  In  In59  1  0.16312987  0.66557664  0.62141657  1
  In  In60  1  0.50154461  -0.01208418  0.12899428  1
  In  In61  1  0.50574504  -0.01733348  0.62188957  1
  In  In62  1  0.48291102  0.33825116  0.11998621  1
  In  In63  1  0.48956251  0.34821705  0.62906371  1
  In  In64  1  0.50283507  0.66583155  0.12713551  1
  In  In65  1  0.50707310  0.67023000  0.62044051  1
  In  In66  1  0.83559660  -0.00867749  0.11766534  1
  In  In67  1  0.84758080  0.00331399  0.62486426  1
  In  In68  1  0.82728311  0.35239115  0.12602943  1
  In  In69  1  0.82170852  0.33784970  0.62889233  1
  In  In70  1  0.82717378  0.65933015  0.12141976  1
  In  In71  1  0.83351833  0.66604800  0.62323543  1
  In  In72  1  0.50017452  0.16703914  0.49734988  1
  In  In73  1  0.33009752  0.66427266  0.74693861  1
  In  In74  1  0.00771199  -0.00027798  0.25757219  1
  In  In75  1  0.49223772  0.17050488  0.00275418  1
  In  In76  1  0.00601349  0.66159013  0.25514303  1
  In  In77  1  0.17496845  0.49358914  0.00798761  1
  In  In78  1  0.16832792  0.83501723  0.00025810  1
  In  In79  1  -0.00001628  0.33368085  0.75270869  1
  In  In80  1  0.83985560  0.16628678  0.50313260  1
  In  In81  1  0.66862474  -0.00226430  0.74849339  1
  In  In82  1  0.32782078  0.00189262  0.75166736  1
  In  In83  1  0.83509170  0.16658727  -0.00589228  1
  In  In84  1  0.66867156  -0.00930200  0.25039074  1
  In  In85  1  0.66296990  0.33853519  0.24828631  1
  Cu  Cu86  1  0.66748494  -0.00481426  0.00292956  1
  Cu  Cu87  1  0.49892614  0.17641139  0.74521055  1
  Cu  Cu88  1  0.17019095  0.49946229  0.74165540  1
  Cu  Cu89  1  0.33516029  -0.00473413  0.00443685  1
  Cu  Cu90  1  0.16668845  0.16748152  0.74759246  1
  Cu  Cu91  1  0.50340973  0.50166939  0.74804457  1
  Cu  Cu92  1  0.17119252  0.17359344  0.25155498  1
  Cu  Cu93  1  -0.00100939  0.00086848  0.49877682  1
  Cu  Cu94  1  -0.01021310  0.66304201  -0.00347363  1
  Cu  Cu95  1  0.66791006  0.66712609  -0.00218997  1
  Cu  Cu96  1  0.83148595  0.50806257  0.74915974  1
  Cu  Cu97  1  0.49918699  0.50553386  0.25259887  1
  Cu  Cu98  1  0.66828412  0.33585509  0.50230534  1
  Cu  Cu99  1  0.84172493  0.16273554  0.24641610  1
  Cu  Cu100  1  0.34028629  0.66613123  0.49604447  1
  Cu  Cu101  1  0.34163273  0.66966271  0.00533925  1
  Cu  Cu102  1  0.50267936  0.82461986  0.75096369  1
  Cu  Cu103  1  0.00184386  -0.00917602  -0.00121469  1
  Cu  Cu104  1  0.49162894  0.17113327  0.25507243  1
  Cu  Cu105  1  0.17326780  0.83173104  0.25921970  1
  Cu  Cu106  1  0.49908982  0.83199008  0.25309595  1
  Cu  Cu107  1  -0.00491442  0.66991557  0.50079908  1
  Cu  Cu108  1  0.83477441  0.17140078  0.75137997  1
  Cu  Cu109  1  0.00386465  0.33874938  0.50133439  1
  Cu  Cu110  1  0.83043685  0.50456964  0.25059815  1
  Cu  Cu111  1  0.66528091  0.65949627  0.50105835  1
  Cu  Cu112  1  0.83343080  0.82969148  0.74482176  1
  Cu  Cu113  1  0.33472104  -0.00136134  0.49797905  1
  Cu  Cu114  1  0.00085631  0.33119110  -0.00108045  1
  Se  Se115  1  0.08813935  0.07444772  0.04793669  1
  Se  Se116  1  0.08267979  0.08811856  0.54785462  1
  Se  Se117  1  0.07646707  0.40928161  0.06468240  1
  Se  Se118  1  0.08732705  0.42469407  0.55260210  1
  Se  Se119  1  0.07669149  0.73748413  0.05671507  1
  Se  Se120  1  0.08119446  0.75146067  0.55446825  1
  Se  Se121  1  0.41002734  0.07871244  0.06669289  1
  Se  Se122  1  0.41327784  0.07602915  0.56253497  1
  Se  Se123  1  0.40511111  0.42102068  0.05119551  1
  Se  Se124  1  0.42012455  0.41159276  0.54611235  1
  Se  Se125  1  0.42130570  0.75501554  0.05892913  1
  Se  Se126  1  0.42300218  0.75021108  0.55056229  1
  Se  Se127  1  0.73891258  0.08456535  0.06108990  1
  Se  Se128  1  0.74490362  0.07576442  0.55805716  1
  Se  Se129  1  0.74760971  0.41306732  0.04832220  1
  Se  Se130  1  0.75341570  0.41929037  0.55329144  1
  Se  Se131  1  0.75263510  0.74910468  0.05215835  1
  Se  Se132  1  0.74895427  0.74561120  0.55249291  1
  Se  Se133  1  0.25035644  0.24625900  0.05338854  1
  Se  Se134  1  0.24331490  0.24019915  0.54535534  1
  Se  Se135  1  0.25788861  0.59293983  0.06411624  1
  Se  Se136  1  0.25355454  0.58959591  0.55389627  1
  Se  Se137  1  0.25731905  0.91538681  0.06757943  1
  Se  Se138  1  0.25036846  0.91322770  0.54930614  1
  Se  Se139  1  0.58635539  0.27062111  0.05028981  1
  Se  Se140  1  0.59004189  0.25364452  0.56210753  1
  Se  Se141  1  0.58501920  0.58683003  0.05498243  1
  Se  Se142  1  0.57932627  0.57712619  0.55287781  1
  Se  Se143  1  0.58241561  0.91418909  0.05608725  1
  Se  Se144  1  0.58392069  0.91536348  0.54643429  1
  Se  Se145  1  0.92007432  0.25168589  0.06158737  1
  Se  Se146  1  0.92558054  0.25872404  0.56540227  1
  Se  Se147  1  0.91042243  0.57802743  0.05097787  1
  Se  Se148  1  0.91378391  0.58221202  0.55222233  1
  Se  Se149  1  0.91658609  0.90834145  0.04899009  1
  Se  Se150  1  0.91587196  0.91711560  0.55170046  1
  Se  Se151  1  0.08523909  0.25389278  0.44853275  1
  Se  Se152  1  0.08615720  0.24575842  0.95145160  1
  Se  Se153  1  0.08154175  0.58579850  0.45038668  1
  Se  Se154  1  0.08115707  0.58348653  0.94476671  1
  Se  Se155  1  0.08187471  0.91292371  0.44894556  1
  Se  Se156  1  0.07772491  0.91274379  0.93322545  1
  Se  Se157  1  0.40679314  0.25567291  0.44243037  1
  Se  Se158  1  0.41482218  0.25543302  0.93259302  1
  Se  Se159  1  0.41719482  0.58130499  0.43915480  1
  Se  Se160  1  0.41971392  0.58251908  0.95138948  1
  Se  Se161  1  0.41903116  0.91414293  0.44790570  1
  Se  Se162  1  0.41728051  0.91022073  0.95293397  1
  Se  Se163  1  0.74651748  0.25470407  0.44041016  1
  Se  Se164  1  0.73883702  0.25817571  0.94302426  1
  Se  Se165  1  0.75311728  0.57913475  0.44868251  1
  Se  Se166  1  0.74950569  0.58545479  0.94016678  1
  Se  Se167  1  0.74511121  0.91998710  0.45123537  1
  Se  Se168  1  0.75015652  0.91169057  0.95007348  1
  Se  Se169  1  0.25033365  0.08361911  0.44839857  1
  Se  Se170  1  0.25287456  0.07510263  0.94738686  1
  Se  Se171  1  0.24678812  0.42663649  0.44521988  1
  Se  Se172  1  0.25663705  0.40914402  0.93901877  1
  Se  Se173  1  0.25220507  0.75146684  0.44771791  1
  Se  Se174  1  0.25616200  0.73867687  0.94109846  1
  Se  Se175  1  0.59348841  0.07266828  0.44433400  1
  Se  Se176  1  0.58742825  0.07598076  0.94323573  1
  Se  Se177  1  0.58478093  0.41849166  0.44910658  1
  Se  Se178  1  0.57151014  0.43317523  0.93665359  1
  Se  Se179  1  0.58186352  0.74337878  0.44672103  1
  Se  Se180  1  0.58070897  0.75139119  0.94715836  1
  Se  Se181  1  0.92311612  0.07986527  0.43341903  1
  Se  Se182  1  0.92373462  0.07188445  0.93650635  1
  Se  Se183  1  0.91212133  0.41753555  0.45256772  1
  Se  Se184  1  0.91898660  0.41934631  0.95055301  1
  Se  Se185  1  0.90972364  0.75219476  0.44801593  1
  Se  Se186  1  0.91614669  0.75065691  0.93979996  1
  Se  Se187  1  0.25083091  0.25926268  0.30611643  1
  Se  Se188  1  0.24914482  0.25067580  0.80110419  1
  Se  Se189  1  0.24596431  0.58428912  0.30023617  1
  Se  Se190  1  0.24405483  0.57450552  0.81240173  1
  Se  Se191  1  0.25532382  0.92037570  0.30780849  1
  Se  Se192  1  0.23799957  0.90543491  0.80544683  1
  Se  Se193  1  0.57424735  0.25044957  0.31366828  1
  Se  Se194  1  0.58650229  0.25679693  0.79617630  1
  Se  Se195  1  0.58732697  0.58764904  0.30093944  1
  Se  Se196  1  0.58435348  0.59083996  0.79724442  1
  Se  Se197  1  0.57977581  0.90951610  0.31527836  1
  Se  Se198  1  0.57716549  0.91114806  0.81140295  1
  Se  Se199  1  0.91777084  0.25457475  0.29638900  1
  Se  Se200  1  0.90869571  0.24996819  0.81770790  1
  Se  Se201  1  0.91076172  0.57814772  0.31570723  1
  Se  Se202  1  0.91914859  0.58826835  0.80092336  1
  Se  Se203  1  0.91160150  0.90114560  0.30061438  1
  Se  Se204  1  0.91383494  0.91682599  0.79762662  1
  Se  Se205  1  0.09405806  0.09319701  0.31535658  1
  Se  Se206  1  0.08359285  0.08333391  0.79994096  1
  Se  Se207  1  0.06345690  0.40109045  0.31093375  1
  Se  Se208  1  0.09173734  0.42579263  0.81072824  1
  Se  Se209  1  0.09235978  0.75175435  0.31753810  1
  Se  Se210  1  0.08808026  0.74996712  0.79276322  1
  Se  Se211  1  0.41215740  0.08444002  0.30697401  1
  Se  Se212  1  0.42442738  0.09305551  0.80749000  1
  Se  Se213  1  0.41489944  0.41870276  0.30098598  1
  Se  Se214  1  0.41368552  0.41988799  0.79658319  1
  Se  Se215  1  0.41416899  0.74844356  0.30492501  1
  Se  Se216  1  0.41987994  0.74947011  0.81277311  1
  Se  Se217  1  0.76304890  0.08566611  0.30797034  1
  Se  Se218  1  0.75402537  0.09018833  0.81292407  1
  Se  Se219  1  0.75185241  0.42296240  0.31314984  1
  Se  Se220  1  0.74931862  0.42160640  0.80093367  1
  Se  Se221  1  0.74894642  0.75181797  0.30314464  1
  Se  Se222  1  0.74740561  0.75047775  0.79978642  1
  Se  Se223  1  0.25242593  0.08317675  0.20228787  1
  Se  Se224  1  0.24536016  0.08831097  0.68465718  1
  Se  Se225  1  0.24347985  0.41981616  0.20077481  1
  Se  Se226  1  0.25312395  0.41673755  0.69038799  1
  Se  Se227  1  0.25267552  0.74555807  0.20536141  1
  Se  Se228  1  0.24341663  0.76014244  0.69119262  1
  Se  Se229  1  0.57629321  0.09176687  0.19744083  1
  Se  Se230  1  0.57472568  0.08798978  0.68894743  1
  Se  Se231  1  0.57593781  0.42623350  0.18638531  1
  Se  Se232  1  0.58684832  0.41740969  0.69422196  1
  Se  Se233  1  0.58323150  0.75097028  0.19808620  1
  Se  Se234  1  0.58675915  0.74655551  0.69557168  1
  Se  Se235  1  0.91863009  0.08157064  0.18660089  1
  Se  Se236  1  0.91662738  0.08575901  0.70109860  1
  Se  Se237  1  0.91378783  0.41965998  0.19949675  1
  Se  Se238  1  0.91544394  0.42650172  0.69073036  1
  Se  Se239  1  0.91574475  0.74688162  0.19094822  1
  Se  Se240  1  0.91843964  0.74827429  0.69155326  1
  Se  Se241  1  0.08391764  0.24860002  0.19505295  1
  Se  Se242  1  0.08997699  0.25231730  0.68715741  1
  Se  Se243  1  0.09198055  0.56864191  0.19495427  1
  Se  Se244  1  0.08536372  0.58715389  0.69715064  1
  Se  Se245  1  0.09452434  0.90697450  0.19373956  1
  Se  Se246  1  0.07262547  0.93242179  0.68974544  1
  Se  Se247  1  0.41669630  0.25729273  0.19839974  1
  Se  Se248  1  0.41138665  0.25725631  0.69566961  1
  Se  Se249  1  0.41600918  0.58827791  0.19744959  1
  Se  Se250  1  0.41929562  0.57718272  0.68543795  1
  Se  Se251  1  0.41671672  0.92106340  0.20402599  1
  Se  Se252  1  0.41894658  0.90551096  0.69490697  1
  Se  Se253  1  0.75435872  0.24223847  0.19053682  1
  Se  Se254  1  0.74899437  0.25513258  0.70316570  1
  Se  Se255  1  0.74636873  0.58462746  0.19641440  1
  Se  Se256  1  0.74725143  0.58706742  0.69318410  1
  Se  Se257  1  0.75945911  0.90530624  0.18925467  1
  Se  Se258  1  0.75334258  0.91038885  0.68411262  1
