# generated using pymatgen
data_In86Cu29Se144
_symmetry_space_group_name_H-M   'P 1'
_cell_length_a   17.58482874
_cell_length_b   17.58696973
_cell_length_c   23.45374944
_cell_angle_alpha   90.01995564
_cell_angle_beta   89.99803774
_cell_angle_gamma   89.97743917
_symmetry_Int_Tables_number   1
_chemical_formula_structural   In86Cu29Se144
_chemical_formula_sum   'In86 Cu29 Se144'
_cell_volume   7253.39585862
_cell_formula_units_Z   1
loop_
 _symmetry_equiv_pos_site_id
 _symmetry_equiv_pos_as_xyz
  1  'x, y, z'
loop_
 _atom_site_type_symbol
 _atom_site_label
 _atom_site_symmetry_multiplicity
 _atom_site_fract_x
 _atom_site_fract_y
 _atom_site_fract_z
 _atom_site_occupancy
  In  In0  1  -0.00084889  0.15359541  0.12862691  1
  In  In1  1  0.00377926  0.15586861  0.62363285  1
  In  In2  1  -0.00397798  0.49625638  0.11352448  1
  In  In3  1  0.00243935  0.51598142  0.62660632  1
  In  In4  1  0.01848051  0.83947372  0.12877093  1
  In  In5  1  -0.00474504  0.81874931  0.62035374  1
  In  In6  1  0.32764651  0.15147894  0.11149271  1
  In  In7  1  0.34540872  0.17286622  0.61378506  1
  In  In8  1  0.34634586  0.51227123  0.11776384  1
  In  In9  1  0.33521869  0.48681526  0.62835912  1
  In  In10  1  0.30496916  0.85151214  0.14945174  1
  In  In11  1  0.33317074  0.84117810  0.61719798  1
  In  In12  1  0.65662662  0.18360926  0.13739797  1
  In  In13  1  0.65540958  0.17764022  0.62939771  1
  In  In14  1  0.65674323  0.49714486  0.12401455  1
  In  In15  1  0.66345993  0.49803520  0.62048505  1
  In  In16  1  0.66750735  0.83322072  0.13381912  1
  In  In17  1  0.66351317  0.83176410  0.62987057  1
  In  In18  1  0.17454408  -0.00173237  0.36908951  1
  In  In19  1  0.17054040  -0.00143052  0.88994306  1
  In  In20  1  0.15774530  0.33025197  0.37691305  1
  In  In21  1  0.18020056  0.32430183  0.88243200  1
  In  In22  1  0.18825510  0.67667423  0.36739176  1
  In  In23  1  0.16049548  0.67215828  0.87843842  1
  In  In24  1  0.50831513  0.00964059  0.36761985  1
  In  In25  1  0.50747317  -0.00518511  0.88103568  1
  In  In26  1  0.50635704  0.33120889  0.37743841  1
  In  In27  1  0.49444303  0.33896543  0.87112915  1
  In  In28  1  0.49067070  0.65504668  0.36870188  1
  In  In29  1  0.50218757  0.65248104  0.87520967  1
  In  In30  1  0.82444337  0.00122772  0.36514446  1
  In  In31  1  0.82435119  0.00822770  0.87724211  1
  In  In32  1  0.82737759  0.35006012  0.38404750  1
  In  In33  1  0.82743256  0.34965564  0.87587763  1
  In  In34  1  0.81880637  0.66194893  0.37345940  1
  In  In35  1  0.81955718  0.65124128  0.86687528  1
  In  In36  1  0.01507969  0.16714028  0.37672356  1
  In  In37  1  0.00796731  0.17004755  0.87789222  1
  In  In38  1  -0.00398765  0.49078439  0.37833285  1
  In  In39  1  -0.01133834  0.50720764  0.88164888  1
  In  In40  1  0.00619868  0.84863897  0.36821255  1
  In  In41  1  0.01142476  0.83069122  0.87717755  1
  In  In42  1  0.34668665  0.15846452  0.37688578  1
  In  In43  1  0.32577207  0.17300259  0.88284045  1
  In  In44  1  0.34891977  0.51541163  0.36829101  1
  In  In45  1  0.35107250  0.48872685  0.88563702  1
  In  In46  1  0.32143468  0.82493789  0.36456963  1
  In  In47  1  0.32727692  0.82992454  0.88199162  1
  In  In48  1  0.64727027  0.15268480  0.36766261  1
  In  In49  1  0.65164998  0.16311536  0.87031628  1
  In  In50  1  0.66175645  0.50241918  0.37958835  1
  In  In51  1  0.65936769  0.50032329  0.87207043  1
  In  In52  1  0.67036398  0.83438857  0.36732572  1
  In  In53  1  0.66861747  0.83171200  0.86950100  1
  In  In54  1  0.16957939  -0.00266774  0.12896210  1
  In  In55  1  0.17405115  0.00229862  0.61485756  1
  In  In56  1  0.17068629  0.33511643  0.11502725  1
  In  In57  1  0.18413980  0.33266339  0.62770818  1
  In  In58  1  0.17984578  0.67952807  0.11689880  1
  In  In59  1  0.15757680  0.66414364  0.62536502  1
  In  In60  1  0.48836943  0.01033135  0.12959052  1
  In  In61  1  0.50059335  0.01142777  0.62036936  1
  In  In62  1  0.50779301  0.33881508  0.11888086  1
  In  In63  1  0.50178312  0.33566189  0.62273255  1
  In  In64  1  0.49666223  0.66349722  0.13300083  1
  In  In65  1  0.51168036  0.66722413  0.62473301  1
  In  In66  1  0.82817116  0.01954016  0.14499212  1
  In  In67  1  0.82701399  -0.01198319  0.62296107  1
  In  In68  1  0.80713146  0.33393560  0.12510530  1
  In  In69  1  0.81009087  0.33596814  0.62780524  1
  In  In70  1  0.82948431  0.65002850  0.12420889  1
  In  In71  1  0.83785576  0.66030204  0.62557586  1
  In  In72  1  0.33628624  0.00291219  0.75397313  1
  In  In73  1  0.84364360  0.82985882  0.01044204  1
  In  In74  1  0.83713542  0.17164784  0.00519391  1
  In  In75  1  0.17187456  0.49834462  0.49898147  1
  In  In76  1  0.49561175  0.83139722  0.49769936  1
  In  In77  1  -0.00932019  0.32485481  0.24761672  1
  In  In78  1  0.48779683  0.83362695  0.00576112  1
  In  In79  1  -0.00495613  -0.00489495  0.75224311  1
  In  In80  1  0.33810827  0.65801894  0.74840069  1
  In  In81  1  0.83711505  0.83428626  0.48594436  1
  In  In82  1  -0.00310074  0.33656118  0.75869496  1
  In  In83  1  0.34283830  0.33505476  0.25131341  1
  In  In84  1  -0.00042202  0.66714757  0.24655566  1
  In  In85  1  0.82967504  0.16960021  0.50252338  1
  Cu  Cu86  1  0.66275668  0.33735691  -0.00114743  1
  Cu  Cu87  1  0.81734484  0.49633005  0.24978027  1
  Cu  Cu88  1  0.82735376  0.50196263  0.74846118  1
  Cu  Cu89  1  0.00871102  -0.00374780  0.00899973  1
  Cu  Cu90  1  0.49607456  0.16671756  0.24684672  1
  Cu  Cu91  1  0.50593007  0.83169681  0.75243341  1
  Cu  Cu92  1  0.81873692  0.16364912  0.75327268  1
  Cu  Cu93  1  0.65967166  0.65669704  -0.00150805  1
  Cu  Cu94  1  0.50172624  0.83112647  0.25304485  1
  Cu  Cu95  1  0.00543898  0.33263009  -0.00272590  1
  Cu  Cu96  1  -0.00049805  0.33247992  0.50139905  1
  Cu  Cu97  1  0.66913761  0.66368091  0.49956834  1
  Cu  Cu98  1  -0.00136857  0.66536969  0.00026097  1
  Cu  Cu99  1  0.32803556  0.66731779  0.00319425  1
  Cu  Cu100  1  0.00811796  0.66782979  0.49830761  1
  Cu  Cu101  1  0.01146686  0.00422446  0.49284700  1
  Cu  Cu102  1  0.49743311  0.17351403  0.74548271  1
  Cu  Cu103  1  0.66575054  0.00205383  0.00321329  1
  Cu  Cu104  1  0.16812194  0.50087665  0.75407422  1
  Cu  Cu105  1  0.33486883  0.33141155  0.49892441  1
  Cu  Cu106  1  0.17404980  0.17207548  0.75356952  1
  Cu  Cu107  1  0.65879118  0.33397559  0.50224659  1
  Cu  Cu108  1  0.83556434  0.83529966  0.24959146  1
  Cu  Cu109  1  0.32887043  -0.00345116  0.49104390  1
  Cu  Cu110  1  0.15927533  0.82864206  0.74869956  1
  Cu  Cu111  1  0.34039054  0.33340668  0.00050010  1
  Cu  Cu112  1  0.16832982  0.50310279  0.24309051  1
  Cu  Cu113  1  0.17219288  0.15955364  0.24941323  1
  Cu  Cu114  1  0.83041508  0.82737297  0.74526945  1
  Se  Se115  1  0.08895156  0.08531301  0.05846219  1
  Se  Se116  1  0.08895575  0.08822431  0.55018831  1
  Se  Se117  1  0.08759410  0.41962731  0.04841040  1
  Se  Se118  1  0.08095468  0.41175494  0.56425097  1
  Se  Se119  1  0.07991226  0.75046023  0.05350760  1
  Se  Se120  1  0.08908707  0.75178075  0.55126821  1
  Se  Se121  1  0.42928495  0.08691859  0.04786314  1
  Se  Se122  1  0.41352698  0.07711440  0.54643764  1
  Se  Se123  1  0.42206124  0.41972625  0.05181923  1
  Se  Se124  1  0.41569285  0.41607959  0.55251642  1
  Se  Se125  1  0.40162164  0.74770749  0.06865562  1
  Se  Se126  1  0.40951319  0.73875190  0.55866689  1
  Se  Se127  1  0.74426115  0.08312341  0.06278226  1
  Se  Se128  1  0.74130975  0.08020612  0.56267605  1
  Se  Se129  1  0.74604671  0.42229101  0.05067194  1
  Se  Se130  1  0.74905041  0.41706148  0.54899824  1
  Se  Se131  1  0.73910615  0.74058019  0.05726594  1
  Se  Se132  1  0.74992082  0.75002875  0.55528760  1
  Se  Se133  1  0.25313395  0.24986641  0.04957399  1
  Se  Se134  1  0.24854723  0.24942244  0.55072237  1
  Se  Se135  1  0.24546326  0.57817107  0.05263332  1
  Se  Se136  1  0.25674987  0.58611626  0.56321212  1
  Se  Se137  1  0.24845162  0.91141522  0.05979596  1
  Se  Se138  1  0.24769177  0.91299345  0.54578623  1
  Se  Se139  1  0.58677436  0.24715977  0.05229448  1
  Se  Se140  1  0.57615406  0.24561846  0.55136076  1
  Se  Se141  1  0.57430637  0.58427835  0.05732460  1
  Se  Se142  1  0.58220759  0.58316148  0.55080150  1
  Se  Se143  1  0.58747428  0.91904985  0.06166906  1
  Se  Se144  1  0.58891839  0.91976336  0.55704742  1
  Se  Se145  1  0.92578643  0.26161992  0.06595161  1
  Se  Se146  1  0.91990162  0.25843764  0.56679537  1
  Se  Se147  1  0.91102957  0.58132307  0.04827961  1
  Se  Se148  1  0.92188342  0.58733523  0.55089684  1
  Se  Se149  1  0.91738176  0.93179309  0.07052077  1
  Se  Se150  1  0.92791208  0.92414320  0.55186532  1
  Se  Se151  1  0.08566297  0.25008426  0.45228393  1
  Se  Se152  1  0.08877543  0.24551539  0.94908281  1
  Se  Se153  1  0.08540476  0.58814289  0.43420031  1
  Se  Se154  1  0.08246870  0.58313619  0.94612228  1
  Se  Se155  1  0.09146444  0.91644998  0.44193982  1
  Se  Se156  1  0.08394104  0.91081915  0.95173162  1
  Se  Se157  1  0.41948446  0.24987516  0.44435673  1
  Se  Se158  1  0.42160057  0.25156619  0.94366095  1
  Se  Se159  1  0.41850596  0.58468490  0.44862854  1
  Se  Se160  1  0.41777004  0.58849645  0.95180506  1
  Se  Se161  1  0.41286960  0.91950170  0.43148926  1
  Se  Se162  1  0.40207802  0.92870638  0.94538143  1
  Se  Se163  1  0.73783301  0.25299169  0.44045989  1
  Se  Se164  1  0.74462969  0.25324951  0.93992649  1
  Se  Se165  1  0.75458005  0.57842657  0.44969910  1
  Se  Se166  1  0.74629166  0.57780029  0.94481576  1
  Se  Se167  1  0.73837965  0.92898696  0.44240712  1
  Se  Se168  1  0.74687054  0.91746429  0.94827554  1
  Se  Se169  1  0.24873962  0.08668980  0.44078330  1
  Se  Se170  1  0.24921880  0.08771785  0.95145666  1
  Se  Se171  1  0.26009778  0.41202650  0.43387783  1
  Se  Se172  1  0.25302829  0.41739599  0.94931923  1
  Se  Se173  1  0.25570909  0.75024092  0.44616650  1
  Se  Se174  1  0.24418466  0.75077022  0.95012360  1
  Se  Se175  1  0.57531112  0.08511092  0.44790729  1
  Se  Se176  1  0.58338816  0.08412632  0.94911005  1
  Se  Se177  1  0.57797416  0.42019121  0.44861548  1
  Se  Se178  1  0.57970111  0.41802136  0.94286426  1
  Se  Se179  1  0.59191924  0.74668204  0.43914194  1
  Se  Se180  1  0.58513809  0.74919795  0.94342299  1
  Se  Se181  1  0.91860835  0.07895193  0.43981626  1
  Se  Se182  1  0.92705374  0.07338167  0.94593466  1
  Se  Se183  1  0.91680282  0.42145847  0.45518957  1
  Se  Se184  1  0.91542546  0.41426313  0.94947458  1
  Se  Se185  1  0.92924745  0.74050103  0.43054479  1
  Se  Se186  1  0.91603378  0.74176043  0.93754310  1
  Se  Se187  1  0.24631732  0.24676771  0.30921678  1
  Se  Se188  1  0.25871126  0.25425830  0.80422921  1
  Se  Se189  1  0.25252229  0.58005449  0.29922790  1
  Se  Se190  1  0.24930719  0.57878529  0.81591251  1
  Se  Se191  1  0.25450033  0.91995890  0.29708078  1
  Se  Se192  1  0.23893990  0.91021762  0.80801089  1
  Se  Se193  1  0.57820161  0.25023164  0.30118206  1
  Se  Se194  1  0.58014545  0.25452406  0.80267322  1
  Se  Se195  1  0.60259092  0.60118179  0.31036810  1
  Se  Se196  1  0.59062095  0.59274971  0.80199596  1
  Se  Se197  1  0.58616975  0.91836585  0.30153759  1
  Se  Se198  1  0.58456934  0.91936971  0.80562388  1
  Se  Se199  1  0.91038383  0.25005434  0.32228548  1
  Se  Se200  1  0.90438304  0.23893486  0.81294883  1
  Se  Se201  1  0.90952218  0.57190680  0.30523751  1
  Se  Se202  1  0.91712653  0.58010821  0.80126849  1
  Se  Se203  1  0.91595854  0.92149792  0.30105936  1
  Se  Se204  1  0.90423880  0.90589857  0.81311690  1
  Se  Se205  1  0.08474185  0.08254050  0.30371087  1
  Se  Se206  1  0.09381933  0.08500770  0.80775422  1
  Se  Se207  1  0.08728716  0.42246815  0.30168837  1
  Se  Se208  1  0.09076400  0.42145290  0.81775635  1
  Se  Se209  1  0.09045701  0.75724231  0.30297067  1
  Se  Se210  1  0.07820253  0.74543463  0.80203267  1
  Se  Se211  1  0.41408201  0.08012751  0.29811095  1
  Se  Se212  1  0.42609855  0.09205049  0.81247623  1
  Se  Se213  1  0.43637912  0.42710338  0.30352610  1
  Se  Se214  1  0.41948069  0.42767293  0.80179183  1
  Se  Se215  1  0.41604144  0.74656133  0.30211443  1
  Se  Se216  1  0.41989912  0.75744300  0.81113213  1
  Se  Se217  1  0.74821830  0.09181916  0.30179799  1
  Se  Se218  1  0.73881616  0.07710292  0.80524737  1
  Se  Se219  1  0.74145595  0.41442314  0.30872113  1
  Se  Se220  1  0.74527340  0.41768177  0.80129345  1
  Se  Se221  1  0.75252916  0.74881911  0.29980052  1
  Se  Se222  1  0.74720070  0.74624914  0.80155365  1
  Se  Se223  1  0.25813079  0.08281431  0.19437189  1
  Se  Se224  1  0.24881116  0.09047749  0.68968226  1
  Se  Se225  1  0.24967194  0.41938839  0.18808047  1
  Se  Se226  1  0.25110518  0.41606496  0.70304500  1
  Se  Se227  1  0.24931902  0.73644010  0.20269744  1
  Se  Se228  1  0.24946044  0.75671891  0.69101915  1
  Se  Se229  1  0.58329332  0.08190581  0.19659171  1
  Se  Se230  1  0.57935427  0.08371521  0.69611131  1
  Se  Se231  1  0.60016635  0.39567894  0.19281366  1
  Se  Se232  1  0.59981612  0.40138223  0.68886942  1
  Se  Se233  1  0.58377353  0.74785823  0.19810129  1
  Se  Se234  1  0.58660338  0.74637647  0.69954983  1
  Se  Se235  1  0.92175000  0.09336934  0.20867295  1
  Se  Se236  1  0.90342861  0.08859020  0.69330741  1
  Se  Se237  1  0.90606475  0.42343172  0.18997347  1
  Se  Se238  1  0.91236749  0.42140292  0.68960763  1
  Se  Se239  1  0.90890688  0.75570830  0.18417786  1
  Se  Se240  1  0.91817496  0.74583032  0.69561954  1
  Se  Se241  1  0.09581660  0.24681190  0.19140572  1
  Se  Se242  1  0.08513473  0.24555664  0.69473699  1
  Se  Se243  1  0.08501682  0.57805321  0.18297671  1
  Se  Se244  1  0.08570452  0.58491689  0.70189496  1
  Se  Se245  1  0.08286746  0.92484343  0.20156653  1
  Se  Se246  1  0.08713876  0.91399585  0.68639865  1
  Se  Se247  1  0.41780116  0.24366127  0.18251502  1
  Se  Se248  1  0.41296160  0.25305979  0.69093579  1
  Se  Se249  1  0.41771394  0.57514729  0.19994826  1
  Se  Se250  1  0.43115917  0.57141779  0.69128312  1
  Se  Se251  1  0.42070250  0.91536272  0.19850752  1
  Se  Se252  1  0.42452087  0.91025472  0.69188412  1
  Se  Se253  1  0.77089985  0.23204345  0.19718145  1
  Se  Se254  1  0.74116788  0.25225895  0.70172716  1
  Se  Se255  1  0.73998624  0.58238341  0.19463924  1
  Se  Se256  1  0.74716473  0.58283194  0.69005714  1
  Se  Se257  1  0.74796312  0.91964650  0.20062389  1
  Se  Se258  1  0.74762203  0.91583675  0.69767393  1
