# generated using pymatgen
data_In86Cu29Se144
_symmetry_space_group_name_H-M   'P 1'
_cell_length_a   17.58091029
_cell_length_b   17.58281672
_cell_length_c   23.44182209
_cell_angle_alpha   90.04486882
_cell_angle_beta   89.99285920
_cell_angle_gamma   90.00458288
_symmetry_Int_Tables_number   1
_chemical_formula_structural   In86Cu29Se144
_chemical_formula_sum   'In86 Cu29 Se144'
_cell_volume   7246.37883022
_cell_formula_units_Z   1
loop_
 _symmetry_equiv_pos_site_id
 _symmetry_equiv_pos_as_xyz
  1  'x, y, z'
loop_
 _atom_site_type_symbol
 _atom_site_label
 _atom_site_symmetry_multiplicity
 _atom_site_fract_x
 _atom_site_fract_y
 _atom_site_fract_z
 _atom_site_occupancy
  In  In0  1  0.00982346  0.17215510  0.12166280  1
  In  In1  1  0.00445996  0.15317250  0.62666050  1
  In  In2  1  -0.00576367  0.49106566  0.12672139  1
  In  In3  1  0.01087179  0.50829970  0.61871675  1
  In  In4  1  -0.00210812  0.83591184  0.11942212  1
  In  In5  1  -0.00018138  0.83633185  0.63333096  1
  In  In6  1  0.33182435  0.16628498  0.12477005  1
  In  In7  1  0.33958856  0.17557835  0.61704968  1
  In  In8  1  0.32792766  0.50055769  0.13429112  1
  In  In9  1  0.31939788  0.50255034  0.63345096  1
  In  In10  1  0.32624300  0.83548030  0.13197283  1
  In  In11  1  0.33583440  0.82333354  0.62500929  1
  In  In12  1  0.66145265  0.16892495  0.12303676  1
  In  In13  1  0.66529770  0.17678881  0.62499081  1
  In  In14  1  0.65732827  0.49538062  0.12701584  1
  In  In15  1  0.67331737  0.49303779  0.62710461  1
  In  In16  1  0.68409479  0.84221690  0.12256854  1
  In  In17  1  0.65026708  0.83305362  0.62635938  1
  In  In18  1  0.18143187  -0.00591633  0.37462898  1
  In  In19  1  0.15831225  0.00833157  0.88277869  1
  In  In20  1  0.16496099  0.33167178  0.37647959  1
  In  In21  1  0.16704357  0.32689023  0.87324132  1
  In  In22  1  0.16524707  0.65569254  0.37759493  1
  In  In23  1  0.18323854  0.68347222  0.86207573  1
  In  In24  1  0.49866499  0.00123066  0.37414007  1
  In  In25  1  0.51081059  0.00409661  0.87702763  1
  In  In26  1  0.48844559  0.32018279  0.36709322  1
  In  In27  1  0.49826526  0.32934739  0.87302102  1
  In  In28  1  0.49948480  0.68184818  0.37850422  1
  In  In29  1  0.48959438  0.66089520  0.85792887  1
  In  In30  1  0.83535725  0.01087040  0.36789130  1
  In  In31  1  0.84019374  -0.00544190  0.88453706  1
  In  In32  1  0.84141246  0.33693114  0.36875491  1
  In  In33  1  0.82221531  0.33349743  0.87831899  1
  In  In34  1  0.82565898  0.66211366  0.38022580  1
  In  In35  1  0.84271883  0.67619874  0.86677989  1
  In  In36  1  -0.00506694  0.17653535  0.37638533  1
  In  In37  1  0.00721945  0.15908790  0.88268584  1
  In  In38  1  0.01094403  0.49337577  0.38721953  1
  In  In39  1  -0.00070424  0.50355398  0.86700920  1
  In  In40  1  0.01191452  0.83611151  0.37114384  1
  In  In41  1  -0.00008691  0.83945423  0.87605142  1
  In  In42  1  0.33279855  0.16637637  0.37441704  1
  In  In43  1  0.32985805  0.17060298  0.88271063  1
  In  In44  1  0.32541124  0.48774668  0.37122998  1
  In  In45  1  0.33464097  0.50567571  0.86324410  1
  In  In46  1  0.34033412  0.84851978  0.36080461  1
  In  In47  1  0.32987763  0.81478018  0.87857581  1
  In  In48  1  0.65550884  0.15579573  0.36680175  1
  In  In49  1  0.66299239  0.18005854  0.88977581  1
  In  In50  1  0.68035975  0.49963718  0.37735778  1
  In  In51  1  0.65964345  0.49495639  0.86533887  1
  In  In52  1  0.65525420  0.82911800  0.37203502  1
  In  In53  1  0.67474221  0.83864859  0.87387061  1
  In  In54  1  0.16835400  0.00223092  0.12272444  1
  In  In55  1  0.15318604  0.00404618  0.62138559  1
  In  In56  1  0.17868431  0.32012188  0.13543092  1
  In  In57  1  0.17825942  0.34095368  0.61841989  1
  In  In58  1  0.17626260  0.67950978  0.11823202  1
  In  In59  1  0.17216228  0.65518169  0.63904762  1
  In  In60  1  0.48647418  0.01235964  0.13112831  1
  In  In61  1  0.49589092  -0.00238265  0.61464472  1
  In  In62  1  0.51020874  0.31757154  0.13482020  1
  In  In63  1  0.50271897  0.32782280  0.62637383  1
  In  In64  1  0.49312399  0.65942746  0.12473960  1
  In  In65  1  0.48969601  0.67821575  0.63375030  1
  In  In66  1  0.81873984  -0.00926524  0.12369638  1
  In  In67  1  0.84461041  0.00732778  0.62742291  1
  In  In68  1  0.83694627  0.32714435  0.12964226  1
  In  In69  1  0.81611568  0.33159906  0.62668150  1
  In  In70  1  0.82790406  0.67513710  0.11854485  1
  In  In71  1  0.84626198  0.65804508  0.63442204  1
  In  In72  1  0.00389354  0.66342153  0.24493723  1
  In  In73  1  0.49920945  0.83560760  -0.00212931  1
  In  In74  1  0.49854350  0.49712194  0.50222696  1
  In  In75  1  0.17211840  0.83329013  0.49856743  1
  In  In76  1  0.66296039  0.66708400  0.24832135  1
  In  In77  1  0.33057134  -0.00425162  0.74518737  1
  In  In78  1  0.49617370  0.49630239  -0.00818630  1
  In  In79  1  0.67000774  0.00026597  0.75763871  1
  In  In80  1  0.83239492  0.83121517  0.50341554  1
  In  In81  1  0.83372653  0.17107224  0.49883377  1
  In  In82  1  0.16730433  0.50077249  -0.00617126  1
  In  In83  1  -0.00007385  0.00131245  0.24439451  1
  In  In84  1  0.83243604  0.49882214  0.00208762  1
  In  In85  1  0.00400030  0.33911601  0.75080808  1
  Cu  Cu86  1  0.00076250  0.67889754  -0.00737271  1
  Cu  Cu87  1  0.82469550  0.16861257  0.24717461  1
  Cu  Cu88  1  0.83765713  0.49474402  0.25251577  1
  Cu  Cu89  1  0.16222585  0.83706813  0.75168367  1
  Cu  Cu90  1  0.16900015  0.16898882  0.75666211  1
  Cu  Cu91  1  0.67051323  0.67091654  -0.00798604  1
  Cu  Cu92  1  0.33066703  0.00149847  0.00590715  1
  Cu  Cu93  1  0.32763955  0.33009685  0.49519375  1
  Cu  Cu94  1  0.34009816  0.33059461  0.00610401  1
  Cu  Cu95  1  0.16278441  0.49324489  0.25573540  1
  Cu  Cu96  1  0.49937337  0.83876077  0.24892846  1
  Cu  Cu97  1  0.49700744  0.49799900  0.25065796  1
  Cu  Cu98  1  0.49677810  0.16445175  0.24939113  1
  Cu  Cu99  1  0.83333939  0.83590433  0.75446232  1
  Cu  Cu100  1  0.66222300  0.32954643  0.49963831  1
  Cu  Cu101  1  -0.00320512  0.00123335  0.00384327  1
  Cu  Cu102  1  0.66281887  -0.00108886  0.49473981  1
  Cu  Cu103  1  0.33294720  0.66541869  0.50495533  1
  Cu  Cu104  1  0.82967800  0.49875900  0.74988564  1
  Cu  Cu105  1  0.00198892  0.66585748  0.50664794  1
  Cu  Cu106  1  0.16745030  0.16803607  0.25027998  1
  Cu  Cu107  1  0.66699579  0.66304076  0.50170085  1
  Cu  Cu108  1  0.50274862  0.49590456  0.74288720  1
  Cu  Cu109  1  0.83576928  0.16680022  0.75123072  1
  Cu  Cu110  1  0.33823230  0.00265079  0.49310488  1
  Cu  Cu111  1  -0.00142011  0.33619795  0.49869209  1
  Cu  Cu112  1  0.00620616  0.32763858  0.00119527  1
  Cu  Cu113  1  0.50186084  0.16823776  0.75067665  1
  Cu  Cu114  1  0.66521379  0.00861515  0.00199552  1
  Se  Se115  1  0.08562829  0.08373553  0.05342434  1
  Se  Se116  1  0.08447724  0.08901984  0.54893168  1
  Se  Se117  1  0.08572616  0.40964533  0.06044716  1
  Se  Se118  1  0.08512486  0.41634653  0.55266237  1
  Se  Se119  1  0.08331034  0.75352886  0.05274161  1
  Se  Se120  1  0.08337599  0.74794206  0.56382787  1
  Se  Se121  1  0.41638284  0.08784610  0.05233620  1
  Se  Se122  1  0.41859342  0.08692446  0.54956604  1
  Se  Se123  1  0.41577135  0.41449695  0.06514610  1
  Se  Se124  1  0.40528675  0.40971743  0.56012174  1
  Se  Se125  1  0.41040855  0.74635994  0.05772080  1
  Se  Se126  1  0.41989002  0.75066739  0.55156311  1
  Se  Se127  1  0.75119994  0.08691132  0.05669652  1
  Se  Se128  1  0.74339246  0.07542284  0.55804865  1
  Se  Se129  1  0.74244835  0.40977825  0.05990642  1
  Se  Se130  1  0.74720746  0.41337185  0.55016514  1
  Se  Se131  1  0.75011778  0.75509456  0.04668308  1
  Se  Se132  1  0.74586930  0.74219795  0.56513782  1
  Se  Se133  1  0.24894183  0.24968733  0.05408608  1
  Se  Se134  1  0.24509190  0.24561193  0.54928656  1
  Se  Se135  1  0.26088496  0.58511058  0.05416767  1
  Se  Se136  1  0.24798603  0.58579961  0.55849095  1
  Se  Se137  1  0.25046301  0.91404387  0.05648046  1
  Se  Se138  1  0.26057055  0.92634435  0.56030745  1
  Se  Se139  1  0.57799098  0.24984657  0.05347699  1
  Se  Se140  1  0.57937338  0.24609230  0.55173384  1
  Se  Se141  1  0.59157363  0.59082767  0.05238050  1
  Se  Se142  1  0.58451517  0.58759015  0.56397919  1
  Se  Se143  1  0.58455025  0.92524569  0.06176849  1
  Se  Se144  1  0.58225332  0.91401752  0.54907384  1
  Se  Se145  1  0.91875048  0.25173777  0.05609190  1
  Se  Se146  1  0.92206041  0.25748941  0.56396447  1
  Se  Se147  1  0.92866980  0.59353827  0.05619029  1
  Se  Se148  1  0.91337416  0.58172808  0.55376069  1
  Se  Se149  1  0.91087572  0.91749162  0.05469235  1
  Se  Se150  1  0.92730314  0.92367777  0.55587485  1
  Se  Se151  1  0.08044592  0.25037949  0.44705231  1
  Se  Se152  1  0.09128958  0.24778715  0.94687850  1
  Se  Se153  1  0.08796736  0.58323858  0.45433017  1
  Se  Se154  1  0.07725942  0.59261124  0.93619301  1
  Se  Se155  1  0.07866705  0.92648405  0.44417367  1
  Se  Se156  1  0.08079085  0.91815558  0.94917384  1
  Se  Se157  1  0.41615856  0.24780241  0.44631134  1
  Se  Se158  1  0.42104161  0.25009017  0.94747616  1
  Se  Se159  1  0.41062159  0.58694649  0.44006733  1
  Se  Se160  1  0.40722280  0.59365706  0.93983833  1
  Se  Se161  1  0.41726117  0.91281392  0.44223293  1
  Se  Se162  1  0.40688632  0.92586699  0.93802553  1
  Se  Se163  1  0.74213047  0.25277751  0.43521837  1
  Se  Se164  1  0.76348272  0.24627387  0.95347225  1
  Se  Se165  1  0.75323843  0.57936690  0.45346252  1
  Se  Se166  1  0.74772686  0.58478485  0.93432283  1
  Se  Se167  1  0.74821801  0.92155070  0.43743445  1
  Se  Se168  1  0.74432678  0.91984021  0.94941797  1
  Se  Se169  1  0.24946748  0.08437313  0.44512377  1
  Se  Se170  1  0.24875965  0.08519903  0.94958390  1
  Se  Se171  1  0.24434730  0.41832626  0.44734868  1
  Se  Se172  1  0.26487148  0.40974024  0.93999097  1
  Se  Se173  1  0.26140966  0.74594149  0.43719800  1
  Se  Se174  1  0.24104636  0.74921279  0.94990700  1
  Se  Se175  1  0.57946037  0.08535132  0.44542150  1
  Se  Se176  1  0.57820311  0.08867129  0.95085760  1
  Se  Se177  1  0.58449607  0.40997199  0.43688585  1
  Se  Se178  1  0.59547141  0.40684999  0.94323283  1
  Se  Se179  1  0.58712533  0.75093781  0.45091609  1
  Se  Se180  1  0.58197970  0.74259304  0.93331182  1
  Se  Se181  1  0.92358942  0.07510285  0.44443720  1
  Se  Se182  1  0.91530062  0.08713825  0.95096174  1
  Se  Se183  1  0.91084796  0.41646794  0.44674461  1
  Se  Se184  1  0.92909676  0.41214431  0.94194784  1
  Se  Se185  1  0.92844146  0.74508302  0.44101412  1
  Se  Se186  1  0.91012247  0.75790374  0.94372374  1
  Se  Se187  1  0.24906143  0.25098794  0.30669687  1
  Se  Se188  1  0.25671073  0.24982397  0.80588879  1
  Se  Se189  1  0.24724350  0.57920214  0.30556116  1
  Se  Se190  1  0.24888903  0.58512675  0.79773602  1
  Se  Se191  1  0.24378437  0.91634341  0.29583244  1
  Se  Se192  1  0.24299150  0.91553382  0.81351623  1
  Se  Se193  1  0.58320672  0.24962027  0.30017899  1
  Se  Se194  1  0.58686180  0.24545226  0.80765275  1
  Se  Se195  1  0.57680479  0.57750951  0.31319279  1
  Se  Se196  1  0.58376903  0.58181470  0.79667930  1
  Se  Se197  1  0.58349764  0.91899915  0.30371833  1
  Se  Se198  1  0.57220082  0.90607569  0.80546050  1
  Se  Se199  1  0.91453620  0.24598129  0.29990909  1
  Se  Se200  1  0.91599973  0.24819711  0.81205347  1
  Se  Se201  1  0.91563377  0.57816914  0.31205444  1
  Se  Se202  1  0.91518258  0.58323209  0.79935548  1
  Se  Se203  1  0.91258261  0.90809083  0.30673820  1
  Se  Se204  1  0.91553190  0.92237457  0.80602333  1
  Se  Se205  1  0.08606496  0.08780280  0.31068703  1
  Se  Se206  1  0.08314801  0.08440348  0.80510731  1
  Se  Se207  1  0.07656117  0.41337721  0.30823017  1
  Se  Se208  1  0.10045052  0.42873321  0.80506057  1
  Se  Se209  1  0.09659837  0.75221295  0.30441770  1
  Se  Se210  1  0.07758082  0.75401804  0.80483548  1
  Se  Se211  1  0.41409757  0.08186286  0.30497040  1
  Se  Se212  1  0.42071899  0.08568782  0.80789218  1
  Se  Se213  1  0.41311437  0.41309297  0.30204009  1
  Se  Se214  1  0.42245461  0.41682220  0.80372011  1
  Se  Se215  1  0.42011908  0.74993567  0.30136236  1
  Se  Se216  1  0.40859603  0.75403184  0.79877091  1
  Se  Se217  1  0.74585706  0.08015584  0.29847919  1
  Se  Se218  1  0.75680416  0.09174602  0.81695714  1
  Se  Se219  1  0.74824210  0.41488458  0.30294499  1
  Se  Se220  1  0.74959372  0.41170673  0.80214397  1
  Se  Se221  1  0.75776249  0.75364948  0.30748524  1
  Se  Se222  1  0.74683102  0.75132597  0.80269455  1
  Se  Se223  1  0.24744177  0.08401969  0.19428209  1
  Se  Se224  1  0.24427495  0.09187874  0.68856663  1
  Se  Se225  1  0.25090780  0.41306370  0.20222120  1
  Se  Se226  1  0.25392904  0.40381712  0.69871088  1
  Se  Se227  1  0.25997242  0.73521441  0.19689892  1
  Se  Se228  1  0.24779146  0.75629518  0.69762538  1
  Se  Se229  1  0.58315969  0.08387121  0.19539510  1
  Se  Se230  1  0.57867197  0.08372641  0.69084713  1
  Se  Se231  1  0.58325212  0.41549505  0.20001100  1
  Se  Se232  1  0.58754464  0.41004637  0.69355182  1
  Se  Se233  1  0.57763376  0.75891351  0.18525174  1
  Se  Se234  1  0.58871910  0.74438166  0.69908884  1
  Se  Se235  1  0.90848687  0.09061095  0.18613306  1
  Se  Se236  1  0.92142345  0.08281650  0.70250551  1
  Se  Se237  1  0.92009978  0.41055216  0.19948970  1
  Se  Se238  1  0.91008985  0.42057332  0.68731794  1
  Se  Se239  1  0.90857277  0.75563058  0.19221539  1
  Se  Se240  1  0.91755548  0.75309424  0.70038718  1
  Se  Se241  1  0.07951997  0.25101383  0.20022571  1
  Se  Se242  1  0.08991211  0.24561835  0.69121780  1
  Se  Se243  1  0.09492897  0.57274284  0.18556202  1
  Se  Se244  1  0.06808388  0.58993049  0.69883020  1
  Se  Se245  1  0.09070133  0.90586337  0.19184822  1
  Se  Se246  1  0.08311244  0.92378771  0.69805083  1
  Se  Se247  1  0.41063112  0.24846365  0.19793448  1
  Se  Se248  1  0.41700726  0.24719153  0.69515390  1
  Se  Se249  1  0.41562370  0.58450565  0.19935288  1
  Se  Se250  1  0.41502813  0.58051161  0.69502562  1
  Se  Se251  1  0.41222698  0.91994575  0.19710287  1
  Se  Se252  1  0.42802765  0.90890584  0.69107124  1
  Se  Se253  1  0.74235700  0.25322479  0.19458850  1
  Se  Se254  1  0.74707248  0.24654127  0.70105625  1
  Se  Se255  1  0.76014496  0.57604291  0.19036254  1
  Se  Se256  1  0.74782189  0.58328698  0.69604773  1
  Se  Se257  1  0.74857887  0.91635798  0.20303123  1
  Se  Se258  1  0.75644344  0.91419319  0.68898493  1
