# generated using pymatgen
data_In86Cu29Se144
_symmetry_space_group_name_H-M   'P 1'
_cell_length_a   17.57905013
_cell_length_b   17.57829621
_cell_length_c   23.43351029
_cell_angle_alpha   90.00533996
_cell_angle_beta   89.99633201
_cell_angle_gamma   90.00670299
_symmetry_Int_Tables_number   1
_chemical_formula_structural   In86Cu29Se144
_chemical_formula_sum   'In86 Cu29 Se144'
_cell_volume   7241.18306933
_cell_formula_units_Z   1
loop_
 _symmetry_equiv_pos_site_id
 _symmetry_equiv_pos_as_xyz
  1  'x, y, z'
loop_
 _atom_site_type_symbol
 _atom_site_label
 _atom_site_symmetry_multiplicity
 _atom_site_fract_x
 _atom_site_fract_y
 _atom_site_fract_z
 _atom_site_occupancy
  In  In0  1  -0.01603408  0.16791720  0.12057453  1
  In  In1  1  0.00554828  0.16497487  0.63775929  1
  In  In2  1  0.02872636  0.52846742  0.08907324  1
  In  In3  1  0.00492817  0.49415627  0.63234251  1
  In  In4  1  0.01314573  0.82950127  0.11932945  1
  In  In5  1  -0.00131342  0.83452080  0.63611264  1
  In  In6  1  0.33307858  0.15376075  0.12897540  1
  In  In7  1  0.33790128  0.17566191  0.61611316  1
  In  In8  1  0.33661391  0.52963232  0.12918950  1
  In  In9  1  0.34265477  0.51991537  0.60916114  1
  In  In10  1  0.32764904  0.83325523  0.12684643  1
  In  In11  1  0.33227782  0.81101977  0.62316866  1
  In  In12  1  0.67900730  0.17760977  0.11303760  1
  In  In13  1  0.66122275  0.17839121  0.63613738  1
  In  In14  1  0.67103481  0.49433898  0.12551738  1
  In  In15  1  0.66501154  0.50072089  0.63301916  1
  In  In16  1  0.67185869  0.82693603  0.11926478  1
  In  In17  1  0.65188728  0.83470832  0.62668366  1
  In  In18  1  0.17231732  0.00100695  0.36981167  1
  In  In19  1  0.15300603  0.00155979  0.87834511  1
  In  In20  1  0.16812610  0.33147303  0.38355026  1
  In  In21  1  0.15947874  0.35056863  0.87839958  1
  In  In22  1  0.16609484  0.66346987  0.37199511  1
  In  In23  1  0.16197546  0.66294605  0.88242075  1
  In  In24  1  0.48732726  0.00902870  0.38050468  1
  In  In25  1  0.51472053  0.00909438  0.87781728  1
  In  In26  1  0.50419386  0.32943184  0.38107925  1
  In  In27  1  0.50961096  0.31613279  0.87108639  1
  In  In28  1  0.48480290  0.67466416  0.39068187  1
  In  In29  1  0.49119269  0.65547876  0.86656193  1
  In  In30  1  0.84139920  -0.00774749  0.36795002  1
  In  In31  1  0.83956325  -0.01539289  0.89144551  1
  In  In32  1  0.82570271  0.34646916  0.36665794  1
  In  In33  1  0.83283862  0.32907992  0.86915348  1
  In  In34  1  0.83944300  0.65555680  0.36609330  1
  In  In35  1  0.83832166  0.66729899  0.88052154  1
  In  In36  1  0.01007710  0.16480231  0.37643449  1
  In  In37  1  -0.02140460  0.14804285  0.85347452  1
  In  In38  1  0.00049900  0.51163379  0.37059991  1
  In  In39  1  -0.00049416  0.50096688  0.87479235  1
  In  In40  1  0.00924029  0.83413055  0.36381341  1
  In  In41  1  -0.00035601  0.82687860  0.88454642  1
  In  In42  1  0.33585668  0.16322510  0.37922698  1
  In  In43  1  0.34502184  0.17446607  0.87653023  1
  In  In44  1  0.32781368  0.50899897  0.38252120  1
  In  In45  1  0.32132625  0.50346093  0.87877153  1
  In  In46  1  0.33324702  0.83339979  0.37330545  1
  In  In47  1  0.32832073  0.81065022  0.88337709  1
  In  In48  1  0.65220452  0.17027354  0.37591715  1
  In  In49  1  0.65831062  0.16800843  0.87895616  1
  In  In50  1  0.66647504  0.48615406  0.36694480  1
  In  In51  1  0.67624234  0.50890536  0.86470365  1
  In  In52  1  0.66311954  0.81838317  0.37425339  1
  In  In53  1  0.68154990  0.83718704  0.87963690  1
  In  In54  1  0.17798974  -0.01490826  0.12984326  1
  In  In55  1  0.15315654  0.00090838  0.62795846  1
  In  In56  1  0.15739478  0.33817325  0.12256274  1
  In  In57  1  0.16998320  0.33919987  0.62088787  1
  In  In58  1  0.16928564  0.66849642  0.11959515  1
  In  In59  1  0.17238278  0.65739634  0.63377521  1
  In  In60  1  0.48543705  0.00030295  0.12857378  1
  In  In61  1  0.49697842  -0.00338845  0.61695195  1
  In  In62  1  0.52081072  0.34441776  0.13248315  1
  In  In63  1  0.50101727  0.33605662  0.62336000  1
  In  In64  1  0.48812732  0.66462345  0.13148762  1
  In  In65  1  0.50202575  0.66223823  0.62664111  1
  In  In66  1  0.84057402  0.01282299  0.11445953  1
  In  In67  1  0.84056823  0.01221294  0.63618182  1
  In  In68  1  0.83161249  0.33450449  0.11561598  1
  In  In69  1  0.82480583  0.32968032  0.64403060  1
  In  In70  1  0.86503181  0.69153776  0.08917705  1
  In  In71  1  0.83627203  0.66286911  0.63902663  1
  In  In72  1  0.82866237  0.16966952  0.51712936  1
  In  In73  1  0.83500326  0.50026729  0.49817879  1
  In  In74  1  0.16909345  0.83460698  0.49814973  1
  In  In75  1  0.16142284  0.17211396  -0.00191434  1
  In  In76  1  0.67025181  0.65730056  0.24326712  1
  In  In77  1  0.67197932  -0.00385628  0.75214891  1
  In  In78  1  0.32955938  -0.00297918  0.75369902  1
  In  In79  1  0.82772912  0.83316819  0.49993679  1
  In  In80  1  0.33358723  0.34199562  0.74501030  1
  In  In81  1  0.66351679  0.00248103  0.24474701  1
  In  In82  1  -0.00928637  0.33638557  0.24335610  1
  In  In83  1  0.50361927  0.83892901  0.00130907  1
  In  In84  1  0.33215102  0.33633659  0.25902783  1
  In  In85  1  0.49742132  0.49844666  0.00353242  1
  Cu  Cu86  1  0.66501882  0.32932746  0.50247767  1
  Cu  Cu87  1  -0.00094899  0.01145984  0.50581282  1
  Cu  Cu88  1  0.49611765  0.82173562  0.74968364  1
  Cu  Cu89  1  0.16628899  0.82142479  0.24645365  1
  Cu  Cu90  1  0.49209036  0.83612468  0.25437715  1
  Cu  Cu91  1  0.00139690  -0.00096896  0.00061709  1
  Cu  Cu92  1  0.34221068  0.33380170  0.00014520  1
  Cu  Cu93  1  0.15805074  0.82962685  0.75586309  1
  Cu  Cu94  1  0.82914588  0.16812001  0.24072849  1
  Cu  Cu95  1  0.83930751  0.82969098  0.76119830  1
  Cu  Cu96  1  0.16359299  0.50464911  0.24565640  1
  Cu  Cu97  1  0.00758245  0.33461838  0.50536490  1
  Cu  Cu98  1  0.65506147  -0.00060984  0.49965164  1
  Cu  Cu99  1  0.00469042  0.66840018  0.49701698  1
  Cu  Cu100  1  0.66642702  0.66473516  -0.00628015  1
  Cu  Cu101  1  0.66541884  0.33445156  -0.00451556  1
  Cu  Cu102  1  0.16856707  0.17451210  0.74907424  1
  Cu  Cu103  1  0.83049676  0.50122358  0.75783607  1
  Cu  Cu104  1  -0.00901934  0.32845238  -0.00976328  1
  Cu  Cu105  1  0.33191598  0.33539624  0.49773997  1
  Cu  Cu106  1  0.16426823  0.51145994  0.75341254  1
  Cu  Cu107  1  0.84693654  0.83146366  0.23796941  1
  Cu  Cu108  1  0.65952711  0.66241014  0.50354007  1
  Cu  Cu109  1  0.50020512  0.17254843  0.25492987  1
  Cu  Cu110  1  0.50013352  0.49425409  0.74452965  1
  Cu  Cu111  1  0.16066317  0.15104612  0.24939005  1
  Cu  Cu112  1  0.33801992  0.00104197  0.00323477  1
  Cu  Cu113  1  0.32903089  0.00089063  0.49691474  1
  Cu  Cu114  1  0.84053755  0.50585341  0.23335737  1
  Se  Se115  1  0.08328062  0.07768123  0.06328250  1
  Se  Se116  1  0.08312372  0.09232041  0.55830184  1
  Se  Se117  1  0.08202342  0.40406875  0.04287472  1
  Se  Se118  1  0.08536284  0.42606286  0.55456496  1
  Se  Se119  1  0.09324446  0.75118986  0.04685953  1
  Se  Se120  1  0.07684493  0.75033051  0.56118039  1
  Se  Se121  1  0.41879488  0.08770183  0.05330284  1
  Se  Se122  1  0.41448665  0.08294056  0.55136098  1
  Se  Se123  1  0.41041722  0.41265216  0.06948384  1
  Se  Se124  1  0.41662291  0.41450856  0.55406340  1
  Se  Se125  1  0.41184186  0.74499477  0.05573426  1
  Se  Se126  1  0.42246452  0.74387554  0.55511246  1
  Se  Se127  1  0.74825971  0.08287938  0.04817329  1
  Se  Se128  1  0.73574047  0.07032329  0.56557575  1
  Se  Se129  1  0.74650690  0.41920522  0.04906572  1
  Se  Se130  1  0.75025475  0.40736555  0.56092339  1
  Se  Se131  1  0.74724992  0.75612865  0.04158902  1
  Se  Se132  1  0.74587873  0.73924667  0.56251272  1
  Se  Se133  1  0.25797753  0.25470081  0.06088998  1
  Se  Se134  1  0.24724468  0.25239687  0.55110117  1
  Se  Se135  1  0.23801878  0.56567494  0.05552896  1
  Se  Se136  1  0.23807789  0.58803958  0.55141337  1
  Se  Se137  1  0.25378830  0.91475417  0.05121824  1
  Se  Se138  1  0.25568789  0.92312535  0.56456430  1
  Se  Se139  1  0.58132959  0.25913823  0.05491685  1
  Se  Se140  1  0.58330309  0.24619970  0.55681956  1
  Se  Se141  1  0.58731980  0.59487712  0.06047312  1
  Se  Se142  1  0.58451251  0.57445046  0.55843088  1
  Se  Se143  1  0.58875193  0.92910477  0.06371345  1
  Se  Se144  1  0.57690133  0.90892326  0.54985415  1
  Se  Se145  1  0.90989116  0.24627711  0.04646768  1
  Se  Se146  1  0.92373356  0.26338537  0.56756266  1
  Se  Se147  1  0.90051994  0.56368291  0.04334276  1
  Se  Se148  1  0.92183578  0.59215013  0.55892322  1
  Se  Se149  1  0.92104161  0.91568627  0.05652368  1
  Se  Se150  1  0.91936895  0.92454666  0.56049857  1
  Se  Se151  1  0.08289402  0.24715320  0.44942309  1
  Se  Se152  1  0.07149734  0.24723511  0.92994858  1
  Se  Se153  1  0.08420856  0.58224664  0.44418459  1
  Se  Se154  1  0.08802825  0.56838326  0.94815930  1
  Se  Se155  1  0.07178757  0.92519024  0.44339387  1
  Se  Se156  1  0.08567245  0.91447742  0.95046413  1
  Se  Se157  1  0.41588139  0.24924207  0.44668752  1
  Se  Se158  1  0.42548119  0.25072532  0.94921247  1
  Se  Se159  1  0.42296658  0.57148450  0.45296701  1
  Se  Se160  1  0.40676327  0.59160607  0.94780574  1
  Se  Se161  1  0.41214413  0.91550288  0.44529500  1
  Se  Se162  1  0.41125298  0.92296173  0.93575946  1
  Se  Se163  1  0.75078290  0.25538084  0.44147521  1
  Se  Se164  1  0.74868819  0.25175017  0.94185778  1
  Se  Se165  1  0.74280786  0.59045497  0.43895308  1
  Se  Se166  1  0.74989359  0.57922976  0.94415475  1
  Se  Se167  1  0.73909315  0.92595636  0.43791038  1
  Se  Se168  1  0.73477081  0.92630376  0.95564730  1
  Se  Se169  1  0.24430673  0.08326219  0.44456186  1
  Se  Se170  1  0.25751300  0.08128015  0.94058607  1
  Se  Se171  1  0.24599413  0.41993456  0.44852354  1
  Se  Se172  1  0.25337065  0.41318927  0.95019777  1
  Se  Se173  1  0.25724367  0.73985807  0.44406539  1
  Se  Se174  1  0.23595396  0.75111894  0.95482278  1
  Se  Se175  1  0.57732894  0.08788721  0.44735580  1
  Se  Se176  1  0.57816183  0.09131086  0.95300857  1
  Se  Se177  1  0.59019200  0.41674414  0.44604806  1
  Se  Se178  1  0.58660811  0.41775839  0.93621792  1
  Se  Se179  1  0.58296901  0.75297130  0.45147745  1
  Se  Se180  1  0.58121808  0.74201328  0.93526938  1
  Se  Se181  1  0.91194369  0.08319419  0.44523110  1
  Se  Se182  1  0.92367504  0.08578667  0.94561649  1
  Se  Se183  1  0.92697915  0.40748332  0.43914920  1
  Se  Se184  1  0.91057028  0.41641825  0.93947341  1
  Se  Se185  1  0.92069813  0.74576194  0.43780683  1
  Se  Se186  1  0.90924563  0.75332254  0.95364651  1
  Se  Se187  1  0.23620856  0.23851423  0.30817707  1
  Se  Se188  1  0.24671051  0.25170621  0.81156434  1
  Se  Se189  1  0.24947001  0.57983868  0.30370834  1
  Se  Se190  1  0.25046450  0.59004500  0.80749164  1
  Se  Se191  1  0.24479447  0.90755351  0.30376049  1
  Se  Se192  1  0.24270845  0.90720488  0.81572837  1
  Se  Se193  1  0.58588279  0.25810813  0.30270150  1
  Se  Se194  1  0.59184337  0.24552915  0.79853083  1
  Se  Se195  1  0.58386131  0.59241417  0.31890438  1
  Se  Se196  1  0.58055917  0.58118161  0.79887567  1
  Se  Se197  1  0.57856169  0.91371355  0.31154240  1
  Se  Se198  1  0.57578629  0.90397974  0.80914377  1
  Se  Se199  1  0.90826439  0.24269097  0.30900389  1
  Se  Se200  1  0.93102037  0.26552364  0.80050250  1
  Se  Se201  1  0.92259156  0.58333362  0.29307633  1
  Se  Se202  1  0.91600664  0.58577756  0.80703622  1
  Se  Se203  1  0.92280664  0.91588883  0.29703240  1
  Se  Se204  1  0.92011523  0.91461366  0.81417062  1
  Se  Se205  1  0.07458614  0.07390209  0.30458032  1
  Se  Se206  1  0.09088025  0.08279025  0.79927532  1
  Se  Se207  1  0.08914359  0.41721665  0.30596329  1
  Se  Se208  1  0.08262598  0.42095470  0.80090490  1
  Se  Se209  1  0.08110375  0.73915664  0.29979928  1
  Se  Se210  1  0.07899872  0.74549565  0.81176921  1
  Se  Se211  1  0.41460580  0.08672269  0.30336116  1
  Se  Se212  1  0.42572017  0.08897632  0.80550913  1
  Se  Se213  1  0.42253102  0.42436349  0.31632167  1
  Se  Se214  1  0.42290799  0.42240950  0.81461135  1
  Se  Se215  1  0.41639608  0.74615287  0.30752966  1
  Se  Se216  1  0.40769048  0.74515720  0.80349095  1
  Se  Se217  1  0.75368712  0.09148774  0.30904934  1
  Se  Se218  1  0.75540007  0.07607137  0.82099029  1
  Se  Se219  1  0.75623208  0.42520964  0.28988305  1
  Se  Se220  1  0.74455286  0.40967426  0.80024687  1
  Se  Se221  1  0.76273730  0.75734807  0.30133456  1
  Se  Se222  1  0.75090358  0.74732887  0.80963438  1
  Se  Se223  1  0.25287796  0.07484494  0.19967680  1
  Se  Se224  1  0.24840677  0.09264020  0.68944738  1
  Se  Se225  1  0.24560297  0.42009982  0.19035796  1
  Se  Se226  1  0.24721236  0.43677412  0.68880283  1
  Se  Se227  1  0.25414936  0.74131397  0.19462776  1
  Se  Se228  1  0.24494738  0.75190142  0.70035590  1
  Se  Se229  1  0.57700510  0.09688595  0.18742757  1
  Se  Se230  1  0.57400613  0.07936310  0.69312148  1
  Se  Se231  1  0.58313380  0.43729219  0.20248396  1
  Se  Se232  1  0.58541413  0.40818759  0.69713595  1
  Se  Se233  1  0.57685329  0.76104637  0.19358968  1
  Se  Se234  1  0.58610104  0.74422498  0.69790845  1
  Se  Se235  1  0.91600508  0.08202940  0.19544357  1
  Se  Se236  1  0.92266287  0.08472052  0.70688160  1
  Se  Se237  1  0.92371555  0.42853264  0.17345454  1
  Se  Se238  1  0.91252858  0.42129953  0.69985730  1
  Se  Se239  1  0.92245266  0.74387757  0.18343658  1
  Se  Se240  1  0.92071634  0.74755624  0.70370713  1
  Se  Se241  1  0.08673288  0.23870740  0.19091679  1
  Se  Se242  1  0.09026933  0.26104133  0.69479472  1
  Se  Se243  1  0.08159382  0.58052542  0.18505381  1
  Se  Se244  1  0.07441212  0.58967743  0.69990476  1
  Se  Se245  1  0.08544838  0.91135667  0.19632399  1
  Se  Se246  1  0.08160191  0.91952038  0.70274274  1
  Se  Se247  1  0.41925678  0.25056058  0.19165680  1
  Se  Se248  1  0.42264834  0.24236633  0.69479317  1
  Se  Se249  1  0.43223493  0.57242631  0.20482767  1
  Se  Se250  1  0.41493137  0.57977775  0.69498209  1
  Se  Se251  1  0.40918145  0.91616112  0.19837278  1
  Se  Se252  1  0.41903041  0.90791793  0.69145014  1
  Se  Se253  1  0.75021126  0.25672630  0.19055191  1
  Se  Se254  1  0.77042313  0.21796534  0.70182803  1
  Se  Se255  1  0.76725944  0.59327561  0.17406026  1
  Se  Se256  1  0.74623275  0.58341106  0.70233165  1
  Se  Se257  1  0.75765874  0.91252554  0.18777367  1
  Se  Se258  1  0.76183778  0.90260398  0.69135742  1
