# generated using pymatgen
data_In86Cu29Se144
_symmetry_space_group_name_H-M   'P 1'
_cell_length_a   17.58354481
_cell_length_b   17.58994848
_cell_length_c   23.45202541
_cell_angle_alpha   90.03854019
_cell_angle_beta   89.99655588
_cell_angle_gamma   89.98154654
_symmetry_Int_Tables_number   1
_chemical_formula_structural   In86Cu29Se144
_chemical_formula_sum   'In86 Cu29 Se144'
_cell_volume   7253.56044348
_cell_formula_units_Z   1
loop_
 _symmetry_equiv_pos_site_id
 _symmetry_equiv_pos_as_xyz
  1  'x, y, z'
loop_
 _atom_site_type_symbol
 _atom_site_label
 _atom_site_symmetry_multiplicity
 _atom_site_fract_x
 _atom_site_fract_y
 _atom_site_fract_z
 _atom_site_occupancy
  In  In0  1  -0.01088509  0.17336655  0.11857328  1
  In  In1  1  -0.00977734  0.17173547  0.63006317  1
  In  In2  1  0.01093377  0.50679548  0.13036552  1
  In  In3  1  0.00208907  0.48268932  0.62255906  1
  In  In4  1  -0.00930939  0.83392559  0.13116510  1
  In  In5  1  0.00476109  0.83755611  0.62219691  1
  In  In6  1  0.35370527  0.16830012  0.11908351  1
  In  In7  1  0.33513240  0.16486060  0.63589082  1
  In  In8  1  0.33830878  0.50081068  0.12805815  1
  In  In9  1  0.33799636  0.50170075  0.62833867  1
  In  In10  1  0.33893041  0.82659810  0.12258754  1
  In  In11  1  0.33698530  0.82892333  0.62676149  1
  In  In12  1  0.66586929  0.16746155  0.11826150  1
  In  In13  1  0.67028450  0.16366410  0.63210878  1
  In  In14  1  0.64701407  0.50649764  0.12519991  1
  In  In15  1  0.65108499  0.49618067  0.62557253  1
  In  In16  1  0.67006640  0.83249563  0.11993213  1
  In  In17  1  0.67084622  0.84010848  0.61736866  1
  In  In18  1  0.15482370  -0.00375122  0.38011794  1
  In  In19  1  0.17341475  0.00356084  0.86330696  1
  In  In20  1  0.18719067  0.33584015  0.37570769  1
  In  In21  1  0.17433130  0.34084451  0.86408197  1
  In  In22  1  0.17036427  0.66391648  0.37997685  1
  In  In23  1  0.17858738  0.65439228  0.87415080  1
  In  In24  1  0.49340269  -0.01002814  0.37703617  1
  In  In25  1  0.49866865  -0.00440049  0.87335324  1
  In  In26  1  0.51254285  0.34681247  0.37044594  1
  In  In27  1  0.49397247  0.33244966  0.87567629  1
  In  In28  1  0.48660430  0.67524421  0.37829903  1
  In  In29  1  0.48944949  0.67454835  0.88464430  1
  In  In30  1  0.83418398  -0.00072284  0.38645947  1
  In  In31  1  0.83056904  0.00148871  0.87304387  1
  In  In32  1  0.80367312  0.33819528  0.38327256  1
  In  In33  1  0.81865004  0.31640841  0.86495449  1
  In  In34  1  0.84635679  0.66515835  0.36943539  1
  In  In35  1  0.83747266  0.67828269  0.88174542  1
  In  In36  1  -0.00885238  0.15780789  0.37981943  1
  In  In37  1  -0.00748178  0.15526955  0.86678528  1
  In  In38  1  -0.00437197  0.51609349  0.37495747  1
  In  In39  1  0.01131790  0.49664469  0.87101622  1
  In  In40  1  0.00423874  0.82851399  0.38294397  1
  In  In41  1  -0.01396720  0.83739207  0.87637529  1
  In  In42  1  0.32814061  0.17514187  0.37342368  1
  In  In43  1  0.34203816  0.17116336  0.87163748  1
  In  In44  1  0.33704606  0.50303014  0.37837586  1
  In  In45  1  0.35912061  0.51744921  0.84718316  1
  In  In46  1  0.34477747  0.81467030  0.38279973  1
  In  In47  1  0.34581047  0.83820916  0.86987356  1
  In  In48  1  0.66669248  0.18428423  0.38189571  1
  In  In49  1  0.66382751  0.16463691  0.87414824  1
  In  In50  1  0.66612929  0.48096574  0.37269075  1
  In  In51  1  0.65747664  0.48180203  0.86822655  1
  In  In52  1  0.66249051  0.83485083  0.38058985  1
  In  In53  1  0.65453178  0.84377441  0.88018539  1
  In  In54  1  0.16502462  -0.00994580  0.12202141  1
  In  In55  1  0.17705602  -0.01201226  0.63452489  1
  In  In56  1  0.16893917  0.34754076  0.12555436  1
  In  In57  1  0.16484552  0.33358043  0.62333383  1
  In  In58  1  0.17476912  0.66525517  0.13715627  1
  In  In59  1  0.17965032  0.67645849  0.61735546  1
  In  In60  1  0.49419699  -0.00126744  0.10804812  1
  In  In61  1  0.50750070  -0.00410406  0.63439646  1
  In  In62  1  0.50054000  0.33603815  0.12467518  1
  In  In63  1  0.50162817  0.34289821  0.63602407  1
  In  In64  1  0.49275733  0.66741224  0.11607783  1
  In  In65  1  0.48648398  0.65261231  0.62185437  1
  In  In66  1  0.82511188  -0.00396522  0.11715298  1
  In  In67  1  0.83087298  0.00007228  0.62798472  1
  In  In68  1  0.82655831  0.31931525  0.12219360  1
  In  In69  1  0.83740809  0.32581972  0.62844694  1
  In  In70  1  0.83251343  0.68089073  0.13499904  1
  In  In71  1  0.82169259  0.67541733  0.61945037  1
  In  In72  1  -0.00386716  0.00142914  0.25863718  1
  In  In73  1  0.17620971  0.83577865  -0.00485681  1
  In  In74  1  -0.00861884  0.34101577  0.25437524  1
  In  In75  1  0.33165262  0.00144562  0.24417309  1
  In  In76  1  0.00548907  0.66796626  0.75186700  1
  In  In77  1  0.66608414  -0.00152809  0.24614852  1
  In  In78  1  0.66045425  0.66540893  0.74886252  1
  In  In79  1  0.82808468  0.50265810  0.00008012  1
  In  In80  1  0.16232299  0.16593872  0.50431170  1
  In  In81  1  0.17024896  0.16942589  -0.01603425  1
  In  In82  1  0.66577007  0.66250373  0.24974709  1
  In  In83  1  0.83180500  0.50564853  0.49767738  1
  In  In84  1  0.50298122  0.16631906  0.51163050  1
  In  In85  1  0.17234543  0.50053082  0.00357983  1
  Cu  Cu86  1  0.00030120  0.33514500  0.50286974  1
  Cu  Cu87  1  0.66157879  0.67089624  0.49792071  1
  Cu  Cu88  1  0.66383383  0.00179651  0.50696955  1
  Cu  Cu89  1  0.50043506  0.83261551  0.75009688  1
  Cu  Cu90  1  0.65893613  0.32922849  -0.00553734  1
  Cu  Cu91  1  0.17453303  0.50567048  0.25350632  1
  Cu  Cu92  1  0.83229400  0.16363566  0.75033389  1
  Cu  Cu93  1  -0.00441746  -0.00522752  0.50595522  1
  Cu  Cu94  1  0.50213775  0.17629623  0.24836930  1
  Cu  Cu95  1  -0.01420828  0.32961841  -0.00739667  1
  Cu  Cu96  1  0.17305482  0.82714735  0.25989289  1
  Cu  Cu97  1  -0.00029626  0.67897642  0.00572101  1
  Cu  Cu98  1  0.17366889  0.17908439  0.24649076  1
  Cu  Cu99  1  0.33339715  0.66242688  0.50228725  1
  Cu  Cu100  1  0.16992549  0.82959318  0.74629167  1
  Cu  Cu101  1  0.00322276  0.66785075  0.49743672  1
  Cu  Cu102  1  0.83707741  0.49408170  0.74812686  1
  Cu  Cu103  1  0.66537502  0.66522607  0.00362043  1
  Cu  Cu104  1  0.33718868  0.33448065  -0.00100629  1
  Cu  Cu105  1  0.16813889  0.49468969  0.74259260  1
  Cu  Cu106  1  0.16147326  0.16471722  0.74750688  1
  Cu  Cu107  1  0.49484175  0.50075406  0.24930748  1
  Cu  Cu108  1  0.82407368  0.16914724  0.24978723  1
  Cu  Cu109  1  0.82904458  0.84225614  0.75000259  1
  Cu  Cu110  1  -0.00448018  0.00532814  -0.00215011  1
  Cu  Cu111  1  0.32825885  -0.01355412  0.50338234  1
  Cu  Cu112  1  0.50341885  0.16793543  0.75493277  1
  Cu  Cu113  1  0.34512381  0.34082697  0.50115788  1
  Cu  Cu114  1  0.66956264  0.00249512  -0.00644086  1
  Se  Se115  1  0.08103650  0.08319161  0.05575968  1
  Se  Se116  1  0.07949528  0.07372450  0.56623173  1
  Se  Se117  1  0.06779469  0.40832052  0.05273832  1
  Se  Se118  1  0.09024961  0.41648987  0.54880795  1
  Se  Se119  1  0.08806844  0.75104876  0.06367549  1
  Se  Se120  1  0.08368398  0.75105946  0.55417858  1
  Se  Se121  1  0.41757565  0.08792379  0.04273983  1
  Se  Se122  1  0.40620869  0.07205209  0.56145005  1
  Se  Se123  1  0.41555539  0.41880160  0.05605421  1
  Se  Se124  1  0.42504247  0.41973136  0.55956365  1
  Se  Se125  1  0.42386562  0.76221652  0.04793197  1
  Se  Se126  1  0.41723251  0.74789929  0.55451928  1
  Se  Se127  1  0.75068080  0.08540700  0.05059596  1
  Se  Se128  1  0.74841486  0.08429882  0.55832320  1
  Se  Se129  1  0.73708958  0.41102523  0.05773192  1
  Se  Se130  1  0.75001835  0.41635031  0.56228863  1
  Se  Se131  1  0.75388573  0.74528064  0.05474030  1
  Se  Se132  1  0.74887450  0.75527215  0.54579591  1
  Se  Se133  1  0.24919994  0.25741115  0.05637246  1
  Se  Se134  1  0.26473873  0.25243087  0.55613968  1
  Se  Se135  1  0.25894944  0.59647822  0.05886621  1
  Se  Se136  1  0.25154593  0.57722755  0.55547154  1
  Se  Se137  1  0.26450807  0.92890571  0.05424024  1
  Se  Se138  1  0.24507164  0.90627898  0.55783225  1
  Se  Se139  1  0.57739486  0.24926824  0.05389573  1
  Se  Se140  1  0.59163968  0.25984815  0.56534569  1
  Se  Se141  1  0.57573272  0.58132586  0.04801216  1
  Se  Se142  1  0.58427552  0.58542032  0.55354934  1
  Se  Se143  1  0.59183462  0.91796943  0.05140829  1
  Se  Se144  1  0.57540766  0.91852930  0.55434092  1
  Se  Se145  1  0.90567424  0.24553457  0.04589213  1
  Se  Se146  1  0.91764270  0.25000028  0.55306760  1
  Se  Se147  1  0.92249958  0.58966754  0.06069812  1
  Se  Se148  1  0.92462874  0.59062610  0.56246476  1
  Se  Se149  1  0.92245759  0.91861682  0.05661856  1
  Se  Se150  1  0.90974064  0.91232265  0.55797145  1
  Se  Se151  1  0.07950476  0.25689692  0.43758023  1
  Se  Se152  1  0.07428331  0.26093498  0.93185721  1
  Se  Se153  1  0.08497453  0.57990919  0.44836165  1
  Se  Se154  1  0.07469134  0.59380302  0.94564602  1
  Se  Se155  1  0.08282270  0.91459220  0.45316797  1
  Se  Se156  1  0.07943306  0.92676388  0.93927004  1
  Se  Se157  1  0.41883565  0.25299307  0.44210510  1
  Se  Se158  1  0.41788981  0.24603153  0.94853923  1
  Se  Se159  1  0.42097054  0.58189402  0.44918510  1
  Se  Se160  1  0.41093351  0.57315272  0.93986885  1
  Se  Se161  1  0.41726431  0.91065604  0.44943644  1
  Se  Se162  1  0.43197214  0.90229554  0.94443793  1
  Se  Se163  1  0.75793122  0.24019192  0.45591359  1
  Se  Se164  1  0.74734605  0.24687108  0.94582043  1
  Se  Se165  1  0.74072337  0.59123706  0.43503515  1
  Se  Se166  1  0.73876409  0.58785230  0.93518438  1
  Se  Se167  1  0.74420782  0.91819694  0.44929237  1
  Se  Se168  1  0.75358857  0.91495041  0.94381001  1
  Se  Se169  1  0.25710860  0.07576761  0.44339120  1
  Se  Se170  1  0.26254038  0.07063476  0.93856068  1
  Se  Se171  1  0.25502759  0.41922664  0.44995161  1
  Se  Se172  1  0.25775888  0.41503535  0.93904341  1
  Se  Se173  1  0.24900013  0.74851530  0.45094496  1
  Se  Se174  1  0.26266571  0.74045972  0.93968380  1
  Se  Se175  1  0.58543767  0.07792689  0.44066614  1
  Se  Se176  1  0.58096342  0.08169937  0.94231990  1
  Se  Se177  1  0.59228003  0.40911334  0.44979838  1
  Se  Se178  1  0.57662499  0.41670732  0.94609433  1
  Se  Se179  1  0.57588392  0.75353093  0.44621643  1
  Se  Se180  1  0.58533918  0.74927739  0.94751110  1
  Se  Se181  1  0.91526816  0.08342344  0.45525260  1
  Se  Se182  1  0.91222941  0.08647671  0.94382739  1
  Se  Se183  1  0.92079089  0.41062515  0.43801429  1
  Se  Se184  1  0.91274175  0.41552868  0.93282743  1
  Se  Se185  1  0.91331783  0.74700339  0.44722940  1
  Se  Se186  1  0.91402301  0.75966183  0.95398373  1
  Se  Se187  1  0.25959788  0.25865461  0.29805761  1
  Se  Se188  1  0.24769832  0.24236222  0.80337184  1
  Se  Se189  1  0.25664329  0.58805918  0.30860691  1
  Se  Se190  1  0.24797695  0.58417745  0.79322420  1
  Se  Se191  1  0.24916469  0.91705074  0.31522148  1
  Se  Se192  1  0.25396233  0.91175111  0.80156027  1
  Se  Se193  1  0.58791362  0.25295629  0.30407114  1
  Se  Se194  1  0.58467528  0.25404946  0.80763587  1
  Se  Se195  1  0.57560492  0.57725829  0.31311586  1
  Se  Se196  1  0.57349466  0.58118764  0.81245862  1
  Se  Se197  1  0.57424603  0.90826094  0.30418019  1
  Se  Se198  1  0.58482805  0.91771125  0.80043658  1
  Se  Se199  1  0.90561791  0.24467252  0.31259181  1
  Se  Se200  1  0.91894107  0.24930538  0.80071470  1
  Se  Se201  1  0.91019214  0.57356861  0.29837074  1
  Se  Se202  1  0.90838097  0.57915019  0.81054775  1
  Se  Se203  1  0.90780908  0.90854526  0.31373927  1
  Se  Se204  1  0.91738220  0.92106984  0.80225964  1
  Se  Se205  1  0.09517633  0.09899190  0.30744130  1
  Se  Se206  1  0.07998764  0.07776197  0.79861187  1
  Se  Se207  1  0.09295347  0.42269685  0.31193558  1
  Se  Se208  1  0.08177581  0.41534984  0.79645041  1
  Se  Se209  1  0.08516975  0.74835413  0.31192418  1
  Se  Se210  1  0.09270405  0.75729343  0.81575791  1
  Se  Se211  1  0.42388189  0.09214860  0.30792279  1
  Se  Se212  1  0.41819547  0.08126257  0.80374286  1
  Se  Se213  1  0.41524630  0.41742818  0.30652466  1
  Se  Se214  1  0.39512857  0.38947457  0.80439947  1
  Se  Se215  1  0.41607989  0.75191778  0.30056834  1
  Se  Se216  1  0.41945390  0.74540112  0.80174121  1
  Se  Se217  1  0.75155829  0.08559933  0.31281862  1
  Se  Se218  1  0.74695207  0.08219001  0.80380263  1
  Se  Se219  1  0.75689140  0.41838026  0.29972575  1
  Se  Se220  1  0.74936319  0.41340045  0.79897062  1
  Se  Se221  1  0.75184589  0.75579756  0.30986988  1
  Se  Se222  1  0.75268009  0.75635381  0.80879381  1
  Se  Se223  1  0.24180501  0.09378810  0.18303793  1
  Se  Se224  1  0.25127447  0.08006600  0.70073983  1
  Se  Se225  1  0.25220041  0.42003015  0.19717915  1
  Se  Se226  1  0.25256535  0.41057812  0.69135907  1
  Se  Se227  1  0.25775759  0.75552926  0.19904000  1
  Se  Se228  1  0.25467822  0.74488983  0.69730299  1
  Se  Se229  1  0.57178024  0.08646627  0.18810235  1
  Se  Se230  1  0.58573867  0.08356586  0.70076913  1
  Se  Se231  1  0.58089915  0.41774939  0.19781124  1
  Se  Se232  1  0.58682536  0.42141935  0.70548010  1
  Se  Se233  1  0.57991273  0.75284979  0.18785115  1
  Se  Se234  1  0.57726882  0.75485214  0.68443008  1
  Se  Se235  1  0.90793580  0.08878327  0.19230089  1
  Se  Se236  1  0.91650376  0.08015818  0.69715733  1
  Se  Se237  1  0.90826892  0.42045289  0.18337611  1
  Se  Se238  1  0.92114314  0.41084227  0.69665555  1
  Se  Se239  1  0.92834640  0.74409259  0.20287012  1
  Se  Se240  1  0.90784472  0.75416943  0.69388978  1
  Se  Se241  1  0.08268030  0.24990387  0.18918171  1
  Se  Se242  1  0.08336116  0.25110343  0.69256154  1
  Se  Se243  1  0.08567611  0.58708980  0.20363484  1
  Se  Se244  1  0.08727799  0.58008476  0.68516341  1
  Se  Se245  1  0.09313389  0.91142310  0.20147377  1
  Se  Se246  1  0.08109167  0.91226023  0.69887550  1
  Se  Se247  1  0.41461918  0.25466073  0.19512036  1
  Se  Se248  1  0.42089673  0.24946197  0.69864241  1
  Se  Se249  1  0.41970304  0.58877485  0.19384332  1
  Se  Se250  1  0.41983079  0.57846911  0.70130530  1
  Se  Se251  1  0.42776636  0.91542871  0.18946180  1
  Se  Se252  1  0.41474876  0.91588275  0.69698314  1
  Se  Se253  1  0.74079031  0.24805707  0.19464706  1
  Se  Se254  1  0.75061616  0.25127887  0.69923263  1
  Se  Se255  1  0.75433438  0.57291681  0.18807576  1
  Se  Se256  1  0.75822283  0.57754821  0.69031982  1
  Se  Se257  1  0.76220047  0.90600565  0.19449877  1
  Se  Se258  1  0.74167640  0.91867647  0.69511799  1
