# generated using pymatgen
data_In86Cu29Se144
_symmetry_space_group_name_H-M   'P 1'
_cell_length_a   17.58609856
_cell_length_b   17.58143427
_cell_length_c   23.43804975
_cell_angle_alpha   89.98931041
_cell_angle_beta   90.00507076
_cell_angle_gamma   90.00280843
_symmetry_Int_Tables_number   1
_chemical_formula_structural   In86Cu29Se144
_chemical_formula_sum   'In86 Cu29 Se144'
_cell_volume   7246.78315478
_cell_formula_units_Z   1
loop_
 _symmetry_equiv_pos_site_id
 _symmetry_equiv_pos_as_xyz
  1  'x, y, z'
loop_
 _atom_site_type_symbol
 _atom_site_label
 _atom_site_symmetry_multiplicity
 _atom_site_fract_x
 _atom_site_fract_y
 _atom_site_fract_z
 _atom_site_occupancy
  In  In0  1  0.00046183  0.16820832  0.13162777  1
  In  In1  1  -0.00372552  0.16382786  0.61473203  1
  In  In2  1  -0.00249862  0.50699177  0.13791111  1
  In  In3  1  -0.00917734  0.50521789  0.61855450  1
  In  In4  1  -0.00369164  0.83429161  0.13012389  1
  In  In5  1  -0.00423686  0.84252763  0.62044286  1
  In  In6  1  0.32596979  0.17415138  0.12119937  1
  In  In7  1  0.33310241  0.18074630  0.62200662  1
  In  In8  1  0.32731461  0.49957332  0.13168572  1
  In  In9  1  0.33753424  0.50137385  0.62979319  1
  In  In10  1  0.31311606  0.83080852  0.11579328  1
  In  In11  1  0.33659093  0.81768434  0.62449231  1
  In  In12  1  0.67540661  0.15797463  0.13484169  1
  In  In13  1  0.68154429  0.17245453  0.62559540  1
  In  In14  1  0.67426928  0.49013891  0.13291331  1
  In  In15  1  0.67746716  0.48997402  0.62868597  1
  In  In16  1  0.68189926  0.82310667  0.13247675  1
  In  In17  1  0.66386383  0.83107453  0.61652490  1
  In  In18  1  0.16293557  0.01919261  0.36843052  1
  In  In19  1  0.16263177  0.00560803  0.89493788  1
  In  In20  1  0.12351232  0.29997438  0.31525455  1
  In  In21  1  0.16723358  0.32457494  0.88025012  1
  In  In22  1  0.15817099  0.65395990  0.35495085  1
  In  In23  1  0.18411196  0.66619089  0.88364858  1
  In  In24  1  0.49834580  -0.01777763  0.37619308  1
  In  In25  1  0.50587322  -0.00398662  0.87349429  1
  In  In26  1  0.49786587  0.33028661  0.36820929  1
  In  In27  1  0.50515333  0.33931156  0.86958895  1
  In  In28  1  0.50027564  0.66601231  0.37166094  1
  In  In29  1  0.49817720  0.66216113  0.87054992  1
  In  In30  1  0.83354747  -0.00099361  0.37134624  1
  In  In31  1  0.83636202  -0.00577172  0.88210731  1
  In  In32  1  0.83054247  0.33509819  0.37539029  1
  In  In33  1  0.83216122  0.33512798  0.88402222  1
  In  In34  1  0.83351069  0.66868213  0.37455660  1
  In  In35  1  0.82585639  0.67384657  0.88103213  1
  In  In36  1  -0.00612519  0.15951491  0.36952352  1
  In  In37  1  -0.00232858  0.16480049  0.88749069  1
  In  In38  1  -0.00848009  0.48503921  0.36100524  1
  In  In39  1  -0.00438640  0.48854062  0.88345702  1
  In  In40  1  -0.00962676  0.82348678  0.36575500  1
  In  In41  1  -0.00386055  0.83796153  0.88463756  1
  In  In42  1  0.30867104  0.17156693  0.36938252  1
  In  In43  1  0.31917823  0.17504965  0.88238646  1
  In  In44  1  0.31373318  0.48585617  0.35583768  1
  In  In45  1  0.33718974  0.50348176  0.87238769  1
  In  In46  1  0.34126588  0.82545087  0.37554962  1
  In  In47  1  0.33547375  0.82424986  0.88387377  1
  In  In48  1  0.67966282  0.17790206  0.36714181  1
  In  In49  1  0.66821545  0.17827353  0.87659773  1
  In  In50  1  0.67613835  0.51100480  0.36777640  1
  In  In51  1  0.67300848  0.50796349  0.87196714  1
  In  In52  1  0.66782599  0.83103080  0.37175276  1
  In  In53  1  0.68691910  0.82009953  0.87459779  1
  In  In54  1  0.16109132  -0.00707720  0.12158089  1
  In  In55  1  0.15132669  0.00641897  0.62150118  1
  In  In56  1  0.18097193  0.32107884  0.14143769  1
  In  In57  1  0.17692161  0.33617598  0.62371248  1
  In  In58  1  0.15607827  0.66483577  0.13753147  1
  In  In59  1  0.17754141  0.67568242  0.62879349  1
  In  In60  1  0.50278160  0.00869536  0.12883782  1
  In  In61  1  0.51281962  -0.00641623  0.61962376  1
  In  In62  1  0.49287945  0.33923609  0.13419177  1
  In  In63  1  0.49620894  0.34275560  0.63070268  1
  In  In64  1  0.50254639  0.67102313  0.13042828  1
  In  In65  1  0.49843104  0.67031377  0.62513662  1
  In  In66  1  0.83615072  0.00072805  0.12820616  1
  In  In67  1  0.83417877  0.00264591  0.61454008  1
  In  In68  1  0.83651232  0.33466019  0.13076578  1
  In  In69  1  0.82748101  0.32339327  0.61487729  1
  In  In70  1  0.83424471  0.66533693  0.12730149  1
  In  In71  1  0.82445649  0.66266948  0.61809312  1
  In  In72  1  0.33477177  0.00289550  0.75821904  1
  In  In73  1  0.49572302  0.49921447  0.00466812  1
  In  In74  1  -0.00509372  0.00165329  0.75252366  1
  In  In75  1  0.67197886  0.00408389  0.74388795  1
  In  In76  1  0.50192995  0.50331759  0.50122175  1
  In  In77  1  -0.00029086  0.33049295  0.75749837  1
  In  In78  1  0.16160758  0.49212147  0.49068737  1
  In  In79  1  0.00069564  0.66601121  0.74655482  1
  In  In80  1  0.16298342  0.83493439  0.49852903  1
  In  In81  1  0.15948657  0.49919670  0.00933024  1
  In  In82  1  0.33494450  -0.00262082  0.24781384  1
  In  In83  1  0.49833225  0.83790356  -0.00076641  1
  In  In84  1  0.50470716  0.16011255  0.50364112  1
  In  In85  1  0.49939278  0.17232910  0.00535797  1
  Cu  Cu86  1  0.32719995  -0.00234470  0.49096733  1
  Cu  Cu87  1  0.82888250  0.50191052  0.25155945  1
  Cu  Cu88  1  0.83387938  0.83403540  0.25012726  1
  Cu  Cu89  1  -0.00254621  0.00421429  0.49306059  1
  Cu  Cu90  1  0.83210820  0.49692524  0.75184806  1
  Cu  Cu91  1  0.67175563  0.33904813  0.49742028  1
  Cu  Cu92  1  0.00147863  0.32681167  0.48366138  1
  Cu  Cu93  1  0.33494875  0.66418075  0.49580150  1
  Cu  Cu94  1  0.17006653  0.17141811  0.75331542  1
  Cu  Cu95  1  0.83399508  0.16737972  0.24947006  1
  Cu  Cu96  1  0.50149779  0.16266854  0.25093595  1
  Cu  Cu97  1  0.17257034  0.82815618  0.75756056  1
  Cu  Cu98  1  0.66979952  0.67217174  0.49183007  1
  Cu  Cu99  1  0.50296506  0.82867092  0.74856025  1
  Cu  Cu100  1  0.50306078  0.50566297  0.74936176  1
  Cu  Cu101  1  0.17939584  0.50246119  0.75080521  1
  Cu  Cu102  1  0.50587557  0.83235649  0.24934893  1
  Cu  Cu103  1  -0.00242609  0.66981281  0.01012033  1
  Cu  Cu104  1  0.32262893  0.32474283  0.49429197  1
  Cu  Cu105  1  0.50404846  0.50060776  0.25131734  1
  Cu  Cu106  1  0.16366710  0.83558568  0.24612204  1
  Cu  Cu107  1  -0.00580844  0.00056795  0.01078059  1
  Cu  Cu108  1  0.67598343  0.66326451  0.00174716  1
  Cu  Cu109  1  0.66991357  -0.00348026  0.49449620  1
  Cu  Cu110  1  0.49956232  0.18059882  0.75099625  1
  Cu  Cu111  1  -0.01005775  0.66493544  0.49471796  1
  Cu  Cu112  1  0.67430135  -0.00199203  0.00441642  1
  Cu  Cu113  1  0.67571133  0.33304477  0.00622765  1
  Cu  Cu114  1  -0.00352606  0.33072665  0.00856603  1
  Se  Se115  1  0.07993592  0.08615296  0.05881182  1
  Se  Se116  1  0.08351039  0.08696614  0.54511713  1
  Se  Se117  1  0.07641853  0.40769996  0.07090290  1
  Se  Se118  1  0.07124329  0.40370970  0.55600266  1
  Se  Se119  1  0.08284456  0.74858737  0.06387936  1
  Se  Se120  1  0.07428886  0.73791323  0.55815144  1
  Se  Se121  1  0.40878665  0.07552241  0.05794515  1
  Se  Se122  1  0.40583109  0.07164251  0.56012907  1
  Se  Se123  1  0.40289988  0.40711211  0.05849565  1
  Se  Se124  1  0.40330394  0.40742999  0.55250040  1
  Se  Se125  1  0.41225444  0.74327965  0.05690124  1
  Se  Se126  1  0.41811841  0.74675017  0.54955232  1
  Se  Se127  1  0.75268974  0.08483638  0.05797319  1
  Se  Se128  1  0.74525976  0.08501455  0.55056791  1
  Se  Se129  1  0.75690339  0.41934762  0.05828021  1
  Se  Se130  1  0.75628380  0.42146556  0.55014080  1
  Se  Se131  1  0.75616853  0.75007728  0.05416981  1
  Se  Se132  1  0.75277921  0.75389794  0.54854772  1
  Se  Se133  1  0.24009813  0.25328994  0.05436414  1
  Se  Se134  1  0.23981780  0.24439795  0.55029179  1
  Se  Se135  1  0.25152711  0.59250466  0.06255457  1
  Se  Se136  1  0.25233700  0.58411988  0.55520137  1
  Se  Se137  1  0.24997995  0.92549597  0.04858445  1
  Se  Se138  1  0.25426719  0.92168191  0.56296217  1
  Se  Se139  1  0.59134292  0.25798619  0.06677032  1
  Se  Se140  1  0.58673843  0.26324838  0.55865211  1
  Se  Se141  1  0.59265861  0.58696928  0.06089627  1
  Se  Se142  1  0.59646001  0.59030669  0.55847999  1
  Se  Se143  1  0.59131165  0.91985866  0.06321985  1
  Se  Se144  1  0.58253898  0.91334311  0.54475710  1
  Se  Se145  1  0.91338557  0.24666653  0.06114803  1
  Se  Se146  1  0.91945904  0.25086790  0.54645910  1
  Se  Se147  1  0.91936347  0.57950542  0.06058879  1
  Se  Se148  1  0.90833329  0.58068003  0.54820739  1
  Se  Se149  1  0.91142202  0.91167228  0.05827108  1
  Se  Se150  1  0.91732937  0.91836423  0.54718817  1
  Se  Se151  1  0.08547564  0.25819061  0.42033400  1
  Se  Se152  1  0.08087696  0.25228680  0.95115174  1
  Se  Se153  1  0.07336143  0.58828408  0.43565244  1
  Se  Se154  1  0.07398301  0.59210573  0.94352914  1
  Se  Se155  1  0.07815666  0.92235999  0.43367798  1
  Se  Se156  1  0.07723448  0.91700244  0.95529728  1
  Se  Se157  1  0.41256751  0.24632940  0.44078662  1
  Se  Se158  1  0.41564490  0.26349633  0.94232428  1
  Se  Se159  1  0.40659159  0.57730235  0.43567164  1
  Se  Se160  1  0.40838947  0.59456503  0.94700868  1
  Se  Se161  1  0.41363146  0.90978278  0.44927590  1
  Se  Se162  1  0.40820673  0.93334018  0.94303792  1
  Se  Se163  1  0.75179578  0.24945849  0.44734632  1
  Se  Se164  1  0.75293120  0.24539883  0.95180029  1
  Se  Se165  1  0.75273642  0.58307327  0.44491392  1
  Se  Se166  1  0.75619340  0.57722746  0.94802907  1
  Se  Se167  1  0.75224955  0.91355654  0.44055816  1
  Se  Se168  1  0.74990242  0.91111949  0.94769218  1
  Se  Se169  1  0.24435092  0.08639190  0.44637003  1
  Se  Se170  1  0.24772243  0.09346620  0.95428358  1
  Se  Se171  1  0.24493700  0.39999802  0.43130882  1
  Se  Se172  1  0.25236401  0.41858250  0.94263956  1
  Se  Se173  1  0.24550118  0.73933887  0.43855659  1
  Se  Se174  1  0.24133262  0.76218351  0.95349160  1
  Se  Se175  1  0.58966343  0.07870797  0.43495001  1
  Se  Se176  1  0.59086958  0.07724762  0.94526331  1
  Se  Se177  1  0.58734804  0.41339456  0.43767218  1
  Se  Se178  1  0.59300668  0.41258681  0.94630626  1
  Se  Se179  1  0.58028293  0.75013150  0.44106785  1
  Se  Se180  1  0.58995093  0.74142663  0.94314994  1
  Se  Se181  1  0.90970884  0.08635572  0.44326926  1
  Se  Se182  1  0.91246727  0.08048425  0.95181032  1
  Se  Se183  1  0.91679609  0.41974492  0.44258169  1
  Se  Se184  1  0.91387929  0.41555254  0.95592152  1
  Se  Se185  1  0.91246838  0.75625962  0.44501716  1
  Se  Se186  1  0.91600352  0.74831049  0.94925021  1
  Se  Se187  1  0.26277859  0.25965066  0.29060409  1
  Se  Se188  1  0.25247336  0.25651378  0.80420315  1
  Se  Se189  1  0.28102694  0.61220246  0.30598429  1
  Se  Se190  1  0.25531121  0.58987629  0.80525110  1
  Se  Se191  1  0.24392478  0.90963013  0.31207849  1
  Se  Se192  1  0.24069429  0.91773575  0.81761316  1
  Se  Se193  1  0.58388264  0.24976112  0.30162169  1
  Se  Se194  1  0.59018977  0.25636009  0.80306682  1
  Se  Se195  1  0.58535680  0.58747976  0.30207381  1
  Se  Se196  1  0.58746506  0.58731682  0.80320159  1
  Se  Se197  1  0.58590935  0.91778241  0.30225919  1
  Se  Se198  1  0.58620227  0.90781652  0.80641024  1
  Se  Se199  1  0.91199466  0.25254443  0.30538452  1
  Se  Se200  1  0.90973438  0.23905627  0.81334774  1
  Se  Se201  1  0.91462137  0.58531927  0.30371238  1
  Se  Se202  1  0.91655934  0.57469612  0.81073390  1
  Se  Se203  1  0.91853759  0.91970042  0.30087208  1
  Se  Se204  1  0.90722982  0.90391574  0.80559015  1
  Se  Se205  1  0.07936023  0.08652394  0.29569226  1
  Se  Se206  1  0.09043508  0.08927551  0.81197018  1
  Se  Se207  1  0.11011587  0.44808035  0.30195109  1
  Se  Se208  1  0.09483288  0.42672210  0.81008297  1
  Se  Se209  1  0.07845777  0.74930073  0.29604638  1
  Se  Se210  1  0.08593807  0.75177426  0.81442547  1
  Se  Se211  1  0.41971284  0.08684417  0.31490764  1
  Se  Se212  1  0.42655520  0.09838928  0.81355178  1
  Se  Se213  1  0.41850605  0.41387266  0.29941414  1
  Se  Se214  1  0.41965164  0.42184792  0.80356346  1
  Se  Se215  1  0.41929795  0.75049089  0.30085080  1
  Se  Se216  1  0.41740214  0.75480884  0.80764356  1
  Se  Se217  1  0.74984203  0.08179802  0.30166360  1
  Se  Se218  1  0.75646608  0.08640199  0.81231300  1
  Se  Se219  1  0.74675178  0.41378622  0.30344679  1
  Se  Se220  1  0.75358274  0.41405770  0.80996664  1
  Se  Se221  1  0.75089634  0.74829858  0.30297456  1
  Se  Se222  1  0.75296615  0.73887415  0.79883258  1
  Se  Se223  1  0.24336769  0.08598721  0.19106145  1
  Se  Se224  1  0.24400650  0.08678762  0.69134938  1
  Se  Se225  1  0.25225187  0.41906311  0.20372698  1
  Se  Se226  1  0.25558828  0.41442058  0.69610293  1
  Se  Se227  1  0.24993378  0.75255953  0.19612991  1
  Se  Se228  1  0.25767236  0.74903179  0.70320499  1
  Se  Se229  1  0.58677509  0.07772105  0.20238440  1
  Se  Se230  1  0.57363937  0.09647424  0.68953988  1
  Se  Se231  1  0.58537493  0.41272580  0.20018281  1
  Se  Se232  1  0.58504840  0.41900048  0.69732442  1
  Se  Se233  1  0.59016974  0.74708093  0.19861327  1
  Se  Se234  1  0.58642582  0.75169105  0.69081982  1
  Se  Se235  1  0.91801456  0.08226372  0.19871822  1
  Se  Se236  1  0.90829807  0.09202976  0.69052511  1
  Se  Se237  1  0.91577347  0.41708024  0.20283231  1
  Se  Se238  1  0.91463003  0.41897959  0.69163711  1
  Se  Se239  1  0.91628523  0.74708161  0.19817885  1
  Se  Se240  1  0.91212493  0.75494465  0.68658101  1
  Se  Se241  1  0.07247578  0.26160807  0.20285153  1
  Se  Se242  1  0.08626459  0.24370518  0.68975538  1
  Se  Se243  1  0.09775401  0.56547922  0.20758853  1
  Se  Se244  1  0.09470180  0.57285684  0.68738804  1
  Se  Se245  1  0.07990190  0.92118265  0.19709463  1
  Se  Se246  1  0.09236893  0.90686776  0.69621961  1
  Se  Se247  1  0.41683177  0.24018092  0.19396647  1
  Se  Se248  1  0.41186824  0.25617425  0.69574859  1
  Se  Se249  1  0.42194946  0.57981926  0.19296985  1
  Se  Se250  1  0.41779946  0.58804632  0.69544981  1
  Se  Se251  1  0.42122281  0.90491349  0.18587488  1
  Se  Se252  1  0.42292640  0.91419593  0.69198644  1
  Se  Se253  1  0.74926206  0.25299467  0.19914999  1
  Se  Se254  1  0.75223101  0.25842607  0.69575896  1
  Se  Se255  1  0.74748586  0.58628739  0.19709556  1
  Se  Se256  1  0.75402496  0.58166612  0.69514469  1
  Se  Se257  1  0.75057642  0.91992908  0.19826533  1
  Se  Se258  1  0.75849715  0.91132285  0.68580287  1
