# generated using pymatgen
data_In86Cu29Se144
_symmetry_space_group_name_H-M   'P 1'
_cell_length_a   17.58726487
_cell_length_b   17.58356366
_cell_length_c   23.44687716
_cell_angle_alpha   90.00290572
_cell_angle_beta   90.01561955
_cell_angle_gamma   89.99502556
_symmetry_Int_Tables_number   1
_chemical_formula_structural   In86Cu29Se144
_chemical_formula_sum   'In86 Cu29 Se144'
_cell_volume   7250.87122584
_cell_formula_units_Z   1
loop_
 _symmetry_equiv_pos_site_id
 _symmetry_equiv_pos_as_xyz
  1  'x, y, z'
loop_
 _atom_site_type_symbol
 _atom_site_label
 _atom_site_symmetry_multiplicity
 _atom_site_fract_x
 _atom_site_fract_y
 _atom_site_fract_z
 _atom_site_occupancy
  In  In0  1  0.00520379  0.16660942  0.12361773  1
  In  In1  1  -0.00050723  0.16978576  0.62930300  1
  In  In2  1  0.00187392  0.50358673  0.11436262  1
  In  In3  1  -0.00339597  0.49832438  0.62736352  1
  In  In4  1  -0.00811035  0.83385402  0.11881272  1
  In  In5  1  0.00112672  0.83492222  0.63582976  1
  In  In6  1  0.33658823  0.15624834  0.13836222  1
  In  In7  1  0.32574591  0.16535319  0.61197679  1
  In  In8  1  0.33013444  0.48489697  0.11454002  1
  In  In9  1  0.33032462  0.49090103  0.60877738  1
  In  In10  1  0.35119213  0.83532173  0.12379977  1
  In  In11  1  0.35395094  0.84608588  0.62312801  1
  In  In12  1  0.65616012  0.18861183  0.14467278  1
  In  In13  1  0.67893783  0.18147489  0.61546753  1
  In  In14  1  0.66166649  0.49718777  0.12795579  1
  In  In15  1  0.65661977  0.48480468  0.61797213  1
  In  In16  1  0.65011109  0.84573547  0.13434638  1
  In  In17  1  0.65590980  0.84105913  0.62219451  1
  In  In18  1  0.18444599  0.01304973  0.36834184  1
  In  In19  1  0.16848406  -0.00281339  0.86781237  1
  In  In20  1  0.19580486  0.31145195  0.40193487  1
  In  In21  1  0.16637704  0.34352894  0.87477297  1
  In  In22  1  0.16388004  0.65656582  0.37330899  1
  In  In23  1  0.15843162  0.65526177  0.87001847  1
  In  In24  1  0.50035591  0.00416780  0.37683596  1
  In  In25  1  0.49830803  0.00517120  0.87862404  1
  In  In26  1  0.49928981  0.32583942  0.37609064  1
  In  In27  1  0.50534226  0.32391063  0.88236566  1
  In  In28  1  0.51060413  0.65298690  0.37883485  1
  In  In29  1  0.49640274  0.66413335  0.88195535  1
  In  In30  1  0.82633035  0.01951231  0.37991925  1
  In  In31  1  0.83860993  0.00093454  0.87022411  1
  In  In32  1  0.82995009  0.33739608  0.37826743  1
  In  In33  1  0.84281465  0.33955037  0.86103063  1
  In  In34  1  0.81528074  0.66080140  0.37265815  1
  In  In35  1  0.83053318  0.65268506  0.87291849  1
  In  In36  1  -0.00217574  0.17710555  0.38755644  1
  In  In37  1  -0.00521712  0.16544551  0.85816146  1
  In  In38  1  0.01014474  0.48396761  0.38827755  1
  In  In39  1  -0.00191170  0.49655531  0.87223692  1
  In  In40  1  -0.00111794  0.83299686  0.37944529  1
  In  In41  1  0.00913370  0.83454993  0.86438494  1
  In  In42  1  0.33665803  0.17363100  0.37701365  1
  In  In43  1  0.35264011  0.17085767  0.87633126  1
  In  In44  1  0.35730826  0.47023832  0.39748541  1
  In  In45  1  0.33774748  0.48063842  0.89150146  1
  In  In46  1  0.33645329  0.85183549  0.37151790  1
  In  In47  1  0.34035895  0.84198220  0.87333729  1
  In  In48  1  0.66814821  0.16517264  0.37268908  1
  In  In49  1  0.65703710  0.16621028  0.87482475  1
  In  In50  1  0.66537737  0.49411152  0.37275252  1
  In  In51  1  0.67495605  0.49598070  0.88192330  1
  In  In52  1  0.65300725  0.82498457  0.36939995  1
  In  In53  1  0.66005900  0.83360602  0.88099822  1
  In  In54  1  0.17995406  0.01530741  0.12505997  1
  In  In55  1  0.16067046  0.01062946  0.63179591  1
  In  In56  1  0.16274524  0.34173379  0.12687746  1
  In  In57  1  0.16191675  0.32304071  0.61397547  1
  In  In58  1  0.17627371  0.65620455  0.12350660  1
  In  In59  1  0.16440238  0.65399013  0.62679347  1
  In  In60  1  0.49965932  0.00781230  0.12709710  1
  In  In61  1  0.49084277  -0.00346393  0.61997424  1
  In  In62  1  0.49932431  0.33194388  0.12601275  1
  In  In63  1  0.50396668  0.33938845  0.61501094  1
  In  In64  1  0.50429629  0.66923301  0.12330403  1
  In  In65  1  0.50168125  0.66697148  0.61851916  1
  In  In66  1  0.82717206  -0.00554788  0.12467849  1
  In  In67  1  0.83493967  0.02058010  0.62684623  1
  In  In68  1  0.81841034  0.33371097  0.12663455  1
  In  In69  1  0.82891213  0.33058839  0.62784782  1
  In  In70  1  0.82950362  0.65020115  0.12267398  1
  In  In71  1  0.84580858  0.66756269  0.62868808  1
  In  In72  1  0.82652106  0.83224531  -0.00165023  1
  In  In73  1  0.66666714  0.66402422  0.74417309  1
  In  In74  1  0.16938618  0.82673135  -0.01287749  1
  In  In75  1  0.16857120  0.83666542  0.49534825  1
  In  In76  1  0.66898400  0.00542475  0.75007586  1
  In  In77  1  0.82729800  0.83521708  0.50710595  1
  In  In78  1  0.33040950  0.66418935  0.75112321  1
  In  In79  1  0.33310571  0.32866116  0.74708634  1
  In  In80  1  0.00039584  0.33170752  0.25188996  1
  In  In81  1  0.33877350  0.66547977  0.24657174  1
  In  In82  1  0.17173994  0.17231425  0.00100073  1
  In  In83  1  -0.00716779  0.00361235  0.25424168  1
  In  In84  1  -0.00741030  0.66437868  0.25329157  1
  In  In85  1  0.82800270  0.16857982  -0.00461933  1
  Cu  Cu86  1  0.00586196  0.01277894  0.50501708  1
  Cu  Cu87  1  0.50171256  0.49748709  0.74509129  1
  Cu  Cu88  1  0.66060389  0.00385327  0.49942273  1
  Cu  Cu89  1  0.00049886  0.66145273  -0.00688971  1
  Cu  Cu90  1  0.50448459  0.16503081  0.74813711  1
  Cu  Cu91  1  0.17607788  0.49428158  0.25280942  1
  Cu  Cu92  1  0.83728108  0.83358749  0.75074604  1
  Cu  Cu93  1  0.17066182  0.16498013  0.74183376  1
  Cu  Cu94  1  0.33641273  0.65745738  0.00390014  1
  Cu  Cu95  1  0.65470640  0.01205909  0.00554328  1
  Cu  Cu96  1  0.16026383  0.49553549  0.74903144  1
  Cu  Cu97  1  0.66293010  0.33710003  0.00486364  1
  Cu  Cu98  1  0.81960423  0.83399164  0.25117955  1
  Cu  Cu99  1  0.49892340  0.16496895  0.25516385  1
  Cu  Cu100  1  0.17672126  0.83320689  0.74941374  1
  Cu  Cu101  1  0.49798144  0.84056474  0.25047905  1
  Cu  Cu102  1  0.50221133  0.49135072  0.25271972  1
  Cu  Cu103  1  -0.00495756  0.66114838  0.50467128  1
  Cu  Cu104  1  0.66365888  0.65525466  0.49753313  1
  Cu  Cu105  1  0.33461387  0.66958105  0.50193694  1
  Cu  Cu106  1  0.16614268  0.84459496  0.24599845  1
  Cu  Cu107  1  -0.00536103  0.33813197  -0.00746202  1
  Cu  Cu108  1  0.33728427  0.00524086  0.49620855  1
  Cu  Cu109  1  -0.00517566  0.33492170  0.50928618  1
  Cu  Cu110  1  0.34058454  -0.00148338  0.00126220  1
  Cu  Cu111  1  0.66806492  0.33084267  0.49493562  1
  Cu  Cu112  1  0.83531167  0.49353886  0.75114539  1
  Cu  Cu113  1  0.82787065  0.49731400  0.25155736  1
  Cu  Cu114  1  0.66185334  0.66571958  0.00301952  1
  Se  Se115  1  0.07886919  0.07374969  0.05379776  1
  Se  Se116  1  0.09013718  0.09392282  0.55773194  1
  Se  Se117  1  0.08170543  0.41319359  0.05072981  1
  Se  Se118  1  0.08171842  0.42143439  0.55621067  1
  Se  Se119  1  0.07893385  0.74050332  0.05627392  1
  Se  Se120  1  0.07659425  0.74914845  0.55792778  1
  Se  Se121  1  0.41330201  0.08721302  0.05793398  1
  Se  Se122  1  0.42132852  0.08760245  0.54973005  1
  Se  Se123  1  0.43256831  0.42214721  0.05324205  1
  Se  Se124  1  0.42091097  0.41725205  0.54427829  1
  Se  Se125  1  0.41801133  0.74695259  0.05208411  1
  Se  Se126  1  0.41903051  0.75345137  0.55245902  1
  Se  Se127  1  0.74056192  0.08753309  0.06349507  1
  Se  Se128  1  0.75029809  0.08312705  0.54992164  1
  Se  Se129  1  0.74894460  0.42079393  0.05523855  1
  Se  Se130  1  0.75060665  0.41186934  0.55282219  1
  Se  Se131  1  0.74003219  0.74834951  0.06453856  1
  Se  Se132  1  0.73771596  0.73704293  0.56271654  1
  Se  Se133  1  0.25737784  0.25234385  0.06799994  1
  Se  Se134  1  0.26715864  0.27014628  0.54853000  1
  Se  Se135  1  0.24634483  0.57517318  0.04978482  1
  Se  Se136  1  0.24722873  0.58723901  0.55129525  1
  Se  Se137  1  0.25350450  0.91678951  0.05552554  1
  Se  Se138  1  0.25432236  0.92597082  0.55813988  1
  Se  Se139  1  0.58694061  0.24741063  0.05830583  1
  Se  Se140  1  0.58259258  0.24913031  0.54859687  1
  Se  Se141  1  0.58149234  0.57995201  0.05635984  1
  Se  Se142  1  0.57803418  0.57635161  0.55292686  1
  Se  Se143  1  0.57753813  0.91975702  0.05588960  1
  Se  Se144  1  0.57773451  0.91700600  0.54931936  1
  Se  Se145  1  0.92114159  0.25843249  0.05780001  1
  Se  Se146  1  0.91297714  0.24698396  0.55918135  1
  Se  Se147  1  0.91404783  0.58302357  0.04762460  1
  Se  Se148  1  0.91071481  0.57874435  0.55593768  1
  Se  Se149  1  0.92166498  0.92849524  0.04973326  1
  Se  Se150  1  0.92723143  0.92324168  0.55979818  1
  Se  Se151  1  0.08243640  0.25212948  0.45801712  1
  Se  Se152  1  0.07262534  0.25051672  0.93718469  1
  Se  Se153  1  0.08183573  0.58721281  0.44801888  1
  Se  Se154  1  0.08452307  0.57517429  0.94388573  1
  Se  Se155  1  0.07900499  0.93291960  0.43864533  1
  Se  Se156  1  0.07579094  0.92493218  0.94141964  1
  Se  Se157  1  0.40466241  0.26423682  0.44872569  1
  Se  Se158  1  0.40595468  0.26295079  0.94987558  1
  Se  Se159  1  0.41843841  0.58571010  0.44922089  1
  Se  Se160  1  0.42078854  0.57552145  0.94962109  1
  Se  Se161  1  0.41962035  0.91701406  0.44745836  1
  Se  Se162  1  0.42241262  0.91402756  0.94771212  1
  Se  Se163  1  0.75230769  0.24582982  0.44388933  1
  Se  Se164  1  0.74236288  0.26301754  0.93757981  1
  Se  Se165  1  0.74946537  0.57439273  0.44593222  1
  Se  Se166  1  0.74972755  0.58713133  0.95030363  1
  Se  Se167  1  0.74109100  0.91849953  0.44033520  1
  Se  Se168  1  0.73863358  0.93515705  0.94409112  1
  Se  Se169  1  0.25020949  0.08903460  0.44762450  1
  Se  Se170  1  0.25811239  0.07606670  0.94033255  1
  Se  Se171  1  0.22565677  0.44469510  0.44079502  1
  Se  Se172  1  0.24557386  0.40436839  0.95407146  1
  Se  Se173  1  0.25854927  0.74571070  0.43514108  1
  Se  Se174  1  0.26287927  0.73297521  0.93363481  1
  Se  Se175  1  0.58102153  0.08970651  0.44505292  1
  Se  Se176  1  0.57436595  0.09342056  0.94850888  1
  Se  Se177  1  0.58279009  0.41407518  0.44286279  1
  Se  Se178  1  0.58291079  0.41839086  0.94623708  1
  Se  Se179  1  0.58387186  0.74601568  0.44730807  1
  Se  Se180  1  0.58060246  0.74952326  0.94843058  1
  Se  Se181  1  0.91516808  0.08754335  0.45169679  1
  Se  Se182  1  0.92582584  0.08161950  0.94010424  1
  Se  Se183  1  0.91197661  0.41502727  0.45154106  1
  Se  Se184  1  0.90826448  0.41880664  0.94097468  1
  Se  Se185  1  0.91529567  0.74184215  0.44363296  1
  Se  Se186  1  0.92305200  0.74798940  0.93634634  1
  Se  Se187  1  0.24749701  0.25401485  0.31040915  1
  Se  Se188  1  0.24470092  0.24029772  0.81108361  1
  Se  Se189  1  0.25650644  0.57544472  0.31077686  1
  Se  Se190  1  0.25140948  0.56270944  0.81032738  1
  Se  Se191  1  0.25377451  0.92343767  0.29723756  1
  Se  Se192  1  0.25771611  0.91798853  0.80204955  1
  Se  Se193  1  0.58435253  0.24983645  0.30482487  1
  Se  Se194  1  0.58126811  0.25153493  0.80371428  1
  Se  Se195  1  0.58523918  0.57956202  0.30158261  1
  Se  Se196  1  0.57759891  0.57796526  0.80803237  1
  Se  Se197  1  0.58242352  0.92191916  0.30504338  1
  Se  Se198  1  0.57943919  0.91263626  0.80748340  1
  Se  Se199  1  0.91010923  0.24196227  0.30976989  1
  Se  Se200  1  0.91413360  0.24980748  0.79337966  1
  Se  Se201  1  0.91300047  0.56882795  0.31479971  1
  Se  Se202  1  0.91697583  0.58198755  0.80191343  1
  Se  Se203  1  0.90350283  0.90789636  0.31339319  1
  Se  Se204  1  0.92018936  0.91901039  0.80190885  1
  Se  Se205  1  0.08132631  0.09462371  0.31283167  1
  Se  Se206  1  0.08905620  0.08216991  0.79940113  1
  Se  Se207  1  0.09371901  0.41597261  0.31144620  1
  Se  Se208  1  0.07843101  0.41104698  0.80214777  1
  Se  Se209  1  0.09086822  0.76070129  0.30553191  1
  Se  Se210  1  0.09196974  0.74738820  0.79972726  1
  Se  Se211  1  0.41375287  0.08356592  0.30858013  1
  Se  Se212  1  0.42133897  0.08397934  0.80320420  1
  Se  Se213  1  0.41546296  0.41205639  0.30657435  1
  Se  Se214  1  0.42182501  0.41945122  0.80780452  1
  Se  Se215  1  0.42367833  0.75451467  0.31144956  1
  Se  Se216  1  0.42619044  0.75295647  0.80583590  1
  Se  Se217  1  0.74606612  0.07952611  0.30192514  1
  Se  Se218  1  0.75942489  0.09721566  0.80733019  1
  Se  Se219  1  0.74790600  0.41046621  0.30329357  1
  Se  Se220  1  0.74265237  0.41855718  0.80279149  1
  Se  Se221  1  0.74124497  0.74482186  0.30197003  1
  Se  Se222  1  0.75321166  0.75712005  0.80960690  1
  Se  Se223  1  0.24360750  0.08497944  0.20639500  1
  Se  Se224  1  0.26060333  0.08582309  0.69235982  1
  Se  Se225  1  0.25526791  0.41435179  0.19475961  1
  Se  Se226  1  0.24472188  0.42114384  0.68769592  1
  Se  Se227  1  0.24422191  0.75950314  0.18838666  1
  Se  Se228  1  0.25035320  0.75620919  0.68345777  1
  Se  Se229  1  0.58345661  0.08313118  0.19990819  1
  Se  Se230  1  0.58309540  0.08931982  0.68346454  1
  Se  Se231  1  0.58620684  0.40943607  0.19773774  1
  Se  Se232  1  0.58170289  0.40918775  0.69481532  1
  Se  Se233  1  0.57758858  0.74957676  0.19918684  1
  Se  Se234  1  0.57229220  0.75875300  0.69402315  1
  Se  Se235  1  0.90793960  0.09215120  0.18912412  1
  Se  Se236  1  0.92901384  0.07610218  0.69785947  1
  Se  Se237  1  0.91603921  0.42745432  0.18957049  1
  Se  Se238  1  0.91764374  0.41207190  0.69567981  1
  Se  Se239  1  0.90412487  0.75720937  0.19143860  1
  Se  Se240  1  0.92139958  0.74651914  0.70228830  1
  Se  Se241  1  0.09354626  0.23992697  0.19451383  1
  Se  Se242  1  0.08846535  0.25430776  0.69466369  1
  Se  Se243  1  0.09030377  0.57458748  0.19581254  1
  Se  Se244  1  0.07875134  0.58334775  0.69852327  1
  Se  Se245  1  0.08078938  0.91661711  0.18607163  1
  Se  Se246  1  0.08941453  0.91701057  0.69909920  1
  Se  Se247  1  0.41989244  0.24924067  0.19835301  1
  Se  Se248  1  0.42385263  0.24324918  0.68545734  1
  Se  Se249  1  0.42338009  0.57033434  0.18847422  1
  Se  Se250  1  0.41739047  0.57431110  0.68670147  1
  Se  Se251  1  0.41500244  0.92337291  0.19700052  1
  Se  Se252  1  0.42012211  0.92440396  0.70029258  1
  Se  Se253  1  0.76269471  0.24962619  0.20443727  1
  Se  Se254  1  0.74510798  0.25022595  0.69726407  1
  Se  Se255  1  0.74682021  0.58209698  0.19751817  1
  Se  Se256  1  0.75513907  0.57096590  0.68717940  1
  Se  Se257  1  0.74400648  0.92303945  0.19803952  1
  Se  Se258  1  0.75831933  0.91039959  0.68832568  1
