# generated using pymatgen
data_In86Cu29Se144
_symmetry_space_group_name_H-M   'P 1'
_cell_length_a   17.56275173
_cell_length_b   17.56577667
_cell_length_c   23.41973651
_cell_angle_alpha   89.96788029
_cell_angle_beta   90.04076069
_cell_angle_gamma   89.99861384
_symmetry_Int_Tables_number   1
_chemical_formula_structural   In86Cu29Se144
_chemical_formula_sum   'In86 Cu29 Se144'
_cell_volume   7225.06477961
_cell_formula_units_Z   1
loop_
 _symmetry_equiv_pos_site_id
 _symmetry_equiv_pos_as_xyz
  1  'x, y, z'
loop_
 _atom_site_type_symbol
 _atom_site_label
 _atom_site_symmetry_multiplicity
 _atom_site_fract_x
 _atom_site_fract_y
 _atom_site_fract_z
 _atom_site_occupancy
  In  In0  1  0.01083270  0.17101372  0.12807315  1
  In  In1  1  -0.00544341  0.16167477  0.61997039  1
  In  In2  1  -0.00278568  0.48946660  0.12622828  1
  In  In3  1  0.00048581  0.49349993  0.63592672  1
  In  In4  1  0.00814482  0.81905869  0.12199517  1
  In  In5  1  0.00423722  0.82862802  0.62265172  1
  In  In6  1  0.34826241  0.16708658  0.12767655  1
  In  In7  1  0.31898050  0.15999015  0.61682815  1
  In  In8  1  0.33315939  0.50246137  0.12610272  1
  In  In9  1  0.31095836  0.50548573  0.62312203  1
  In  In10  1  0.32729553  0.82289644  0.11883995  1
  In  In11  1  0.33486568  0.83506118  0.62485423  1
  In  In12  1  0.65061827  0.16764138  0.12920367  1
  In  In13  1  0.66046444  0.15131118  0.61059844  1
  In  In14  1  0.67531410  0.51215614  0.12613714  1
  In  In15  1  0.68175310  0.51409083  0.62834237  1
  In  In16  1  0.65915091  0.84504088  0.13291302  1
  In  In17  1  0.67603153  0.82929173  0.62661418  1
  In  In18  1  0.16386819  0.00309281  0.38608816  1
  In  In19  1  0.15947839  -0.01277814  0.85953049  1
  In  In20  1  0.16575181  0.33576314  0.37527183  1
  In  In21  1  0.16630847  0.34244111  0.87348997  1
  In  In22  1  0.18027878  0.65033700  0.40130318  1
  In  In23  1  0.16837608  0.66641137  0.87289326  1
  In  In24  1  0.51789318  0.00099326  0.37779422  1
  In  In25  1  0.50058123  0.00101463  0.87349069  1
  In  In26  1  0.48895805  0.33547888  0.37148664  1
  In  In27  1  0.50543389  0.33472695  0.89351951  1
  In  In28  1  0.49673444  0.67233391  0.36322488  1
  In  In29  1  0.50670207  0.66328549  0.88476596  1
  In  In30  1  0.82167116  -0.00584579  0.39029532  1
  In  In31  1  0.82861121  -0.00069014  0.85858955  1
  In  In32  1  0.84360763  0.32127435  0.38208361  1
  In  In33  1  0.83370606  0.32562267  0.86829537  1
  In  In34  1  0.82697446  0.68113051  0.38683553  1
  In  In35  1  0.83452100  0.65971594  0.85588827  1
  In  In36  1  -0.00147774  0.17607891  0.38720869  1
  In  In37  1  -0.00248901  0.16293251  0.85912319  1
  In  In38  1  0.02074353  0.50228379  0.38344223  1
  In  In39  1  0.00725755  0.50999282  0.86062210  1
  In  In40  1  -0.00022145  0.81739322  0.39740514  1
  In  In41  1  0.00510540  0.83282916  0.86278286  1
  In  In42  1  0.32169191  0.17826340  0.38354720  1
  In  In43  1  0.34435124  0.16628721  0.87410803  1
  In  In44  1  0.32809180  0.49618418  0.36502356  1
  In  In45  1  0.33424049  0.49950519  0.88534581  1
  In  In46  1  0.32897712  0.82164510  0.37491227  1
  In  In47  1  0.33021895  0.83911476  0.87728911  1
  In  In48  1  0.67880837  0.14986147  0.39095742  1
  In  In49  1  0.66436388  0.16243753  0.87327899  1
  In  In50  1  0.65634527  0.50504377  0.37042972  1
  In  In51  1  0.65588207  0.50230468  0.87664859  1
  In  In52  1  0.66708542  0.83603827  0.37574216  1
  In  In53  1  0.65909667  0.83004201  0.87066916  1
  In  In54  1  0.17717587  -0.00481743  0.12297792  1
  In  In55  1  0.16636535  -0.00406961  0.62562354  1
  In  In56  1  0.15873835  0.34922132  0.13211243  1
  In  In57  1  0.13187361  0.31259671  0.59791376  1
  In  In58  1  0.17637461  0.67042321  0.11948814  1
  In  In59  1  0.14421053  0.64116838  0.59657338  1
  In  In60  1  0.50543528  0.01159164  0.11982863  1
  In  In61  1  0.49283290  0.00394708  0.63178875  1
  In  In62  1  0.49436917  0.32072100  0.12039115  1
  In  In63  1  0.51009036  0.32747937  0.62690840  1
  In  In64  1  0.50011667  0.66760471  0.12385787  1
  In  In65  1  0.50235323  0.67785869  0.62665755  1
  In  In66  1  0.83069971  -0.01527106  0.12614314  1
  In  In67  1  0.83083881  0.00011716  0.62204817  1
  In  In68  1  0.83679479  0.34114077  0.13247491  1
  In  In69  1  0.86022932  0.33175037  0.62209061  1
  In  In70  1  0.83260847  0.65727153  0.13068077  1
  In  In71  1  0.81886494  0.68036625  0.63070140  1
  In  In72  1  0.82911571  0.16717107  -0.01056708  1
  In  In73  1  -0.00122895  0.66545323  0.26245298  1
  In  In74  1  0.83702282  0.50010567  0.50053278  1
  In  In75  1  0.49591198  0.49770939  0.49985819  1
  In  In76  1  0.33188633  0.67406889  0.74890488  1
  In  In77  1  0.83095570  0.49741823  0.00030916  1
  In  In78  1  0.17342931  0.16448884  -0.00342083  1
  In  In79  1  0.49800261  0.83390373  0.50195900  1
  In  In80  1  -0.00803330  0.00195138  0.26525257  1
  In  In81  1  0.33853665  0.00217170  0.24977421  1
  In  In82  1  0.33047576  0.33521614  0.75366466  1
  In  In83  1  0.66408585  0.33196351  0.24998837  1
  In  In84  1  0.83317293  0.82909718  -0.01348515  1
  In  In85  1  0.67429982  0.33488794  0.74871959  1
  Cu  Cu86  1  0.66979720  0.32484152  0.50357774  1
  Cu  Cu87  1  0.00778985  -0.01073250  -0.01189446  1
  Cu  Cu88  1  0.65835300  0.00736419  0.00042562  1
  Cu  Cu89  1  0.33832570  0.00362362  0.50353227  1
  Cu  Cu90  1  0.01476463  0.66292985  -0.00660410  1
  Cu  Cu91  1  0.33054427  0.33583152  0.00504402  1
  Cu  Cu92  1  0.00029294  0.33481333  -0.00036687  1
  Cu  Cu93  1  0.50766598  0.83910505  0.74920346  1
  Cu  Cu94  1  0.82344864  0.83363879  0.25778681  1
  Cu  Cu95  1  0.66674754  0.67422409  0.00315098  1
  Cu  Cu96  1  0.15896479  0.83428378  0.25059635  1
  Cu  Cu97  1  0.50153338  0.51011677  0.75653313  1
  Cu  Cu98  1  0.16823136  0.50546586  0.25287295  1
  Cu  Cu99  1  0.16531172  0.82462324  0.74308459  1
  Cu  Cu100  1  0.49907692  0.16181522  0.74943489  1
  Cu  Cu101  1  0.16237004  0.49347698  0.74381234  1
  Cu  Cu102  1  0.33785732  0.66315178  0.00145753  1
  Cu  Cu103  1  0.33121149  0.34069767  0.49430731  1
  Cu  Cu104  1  0.83552896  0.15902847  0.26293232  1
  Cu  Cu105  1  0.16235022  0.16474547  0.73752343  1
  Cu  Cu106  1  0.49925623  0.82959766  0.24860968  1
  Cu  Cu107  1  0.83378728  0.16912743  0.73983616  1
  Cu  Cu108  1  0.49667077  0.50668052  0.24497690  1
  Cu  Cu109  1  0.33536000  -0.00842794  -0.00179075  1
  Cu  Cu110  1  0.83621399  0.49940783  0.25380545  1
  Cu  Cu111  1  -0.00095340  -0.00141714  0.50619649  1
  Cu  Cu112  1  0.50215260  0.16656774  0.25226528  1
  Cu  Cu113  1  0.16803732  0.18406677  0.25329012  1
  Cu  Cu114  1  0.83873719  0.84070936  0.74299624  1
  Se  Se115  1  0.07682557  0.07291722  0.05454947  1
  Se  Se116  1  0.08733202  0.08138027  0.55553073  1
  Se  Se117  1  0.08240305  0.41944483  0.05217826  1
  Se  Se118  1  0.09220529  0.44192719  0.55738921  1
  Se  Se119  1  0.09159852  0.75052317  0.04825236  1
  Se  Se120  1  0.10059017  0.76676275  0.55143693  1
  Se  Se121  1  0.41207483  0.08260754  0.05104114  1
  Se  Se122  1  0.42041766  0.08700720  0.55659736  1
  Se  Se123  1  0.41631861  0.41619569  0.05859544  1
  Se  Se124  1  0.40818204  0.41005179  0.56539583  1
  Se  Se125  1  0.42035816  0.75073135  0.05193637  1
  Se  Se126  1  0.40495346  0.73704595  0.55372615  1
  Se  Se127  1  0.74862151  0.07840445  0.05993799  1
  Se  Se128  1  0.76433900  0.09023664  0.54881329  1
  Se  Se129  1  0.74231439  0.40542110  0.06022924  1
  Se  Se130  1  0.74579918  0.40830706  0.56278511  1
  Se  Se131  1  0.75234316  0.74973072  0.06291462  1
  Se  Se132  1  0.74600472  0.75002142  0.54936731  1
  Se  Se133  1  0.25098036  0.25452041  0.06537230  1
  Se  Se134  1  0.25077145  0.25448875  0.54852875  1
  Se  Se135  1  0.25040515  0.57970995  0.05206376  1
  Se  Se136  1  0.25829712  0.58451521  0.54097923  1
  Se  Se137  1  0.24748965  0.91170123  0.05031954  1
  Se  Se138  1  0.25556075  0.91933706  0.55554241  1
  Se  Se139  1  0.58453823  0.24643374  0.05305853  1
  Se  Se140  1  0.57679266  0.24617669  0.55068928  1
  Se  Se141  1  0.58844908  0.58574871  0.05596084  1
  Se  Se142  1  0.58672575  0.58864525  0.55831540  1
  Se  Se143  1  0.58307230  0.91774323  0.05498543  1
  Se  Se144  1  0.58493331  0.92125710  0.56376794  1
  Se  Se145  1  0.91977722  0.25316349  0.05787269  1
  Se  Se146  1  0.92952259  0.25326551  0.54660984  1
  Se  Se147  1  0.92761911  0.59212552  0.05600268  1
  Se  Se148  1  0.91260075  0.58618528  0.57106350  1
  Se  Se149  1  0.92610644  0.91538594  0.05289037  1
  Se  Se150  1  0.91616201  0.91316308  0.55705407  1
  Se  Se151  1  0.09715225  0.24728914  0.44824444  1
  Se  Se152  1  0.07361999  0.24878867  0.93854384  1
  Se  Se153  1  0.05593541  0.61118718  0.45116829  1
  Se  Se154  1  0.09013918  0.57381399  0.93941404  1
  Se  Se155  1  0.08250046  0.91720207  0.45157316  1
  Se  Se156  1  0.09033903  0.90585410  0.93719776  1
  Se  Se157  1  0.41817060  0.25465843  0.44714375  1
  Se  Se158  1  0.41021958  0.25023934  0.95023194  1
  Se  Se159  1  0.41345860  0.58602535  0.43426824  1
  Se  Se160  1  0.42289989  0.57862878  0.95074541  1
  Se  Se161  1  0.41005869  0.92362045  0.43695625  1
  Se  Se162  1  0.42289539  0.91359039  0.94391215  1
  Se  Se163  1  0.75802508  0.24602057  0.45158116  1
  Se  Se164  1  0.73588690  0.26463574  0.94110299  1
  Se  Se165  1  0.73588908  0.58438205  0.44503360  1
  Se  Se166  1  0.75004000  0.59739106  0.94146683  1
  Se  Se167  1  0.75153185  0.89672254  0.45413921  1
  Se  Se168  1  0.74274930  0.93117523  0.93947207  1
  Se  Se169  1  0.25058203  0.08547185  0.45116290  1
  Se  Se170  1  0.25438337  0.06962735  0.93475167  1
  Se  Se171  1  0.24845224  0.42466913  0.44202085  1
  Se  Se172  1  0.24630993  0.41435274  0.94867544  1
  Se  Se173  1  0.23993528  0.76712456  0.45100308  1
  Se  Se174  1  0.25636347  0.74285267  0.94146260  1
  Se  Se175  1  0.58241858  0.07998879  0.45555038  1
  Se  Se176  1  0.57758947  0.09009430  0.94455685  1
  Se  Se177  1  0.59171840  0.40585604  0.44202682  1
  Se  Se178  1  0.58465112  0.42752993  0.95314159  1
  Se  Se179  1  0.58197770  0.74030516  0.44078168  1
  Se  Se180  1  0.58433953  0.75766276  0.94939633  1
  Se  Se181  1  0.91904768  0.07851668  0.44585662  1
  Se  Se182  1  0.92335898  0.07203268  0.93521412  1
  Se  Se183  1  0.93215138  0.40966334  0.44619736  1
  Se  Se184  1  0.92176874  0.41294741  0.93633401  1
  Se  Se185  1  0.90494802  0.74871841  0.46423554  1
  Se  Se186  1  0.92637193  0.73533687  0.93361963  1
  Se  Se187  1  0.25747419  0.26092897  0.30504560  1
  Se  Se188  1  0.23837972  0.23750984  0.80823989  1
  Se  Se189  1  0.24200710  0.59398932  0.30942673  1
  Se  Se190  1  0.24998721  0.56816037  0.80413313  1
  Se  Se191  1  0.24022126  0.91831519  0.30776144  1
  Se  Se192  1  0.25194799  0.90606001  0.79694584  1
  Se  Se193  1  0.58506687  0.24077809  0.31622822  1
  Se  Se194  1  0.57192814  0.25292009  0.80786196  1
  Se  Se195  1  0.58252943  0.58698896  0.29774105  1
  Se  Se196  1  0.58664342  0.59404640  0.80606828  1
  Se  Se197  1  0.58167415  0.91266697  0.30336303  1
  Se  Se198  1  0.58878112  0.92475068  0.80322699  1
  Se  Se199  1  0.92210895  0.24651423  0.30636146  1
  Se  Se200  1  0.91568055  0.25211004  0.79536191  1
  Se  Se201  1  0.90746017  0.57685810  0.32204148  1
  Se  Se202  1  0.92159481  0.58258792  0.79055037  1
  Se  Se203  1  0.91193610  0.90052567  0.32048121  1
  Se  Se204  1  0.92354223  0.92194801  0.79756696  1
  Se  Se205  1  0.09268771  0.09499763  0.31058994  1
  Se  Se206  1  0.08247920  0.07952365  0.79452642  1
  Se  Se207  1  0.08388626  0.42104257  0.30447691  1
  Se  Se208  1  0.08139860  0.40926180  0.79900978  1
  Se  Se209  1  0.08977578  0.75592360  0.31809374  1
  Se  Se210  1  0.08528307  0.74034604  0.79930993  1
  Se  Se211  1  0.42058488  0.09054116  0.31583144  1
  Se  Se212  1  0.41386496  0.07957511  0.80197676  1
  Se  Se213  1  0.41780572  0.41871204  0.29770707  1
  Se  Se214  1  0.42694025  0.42167815  0.81295604  1
  Se  Se215  1  0.40675646  0.75117085  0.29691482  1
  Se  Se216  1  0.42822441  0.75562742  0.81013608  1
  Se  Se217  1  0.75123106  0.07481368  0.31199179  1
  Se  Se218  1  0.74758978  0.09357716  0.79809982  1
  Se  Se219  1  0.75717429  0.41620636  0.31417592  1
  Se  Se220  1  0.75643599  0.42993065  0.81005894  1
  Se  Se221  1  0.74414344  0.74397391  0.30774582  1
  Se  Se222  1  0.75617621  0.76288022  0.80337972  1
  Se  Se223  1  0.24150145  0.09571262  0.19372591  1
  Se  Se224  1  0.25256932  0.07970611  0.69494022  1
  Se  Se225  1  0.25123372  0.42190850  0.19874819  1
  Se  Se226  1  0.23626588  0.40631819  0.68528877  1
  Se  Se227  1  0.24385361  0.75461509  0.19554426  1
  Se  Se228  1  0.23855750  0.74306647  0.67995118  1
  Se  Se229  1  0.58306445  0.07840777  0.20129062  1
  Se  Se230  1  0.58679924  0.08608113  0.69430411  1
  Se  Se231  1  0.57915090  0.42292916  0.18740041  1
  Se  Se232  1  0.57890041  0.42987733  0.69313359  1
  Se  Se233  1  0.58508742  0.74784882  0.19500391  1
  Se  Se234  1  0.58724293  0.75135342  0.69716990  1
  Se  Se235  1  0.91145543  0.08666931  0.19072462  1
  Se  Se236  1  0.91735781  0.07990527  0.69301653  1
  Se  Se237  1  0.92094585  0.41542480  0.20388729  1
  Se  Se238  1  0.90579710  0.42094384  0.70139045  1
  Se  Se239  1  0.90975765  0.75829615  0.19696222  1
  Se  Se240  1  0.91920423  0.75086108  0.69425667  1
  Se  Se241  1  0.07891099  0.25952170  0.19884180  1
  Se  Se242  1  0.07698847  0.25059403  0.68922911  1
  Se  Se243  1  0.08382125  0.58308766  0.19098367  1
  Se  Se244  1  0.09045775  0.58873136  0.69182198  1
  Se  Se245  1  0.08056590  0.91766860  0.19277628  1
  Se  Se246  1  0.08252862  0.91443592  0.69484415  1
  Se  Se247  1  0.41854320  0.25188585  0.20152938  1
  Se  Se248  1  0.41768204  0.24411375  0.69125092  1
  Se  Se249  1  0.41168329  0.59138009  0.19397302  1
  Se  Se250  1  0.41847512  0.57635665  0.68907925  1
  Se  Se251  1  0.42142002  0.91165365  0.18599421  1
  Se  Se252  1  0.41448900  0.91334884  0.69792906  1
  Se  Se253  1  0.75916301  0.23749389  0.19503892  1
  Se  Se254  1  0.75205597  0.24745942  0.67910521  1
  Se  Se255  1  0.75130691  0.58471306  0.20480428  1
  Se  Se256  1  0.74604969  0.59466269  0.70425629  1
  Se  Se257  1  0.74740846  0.92161051  0.20290228  1
  Se  Se258  1  0.74771986  0.92185964  0.69531857  1
