# generated using pymatgen
data_In86Cu29Se144
_symmetry_space_group_name_H-M   'P 1'
_cell_length_a   17.58595186
_cell_length_b   17.58203541
_cell_length_c   23.44297071
_cell_angle_alpha   90.00973885
_cell_angle_beta   89.97479596
_cell_angle_gamma   89.99760864
_symmetry_Int_Tables_number   1
_chemical_formula_structural   In86Cu29Se144
_chemical_formula_sum   'In86 Cu29 Se144'
_cell_volume   7248.49137779
_cell_formula_units_Z   1
loop_
 _symmetry_equiv_pos_site_id
 _symmetry_equiv_pos_as_xyz
  1  'x, y, z'
loop_
 _atom_site_type_symbol
 _atom_site_label
 _atom_site_symmetry_multiplicity
 _atom_site_fract_x
 _atom_site_fract_y
 _atom_site_fract_z
 _atom_site_occupancy
  In  In0  1  -0.01250685  0.15934098  0.12864066  1
  In  In1  1  -0.00217243  0.16501793  0.61877075  1
  In  In2  1  -0.00788036  0.51419153  0.13018696  1
  In  In3  1  -0.00434756  0.50593678  0.63260575  1
  In  In4  1  -0.01686812  0.83556307  0.14238106  1
  In  In5  1  -0.00291271  0.83207313  0.62810352  1
  In  In6  1  0.35220739  0.16514463  0.13147146  1
  In  In7  1  0.33104084  0.16986069  0.60667050  1
  In  In8  1  0.33662428  0.49129077  0.13537754  1
  In  In9  1  0.34861026  0.50003444  0.61976010  1
  In  In10  1  0.33003650  0.81825844  0.12865439  1
  In  In11  1  0.31985357  0.82953967  0.62193627  1
  In  In12  1  0.65488179  0.16943876  0.12803850  1
  In  In13  1  0.65702659  0.15192604  0.62136800  1
  In  In14  1  0.68356017  0.51570129  0.10749612  1
  In  In15  1  0.65407231  0.50927800  0.62042789  1
  In  In16  1  0.67033606  0.83444087  0.13125221  1
  In  In17  1  0.68385377  0.83615259  0.62580594  1
  In  In18  1  0.15321139  0.00295876  0.38342213  1
  In  In19  1  0.15565721  0.00339541  0.87116302  1
  In  In20  1  0.16970790  0.32244376  0.37759611  1
  In  In21  1  0.16505286  0.34035317  0.86960047  1
  In  In22  1  0.17208179  0.67783529  0.38189892  1
  In  In23  1  0.16607863  0.66509441  0.86552389  1
  In  In24  1  0.51513843  0.00317565  0.37418321  1
  In  In25  1  0.51449175  -0.01083350  0.88310763  1
  In  In26  1  0.49033299  0.34493710  0.38700250  1
  In  In27  1  0.50648247  0.33052417  0.89050194  1
  In  In28  1  0.49699004  0.66137356  0.36750159  1
  In  In29  1  0.50256185  0.66587846  0.88088579  1
  In  In30  1  0.83751785  -0.00622677  0.37641411  1
  In  In31  1  0.82000712  -0.01111558  0.86186099  1
  In  In32  1  0.82221251  0.33133076  0.37980110  1
  In  In33  1  0.84089678  0.33420696  0.87404623  1
  In  In34  1  0.85858322  0.69707109  0.33375051  1
  In  In35  1  0.83650783  0.66756080  0.87923899  1
  In  In36  1  0.00476301  0.15349392  0.38376368  1
  In  In37  1  -0.01508029  0.15736261  0.86170050  1
  In  In38  1  -0.00756866  0.52795996  0.37398917  1
  In  In39  1  -0.00217951  0.50099654  0.86902126  1
  In  In40  1  -0.00859121  0.83062732  0.37881470  1
  In  In41  1  -0.01577935  0.82236175  0.86433324  1
  In  In42  1  0.32582551  0.18023957  0.38553103  1
  In  In43  1  0.33842033  0.17486366  0.87448135  1
  In  In44  1  0.34778936  0.51453747  0.37243849  1
  In  In45  1  0.33596908  0.50683873  0.87472138  1
  In  In46  1  0.33011059  0.81108077  0.37871164  1
  In  In47  1  0.35089658  0.82809499  0.87469204  1
  In  In48  1  0.67555929  0.16096561  0.38476245  1
  In  In49  1  0.67124513  0.15332036  0.87651729  1
  In  In50  1  0.66124467  0.50294995  0.36888071  1
  In  In51  1  0.66516458  0.50076904  0.89199816  1
  In  In52  1  0.68678183  0.84728738  0.35279969  1
  In  In53  1  0.66794706  0.83531942  0.87939135  1
  In  In54  1  0.15652607  -0.01322460  0.12954680  1
  In  In55  1  0.15136778  -0.01502589  0.61169514  1
  In  In56  1  0.16970444  0.34913405  0.12926566  1
  In  In57  1  0.16728230  0.32027135  0.61529929  1
  In  In58  1  0.16686692  0.66652612  0.13689694  1
  In  In59  1  0.15784660  0.67646083  0.62847288  1
  In  In60  1  0.51596419  0.00762483  0.12422845  1
  In  In61  1  0.49589782  0.00492511  0.62527909  1
  In  In62  1  0.50198028  0.32695802  0.12108951  1
  In  In63  1  0.49158889  0.33210200  0.61351414  1
  In  In64  1  0.49885125  0.66654877  0.12550589  1
  In  In65  1  0.50051434  0.65213957  0.62074607  1
  In  In66  1  0.83620858  -0.01256747  0.14085213  1
  In  In67  1  0.83221431  -0.00475748  0.62723492  1
  In  In68  1  0.81470063  0.34135456  0.12145103  1
  In  In69  1  0.84953862  0.33566169  0.62585354  1
  In  In70  1  0.82852807  0.66402711  0.13049473  1
  In  In71  1  0.84145746  0.68739136  0.61918557  1
  In  In72  1  0.50063252  0.83006121  0.49180190  1
  In  In73  1  0.33456818  -0.00269668  0.25521889  1
  In  In74  1  0.16889439  0.50305564  -0.00650196  1
  In  In75  1  0.66212218  0.33590869  0.24808396  1
  In  In76  1  0.16742342  0.83010071  0.00422762  1
  In  In77  1  0.00801954  0.33073376  0.25291406  1
  In  In78  1  0.32534875  -0.00359590  0.74398246  1
  In  In79  1  0.82459561  0.17247311  -0.00105117  1
  In  In80  1  0.82703506  0.50400905  0.49618892  1
  In  In81  1  0.67270677  0.67080577  0.75251503  1
  In  In82  1  0.66928155  0.32946854  0.75689948  1
  In  In83  1  0.32940170  0.33290346  0.74101651  1
  In  In84  1  0.16869431  0.17013790  -0.00863978  1
  In  In85  1  0.17001011  0.50466379  0.49463870  1
  Cu  Cu86  1  0.16333018  0.50245378  0.74818095  1
  Cu  Cu87  1  0.15852911  0.16307595  0.73591996  1
  Cu  Cu88  1  0.50419478  0.82561400  0.75604412  1
  Cu  Cu89  1  0.34025462  0.66313419  0.00235468  1
  Cu  Cu90  1  0.49978966  0.15376016  0.74846379  1
  Cu  Cu91  1  -0.00606249  -0.00475285  0.00379435  1
  Cu  Cu92  1  0.66687099  0.67841036  0.00502220  1
  Cu  Cu93  1  0.67450869  -0.00628119  0.49777298  1
  Cu  Cu94  1  0.17004115  0.16329556  0.25771299  1
  Cu  Cu95  1  0.49927695  0.50056123  0.24627659  1
  Cu  Cu96  1  -0.00488036  0.34062725  -0.00608766  1
  Cu  Cu97  1  0.33291183  0.00380799  0.49634582  1
  Cu  Cu98  1  0.83639481  0.51047171  0.75049346  1
  Cu  Cu99  1  0.66461468  0.32886613  0.50127974  1
  Cu  Cu100  1  0.83665061  0.16838567  0.74479721  1
  Cu  Cu101  1  0.17357349  0.50049672  0.25867234  1
  Cu  Cu102  1  0.49756926  0.49677733  0.75029895  1
  Cu  Cu103  1  0.67123706  -0.00284537  0.00405772  1
  Cu  Cu104  1  0.16412880  0.83229781  0.74375513  1
  Cu  Cu105  1  -0.01074797  0.67492927  0.00488393  1
  Cu  Cu106  1  0.49955830  0.83030376  0.24963214  1
  Cu  Cu107  1  0.34753144  0.00064036  0.00189063  1
  Cu  Cu108  1  0.00084524  0.33189633  0.49805748  1
  Cu  Cu109  1  0.50189950  0.17580547  0.25363759  1
  Cu  Cu110  1  0.66489236  0.66851214  0.49250897  1
  Cu  Cu111  1  -0.00830154  -0.00371316  0.50240885  1
  Cu  Cu112  1  0.83544909  0.15633452  0.25797692  1
  Cu  Cu113  1  0.15937205  0.83148505  0.25673866  1
  Cu  Cu114  1  0.34203280  0.32477979  0.00728831  1
  Se  Se115  1  0.07931088  0.07957160  0.05626979  1
  Se  Se116  1  0.08083764  0.08374727  0.54850336  1
  Se  Se117  1  0.07574918  0.41697862  0.05634869  1
  Se  Se118  1  0.07473652  0.41805774  0.55787972  1
  Se  Se119  1  0.07546044  0.74627012  0.06683687  1
  Se  Se120  1  0.09334452  0.76817712  0.55788865  1
  Se  Se121  1  0.42507833  0.08590904  0.05684941  1
  Se  Se122  1  0.42149548  0.08075549  0.54940540  1
  Se  Se123  1  0.41465828  0.41767472  0.05963053  1
  Se  Se124  1  0.41993246  0.42066067  0.54567865  1
  Se  Se125  1  0.41696820  0.75254736  0.05491417  1
  Se  Se126  1  0.41442604  0.74541454  0.55820719  1
  Se  Se127  1  0.74955515  0.07796672  0.06605345  1
  Se  Se128  1  0.75103170  0.07878623  0.55570666  1
  Se  Se129  1  0.74540704  0.41263342  0.04298366  1
  Se  Se130  1  0.74304070  0.41128037  0.56297372  1
  Se  Se131  1  0.75418535  0.75426224  0.06056499  1
  Se  Se132  1  0.74617557  0.75021403  0.54881518  1
  Se  Se133  1  0.25197659  0.25194310  0.06399019  1
  Se  Se134  1  0.25702496  0.26144719  0.54192755  1
  Se  Se135  1  0.25357008  0.58788029  0.06139100  1
  Se  Se136  1  0.25182110  0.58920831  0.56378529  1
  Se  Se137  1  0.26050657  0.92553395  0.06028676  1
  Se  Se138  1  0.25288277  0.91705454  0.54894177  1
  Se  Se139  1  0.59041520  0.25179915  0.05292432  1
  Se  Se140  1  0.58286909  0.24575238  0.55557805  1
  Se  Se141  1  0.58045077  0.59003608  0.05147681  1
  Se  Se142  1  0.58089683  0.58309211  0.54262529  1
  Se  Se143  1  0.58740157  0.91412058  0.05755232  1
  Se  Se144  1  0.58704215  0.91759254  0.55791241  1
  Se  Se145  1  0.92247778  0.25960989  0.05876412  1
  Se  Se146  1  0.91409553  0.25079080  0.55012839  1
  Se  Se147  1  0.91103415  0.58391289  0.05519591  1
  Se  Se148  1  0.92157454  0.58907370  0.55632448  1
  Se  Se149  1  0.91600695  0.91589533  0.06348824  1
  Se  Se150  1  0.91152069  0.91110958  0.55670238  1
  Se  Se151  1  0.08429072  0.24674359  0.44716083  1
  Se  Se152  1  0.07038093  0.25576985  0.93446377  1
  Se  Se153  1  0.07224534  0.60120656  0.45012055  1
  Se  Se154  1  0.07397950  0.59876781  0.94341251  1
  Se  Se155  1  0.07594438  0.91269258  0.44902532  1
  Se  Se156  1  0.07734544  0.91822981  0.94355342  1
  Se  Se157  1  0.43049817  0.23888609  0.44806456  1
  Se  Se158  1  0.42035853  0.24016183  0.95111360  1
  Se  Se159  1  0.41770858  0.59707262  0.44683970  1
  Se  Se160  1  0.41976906  0.57819238  0.94764039  1
  Se  Se161  1  0.40964590  0.92390887  0.43314140  1
  Se  Se162  1  0.42246847  0.91103476  0.94813688  1
  Se  Se163  1  0.75460739  0.24724452  0.45431243  1
  Se  Se164  1  0.73697739  0.26307718  0.93735602  1
  Se  Se165  1  0.74847043  0.59336968  0.43110207  1
  Se  Se166  1  0.74921181  0.59384611  0.94974083  1
  Se  Se167  1  0.75049399  0.90720697  0.44211639  1
  Se  Se168  1  0.75490108  0.91944175  0.94599310  1
  Se  Se169  1  0.24489368  0.08519162  0.44587055  1
  Se  Se170  1  0.26129881  0.07088848  0.93919321  1
  Se  Se171  1  0.25934825  0.41659474  0.43544348  1
  Se  Se172  1  0.26289651  0.40225909  0.94325628  1
  Se  Se173  1  0.24954698  0.75204717  0.45795712  1
  Se  Se174  1  0.25625017  0.74049979  0.94141465  1
  Se  Se175  1  0.58682935  0.08001413  0.45158825  1
  Se  Se176  1  0.58785007  0.08180685  0.95051573  1
  Se  Se177  1  0.59305820  0.41875384  0.44499467  1
  Se  Se178  1  0.57007007  0.42888063  0.95431332  1
  Se  Se179  1  0.59346423  0.75154045  0.42765853  1
  Se  Se180  1  0.58239442  0.75459859  0.94647180  1
  Se  Se181  1  0.90974087  0.08203966  0.44945608  1
  Se  Se182  1  0.91743514  0.07967448  0.94392992  1
  Se  Se183  1  0.92520770  0.41530488  0.43730081  1
  Se  Se184  1  0.91409140  0.42600729  0.94202222  1
  Se  Se185  1  0.90044020  0.73802147  0.43343146  1
  Se  Se186  1  0.91214041  0.75954998  0.94822219  1
  Se  Se187  1  0.25396697  0.25060714  0.30335364  1
  Se  Se188  1  0.23901166  0.23816694  0.80146492  1
  Se  Se189  1  0.24950336  0.59025488  0.31144842  1
  Se  Se190  1  0.25205690  0.57893648  0.80206617  1
  Se  Se191  1  0.24338245  0.91081288  0.31613194  1
  Se  Se192  1  0.24347937  0.90522251  0.81209912  1
  Se  Se193  1  0.58311969  0.24961346  0.31788867  1
  Se  Se194  1  0.57118595  0.23934623  0.81054975  1
  Se  Se195  1  0.58344744  0.58453075  0.29706999  1
  Se  Se196  1  0.58374642  0.57321756  0.80851757  1
  Se  Se197  1  0.58032811  0.92060304  0.29739361  1
  Se  Se198  1  0.58620287  0.91292705  0.80517499  1
  Se  Se199  1  0.91323614  0.24438928  0.31352426  1
  Se  Se200  1  0.91524668  0.25658747  0.79823508  1
  Se  Se201  1  0.90998476  0.57055205  0.29073561  1
  Se  Se202  1  0.91889720  0.59278154  0.80492261  1
  Se  Se203  1  0.91483890  0.91157635  0.30539578  1
  Se  Se204  1  0.94055497  0.94250211  0.81117182  1
  Se  Se205  1  0.08175146  0.08164038  0.30529333  1
  Se  Se206  1  0.08213911  0.08430826  0.79784802  1
  Se  Se207  1  0.08725367  0.42575958  0.31831248  1
  Se  Se208  1  0.08155939  0.41706884  0.80083716  1
  Se  Se209  1  0.08049486  0.74658860  0.31142830  1
  Se  Se210  1  0.08235214  0.75022276  0.80114937  1
  Se  Se211  1  0.42078093  0.09298033  0.31250301  1
  Se  Se212  1  0.41739733  0.07814219  0.81057619  1
  Se  Se213  1  0.42120067  0.41911701  0.30588198  1
  Se  Se214  1  0.42156436  0.41102233  0.80939536  1
  Se  Se215  1  0.41346358  0.74840247  0.30037951  1
  Se  Se216  1  0.42060600  0.73868096  0.80421988  1
  Se  Se217  1  0.74749230  0.07877885  0.31056630  1
  Se  Se218  1  0.74925188  0.08768383  0.79773471  1
  Se  Se219  1  0.75996567  0.42169610  0.30445271  1
  Se  Se220  1  0.75323887  0.43219875  0.81044669  1
  Se  Se221  1  0.73103895  0.73611493  0.28886378  1
  Se  Se222  1  0.76282844  0.76281766  0.80761520  1
  Se  Se223  1  0.24463155  0.08507160  0.18991006  1
  Se  Se224  1  0.24371929  0.08655536  0.67842337  1
  Se  Se225  1  0.25229861  0.41224247  0.20636039  1
  Se  Se226  1  0.24011342  0.42466633  0.68317950  1
  Se  Se227  1  0.24759937  0.75131772  0.20485607  1
  Se  Se228  1  0.25286934  0.74736444  0.69865751  1
  Se  Se229  1  0.58346531  0.08777386  0.20318905  1
  Se  Se230  1  0.58535441  0.07148224  0.69848784  1
  Se  Se231  1  0.58175258  0.42691193  0.18362122  1
  Se  Se232  1  0.57797932  0.41521776  0.69167408  1
  Se  Se233  1  0.58202024  0.74790929  0.19488564  1
  Se  Se234  1  0.57922072  0.75175760  0.68688852  1
  Se  Se235  1  0.92185446  0.07716143  0.20403060  1
  Se  Se236  1  0.91833829  0.08448277  0.69088259  1
  Se  Se237  1  0.91335320  0.41087141  0.19014565  1
  Se  Se238  1  0.91687671  0.41961382  0.70132306  1
  Se  Se239  1  0.92238676  0.73025352  0.20277088  1
  Se  Se240  1  0.91475512  0.75211057  0.69906917  1
  Se  Se241  1  0.09404059  0.23899783  0.18806812  1
  Se  Se242  1  0.07875100  0.25358268  0.68793856  1
  Se  Se243  1  0.08767224  0.57568114  0.20052072  1
  Se  Se244  1  0.08028367  0.58937350  0.69814206  1
  Se  Se245  1  0.07734407  0.91687208  0.20462394  1
  Se  Se246  1  0.08206266  0.92056403  0.69567095  1
  Se  Se247  1  0.41954666  0.25846963  0.20001356  1
  Se  Se248  1  0.42171792  0.23581669  0.68862724  1
  Se  Se249  1  0.41290627  0.58737676  0.19666686  1
  Se  Se250  1  0.41758549  0.58189681  0.69699701  1
  Se  Se251  1  0.42097413  0.91333376  0.18830775  1
  Se  Se252  1  0.42276843  0.90275264  0.69197117  1
  Se  Se253  1  0.75972728  0.23922562  0.19564961  1
  Se  Se254  1  0.75181120  0.24701093  0.68643342  1
  Se  Se255  1  0.74700806  0.57321539  0.19461057  1
  Se  Se256  1  0.75590674  0.58070355  0.68509341  1
  Se  Se257  1  0.74042960  0.91974630  0.20551551  1
  Se  Se258  1  0.75040774  0.91788144  0.70022696  1
