# generated using pymatgen
data_In86Cu29Se144
_symmetry_space_group_name_H-M   'P 1'
_cell_length_a   17.58070839
_cell_length_b   17.59124743
_cell_length_c   23.44113844
_cell_angle_alpha   89.99205445
_cell_angle_beta   90.00835934
_cell_angle_gamma   89.98046214
_symmetry_Int_Tables_number   1
_chemical_formula_structural   In86Cu29Se144
_chemical_formula_sum   'In86 Cu29 Se144'
_cell_volume   7249.56041158
_cell_formula_units_Z   1
loop_
 _symmetry_equiv_pos_site_id
 _symmetry_equiv_pos_as_xyz
  1  'x, y, z'
loop_
 _atom_site_type_symbol
 _atom_site_label
 _atom_site_symmetry_multiplicity
 _atom_site_fract_x
 _atom_site_fract_y
 _atom_site_fract_z
 _atom_site_occupancy
  In  In0  1  0.00142111  0.17417165  0.11932052  1
  In  In1  1  0.00424009  0.17379949  0.62205970  1
  In  In2  1  -0.00974556  0.50722303  0.12413817  1
  In  In3  1  0.00077002  0.50943164  0.61574986  1
  In  In4  1  0.00671009  0.83409092  0.12427299  1
  In  In5  1  -0.01521889  0.83202566  0.62937993  1
  In  In6  1  0.32855356  0.15777905  0.11920782  1
  In  In7  1  0.33777251  0.16714346  0.63507935  1
  In  In8  1  0.35074031  0.49291388  0.12924137  1
  In  In9  1  0.31875538  0.48016330  0.60267491  1
  In  In10  1  0.34641422  0.82836739  0.13411571  1
  In  In11  1  0.35406757  0.83676083  0.62263879  1
  In  In12  1  0.67125039  0.17934388  0.11638717  1
  In  In13  1  0.66276756  0.16323705  0.62428838  1
  In  In14  1  0.66687548  0.49901871  0.12892360  1
  In  In15  1  0.66800931  0.50146979  0.61915933  1
  In  In16  1  0.64776470  0.83566274  0.12408389  1
  In  In17  1  0.65299012  0.83595692  0.63231477  1
  In  In18  1  0.18576168  0.00433974  0.37570445  1
  In  In19  1  0.18350423  0.00690081  0.86735499  1
  In  In20  1  0.17920427  0.33159794  0.39131390  1
  In  In21  1  0.17137212  0.31238786  0.87253464  1
  In  In22  1  0.16926627  0.64962464  0.38334510  1
  In  In23  1  0.16625903  0.67602164  0.86828129  1
  In  In24  1  0.49057134  0.01333748  0.38448856  1
  In  In25  1  0.49237070  0.00327933  0.87139962  1
  In  In26  1  0.50315723  0.32323933  0.38501983  1
  In  In27  1  0.49578678  0.33450633  0.87292488  1
  In  In28  1  0.50290067  0.66713558  0.37708698  1
  In  In29  1  0.51255892  0.65289403  0.88215279  1
  In  In30  1  0.84130389  0.00388352  0.37896445  1
  In  In31  1  0.82477396  0.02208538  0.86553171  1
  In  In32  1  0.82084264  0.34422444  0.38173416  1
  In  In33  1  0.83287749  0.33134740  0.87885984  1
  In  In34  1  0.82807767  0.66263489  0.37305706  1
  In  In35  1  0.81851006  0.65308583  0.87008594  1
  In  In36  1  0.00256938  0.16998468  0.38436122  1
  In  In37  1  -0.00159525  0.17336490  0.87830139  1
  In  In38  1  0.00183108  0.50270294  0.38841577  1
  In  In39  1  -0.01661195  0.49156531  0.87213285  1
  In  In40  1  -0.00058347  0.83176268  0.37885628  1
  In  In41  1  0.00968047  0.82956026  0.86895011  1
  In  In42  1  0.34144476  0.16916786  0.38321901  1
  In  In43  1  0.33377307  0.16939374  0.87094466  1
  In  In44  1  0.32878697  0.50291454  0.38494369  1
  In  In45  1  0.35057702  0.50221689  0.87399417  1
  In  In46  1  0.34877915  0.84429073  0.37377120  1
  In  In47  1  0.33840368  0.84293660  0.87335538  1
  In  In48  1  0.65942412  0.17928701  0.38050917  1
  In  In49  1  0.66347877  0.16288576  0.86852513  1
  In  In50  1  0.66943598  0.49620461  0.37211344  1
  In  In51  1  0.65946393  0.50125908  0.87661807  1
  In  In52  1  0.66682460  0.81701503  0.37140861  1
  In  In53  1  0.65555682  0.82603665  0.87289675  1
  In  In54  1  0.17979543  0.02221591  0.12158620  1
  In  In55  1  0.18251992  0.03282825  0.63247209  1
  In  In56  1  0.17903008  0.32253064  0.12718965  1
  In  In57  1  0.17488295  0.32855335  0.62331723  1
  In  In58  1  0.17205595  0.67834320  0.12754734  1
  In  In59  1  0.15954946  0.65322716  0.62199854  1
  In  In60  1  0.49224551  -0.00391544  0.11767193  1
  In  In61  1  0.50687848  0.00527219  0.63442883  1
  In  In62  1  0.50882796  0.34276263  0.11775167  1
  In  In63  1  0.47485532  0.31227799  0.60314074  1
  In  In64  1  0.50421938  0.66430401  0.12982724  1
  In  In65  1  0.50411872  0.66698315  0.61995566  1
  In  In66  1  0.82025812  0.01427191  0.12026469  1
  In  In67  1  0.81715778  0.00256843  0.63000522  1
  In  In68  1  0.82479088  0.33000621  0.12320124  1
  In  In69  1  0.82815670  0.33515080  0.61668909  1
  In  In70  1  0.82444887  0.64541333  0.12206091  1
  In  In71  1  0.83405319  0.65483105  0.63044781  1
  In  In72  1  0.33548272  0.66288100  0.74346057  1
  In  In73  1  0.16677445  0.83412584  0.50744173  1
  In  In74  1  0.16682735  0.49519685  0.00346724  1
  In  In75  1  0.00299085  0.33349321  0.74532856  1
  In  In76  1  -0.00036862  -0.00407036  0.74923253  1
  In  In77  1  0.82654796  0.83146464  0.49380096  1
  In  In78  1  0.17039460  0.83993262  -0.00712942  1
  In  In79  1  0.34117231  0.33118746  0.25874972  1
  In  In80  1  0.66175753  0.00170074  0.24733201  1
  In  In81  1  0.65532563  0.32866351  0.74476900  1
  In  In82  1  0.83119334  0.83863926  -0.00211922  1
  In  In83  1  0.00101210  0.33373715  0.24894493  1
  In  In84  1  0.00324871  0.66486562  0.26103626  1
  In  In85  1  0.00673548  -0.00388098  0.25455479  1
  Cu  Cu86  1  0.50623502  0.50578087  0.25133308  1
  Cu  Cu87  1  0.49807822  0.16930746  0.25246094  1
  Cu  Cu88  1  -0.00656106  0.65886602  -0.00676898  1
  Cu  Cu89  1  0.33869913  0.67050884  0.50017417  1
  Cu  Cu90  1  0.00178622  0.00836218  0.50477018  1
  Cu  Cu91  1  0.33737507  0.00371666  -0.00522533  1
  Cu  Cu92  1  0.49937803  0.83191947  0.25222024  1
  Cu  Cu93  1  0.16609197  0.49435426  0.74090157  1
  Cu  Cu94  1  0.66325322  0.66134911  0.00117189  1
  Cu  Cu95  1  0.50004527  0.49790514  0.74395275  1
  Cu  Cu96  1  0.82647136  0.82235296  0.75180390  1
  Cu  Cu97  1  0.15900981  0.82522440  0.74243653  1
  Cu  Cu98  1  0.33885602  0.00908766  0.50548527  1
  Cu  Cu99  1  0.16800786  0.50143050  0.26011777  1
  Cu  Cu100  1  0.34655038  0.66646215  0.00612796  1
  Cu  Cu101  1  0.83101492  0.17079660  0.24836706  1
  Cu  Cu102  1  0.66116452  0.33261465  -0.00390290  1
  Cu  Cu103  1  0.82716973  0.50479192  0.74765709  1
  Cu  Cu104  1  0.00111079  0.33230599  0.50367596  1
  Cu  Cu105  1  0.50169456  0.83151966  0.75180000  1
  Cu  Cu106  1  0.66623144  0.66688851  0.49789348  1
  Cu  Cu107  1  0.18300066  0.83591828  0.25187756  1
  Cu  Cu108  1  0.33518019  0.32778982  -0.00186041  1
  Cu  Cu109  1  -0.00370791  0.01285294  -0.00373360  1
  Cu  Cu110  1  0.65952410  0.00521393  0.50581102  1
  Cu  Cu111  1  0.67017627  0.33492494  0.49992076  1
  Cu  Cu112  1  0.82933821  0.82011448  0.24422430  1
  Cu  Cu113  1  0.66153311  0.00830826  -0.00483015  1
  Cu  Cu114  1  -0.00636054  0.33232377  -0.00029703  1
  Se  Se115  1  0.08348082  0.08725195  0.05352425  1
  Se  Se116  1  0.08915554  0.08727392  0.55730968  1
  Se  Se117  1  0.07512185  0.40575766  0.06496545  1
  Se  Se118  1  0.08382248  0.41235472  0.56008037  1
  Se  Se119  1  0.07641740  0.74128892  0.05010776  1
  Se  Se120  1  0.06895465  0.74608853  0.55972080  1
  Se  Se121  1  0.41978134  0.08759957  0.04918694  1
  Se  Se122  1  0.42281454  0.08502435  0.56428588  1
  Se  Se123  1  0.41549582  0.41629985  0.04950955  1
  Se  Se124  1  0.43756036  0.43471146  0.54913455  1
  Se  Se125  1  0.42483422  0.75255546  0.05974095  1
  Se  Se126  1  0.42465832  0.75329470  0.54981693  1
  Se  Se127  1  0.74828114  0.09169352  0.04534173  1
  Se  Se128  1  0.75071220  0.08505750  0.55358703  1
  Se  Se129  1  0.74225530  0.41344521  0.05518559  1
  Se  Se130  1  0.75288040  0.42327254  0.54844648  1
  Se  Se131  1  0.74361645  0.74718214  0.05905095  1
  Se  Se132  1  0.74251192  0.74790738  0.56179486  1
  Se  Se133  1  0.24895036  0.24614536  0.05004205  1
  Se  Se134  1  0.25913966  0.24333720  0.55979996  1
  Se  Se135  1  0.25754819  0.58854483  0.06190987  1
  Se  Se136  1  0.24895066  0.58987631  0.54881550  1
  Se  Se137  1  0.25997522  0.92070522  0.05862741  1
  Se  Se138  1  0.25615030  0.92831650  0.56488253  1
  Se  Se139  1  0.57692093  0.24858953  0.04851038  1
  Se  Se140  1  0.58857384  0.24779683  0.55160583  1
  Se  Se141  1  0.58197954  0.57987891  0.05879354  1
  Se  Se142  1  0.58310106  0.58261601  0.55004123  1
  Se  Se143  1  0.58319821  0.92101791  0.04899013  1
  Se  Se144  1  0.58021219  0.91916334  0.55898250  1
  Se  Se145  1  0.90977411  0.24885237  0.05399447  1
  Se  Se146  1  0.91511572  0.24879011  0.55402557  1
  Se  Se147  1  0.91101495  0.57787833  0.04747684  1
  Se  Se148  1  0.90340343  0.58001266  0.55222972  1
  Se  Se149  1  0.92468267  0.92901987  0.05970784  1
  Se  Se150  1  0.91578891  0.92496318  0.55644417  1
  Se  Se151  1  0.08732362  0.24887486  0.45272652  1
  Se  Se152  1  0.08225757  0.25201147  0.94861710  1
  Se  Se153  1  0.08193864  0.58659046  0.45590058  1
  Se  Se154  1  0.08193117  0.58438052  0.93624684  1
  Se  Se155  1  0.07930871  0.92694844  0.44290870  1
  Se  Se156  1  0.07588376  0.93177739  0.93676517  1
  Se  Se157  1  0.40307798  0.26475236  0.45261484  1
  Se  Se158  1  0.41801170  0.24733808  0.94247597  1
  Se  Se159  1  0.42033165  0.58551021  0.44705525  1
  Se  Se160  1  0.42237249  0.57836831  0.95147104  1
  Se  Se161  1  0.41856260  0.92059950  0.45296962  1
  Se  Se162  1  0.42013678  0.91502245  0.94658140  1
  Se  Se163  1  0.75424284  0.24673559  0.44922808  1
  Se  Se164  1  0.74114996  0.24927544  0.93912187  1
  Se  Se165  1  0.74801040  0.58319143  0.44387729  1
  Se  Se166  1  0.74675606  0.57768445  0.94815111  1
  Se  Se167  1  0.73514895  0.92746721  0.43778259  1
  Se  Se168  1  0.74391506  0.92702400  0.93572105  1
  Se  Se169  1  0.25243203  0.08747189  0.45100893  1
  Se  Se170  1  0.25120774  0.08650663  0.94409571  1
  Se  Se171  1  0.24460776  0.42851103  0.45616013  1
  Se  Se172  1  0.25595508  0.41256642  0.93849947  1
  Se  Se173  1  0.25616765  0.75253098  0.44055255  1
  Se  Se174  1  0.26288549  0.73916377  0.94282292  1
  Se  Se175  1  0.58149773  0.09158935  0.44876225  1
  Se  Se176  1  0.57700195  0.08707308  0.93936403  1
  Se  Se177  1  0.58723504  0.41622428  0.44426936  1
  Se  Se178  1  0.57739107  0.41647962  0.94319663  1
  Se  Se179  1  0.58290917  0.75419652  0.44796711  1
  Se  Se180  1  0.58173368  0.74865886  0.94993862  1
  Se  Se181  1  0.91529347  0.08701599  0.45001098  1
  Se  Se182  1  0.90966053  0.08915527  0.94134469  1
  Se  Se183  1  0.91704701  0.41321199  0.44899595  1
  Se  Se184  1  0.90999462  0.41715631  0.94935297  1
  Se  Se185  1  0.92429127  0.73778182  0.44418086  1
  Se  Se186  1  0.91840258  0.74651339  0.93621384  1
  Se  Se187  1  0.24352429  0.24504447  0.31224444  1
  Se  Se188  1  0.26681119  0.26332108  0.79996623  1
  Se  Se189  1  0.25509218  0.58461338  0.30800028  1
  Se  Se190  1  0.24409710  0.57376563  0.80665138  1
  Se  Se191  1  0.26187737  0.92295105  0.30420860  1
  Se  Se192  1  0.24075369  0.90124333  0.80289729  1
  Se  Se193  1  0.58035445  0.25322256  0.30499376  1
  Se  Se194  1  0.56437385  0.23768683  0.80140576  1
  Se  Se195  1  0.58772868  0.58774962  0.30717879  1
  Se  Se196  1  0.58125241  0.57871966  0.80114417  1
  Se  Se197  1  0.57715477  0.91546739  0.31354063  1
  Se  Se198  1  0.58047431  0.91736946  0.80675816  1
  Se  Se199  1  0.91231069  0.24494062  0.31135571  1
  Se  Se200  1  0.90870566  0.24573562  0.80377705  1
  Se  Se201  1  0.91208496  0.56699828  0.30884823  1
  Se  Se202  1  0.91472015  0.58278708  0.80268948  1
  Se  Se203  1  0.90542702  0.90252718  0.30546397  1
  Se  Se204  1  0.90468703  0.90832160  0.81107948  1
  Se  Se205  1  0.09099103  0.09061765  0.31205467  1
  Se  Se206  1  0.08660328  0.09107144  0.80740943  1
  Se  Se207  1  0.08935243  0.41809161  0.31637629  1
  Se  Se208  1  0.09178488  0.42052571  0.81127598  1
  Se  Se209  1  0.09907937  0.76021880  0.31289167  1
  Se  Se210  1  0.07694400  0.74213477  0.79514553  1
  Se  Se211  1  0.41581773  0.08833611  0.30729243  1
  Se  Se212  1  0.39262975  0.06536276  0.80260003  1
  Se  Se213  1  0.42709666  0.42696788  0.31500300  1
  Se  Se214  1  0.41734763  0.41739826  0.79986073  1
  Se  Se215  1  0.41755679  0.74847530  0.30685012  1
  Se  Se216  1  0.42277221  0.74603530  0.81131867  1
  Se  Se217  1  0.75419187  0.08745888  0.30958678  1
  Se  Se218  1  0.73358858  0.08014070  0.79148445  1
  Se  Se219  1  0.74526640  0.40821342  0.30246290  1
  Se  Se220  1  0.75097732  0.41802296  0.80607200  1
  Se  Se221  1  0.74784753  0.74000904  0.29934330  1
  Se  Se222  1  0.74001813  0.74319398  0.80559127  1
  Se  Se223  1  0.25888555  0.08531933  0.19967489  1
  Se  Se224  1  0.27473553  0.07367010  0.71153638  1
  Se  Se225  1  0.24577488  0.42186774  0.19678182  1
  Se  Se226  1  0.25497654  0.41692838  0.69084161  1
  Se  Se227  1  0.25882771  0.74543250  0.19985795  1
  Se  Se228  1  0.24638071  0.75404527  0.68143816  1
  Se  Se229  1  0.57668077  0.09353859  0.18646513  1
  Se  Se230  1  0.60618796  0.07246487  0.70147060  1
  Se  Se231  1  0.58085026  0.41526559  0.19712916  1
  Se  Se232  1  0.57202652  0.41538850  0.67952732  1
  Se  Se233  1  0.58511425  0.75031279  0.20009927  1
  Se  Se234  1  0.57869363  0.74220838  0.69862930  1
  Se  Se235  1  0.91309691  0.08677175  0.19322288  1
  Se  Se236  1  0.91392958  0.08926862  0.69038511  1
  Se  Se237  1  0.90764411  0.42288979  0.19292262  1
  Se  Se238  1  0.90848763  0.42381768  0.68955491  1
  Se  Se239  1  0.91814148  0.74681075  0.18714857  1
  Se  Se240  1  0.91324380  0.74391709  0.69872494  1
  Se  Se241  1  0.09353924  0.23801254  0.19639409  1
  Se  Se242  1  0.09790572  0.23853083  0.69713219  1
  Se  Se243  1  0.09209039  0.57697662  0.19269247  1
  Se  Se244  1  0.07800012  0.57960522  0.69616973  1
  Se  Se245  1  0.10014481  0.91195425  0.18992229  1
  Se  Se246  1  0.09133602  0.91573479  0.68197895  1
  Se  Se247  1  0.42215143  0.24882883  0.18683166  1
  Se  Se248  1  0.42152981  0.25998243  0.69629334  1
  Se  Se249  1  0.41685606  0.58427966  0.19940730  1
  Se  Se250  1  0.41577572  0.57123368  0.68067393  1
  Se  Se251  1  0.42264540  0.92227392  0.19862243  1
  Se  Se252  1  0.42000301  0.91671698  0.69987179  1
  Se  Se253  1  0.74477349  0.25069859  0.19641555  1
  Se  Se254  1  0.75817327  0.24668535  0.69080981  1
  Se  Se255  1  0.74568267  0.58345395  0.19946584  1
  Se  Se256  1  0.73797126  0.58383080  0.69669214  1
  Se  Se257  1  0.75625392  0.90967901  0.18791074  1
  Se  Se258  1  0.74885752  0.90908794  0.69767696  1
