# generated using pymatgen
data_In86Cu29Se144
_symmetry_space_group_name_H-M   'P 1'
_cell_length_a   17.59461234
_cell_length_b   17.60250212
_cell_length_c   23.45498425
_cell_angle_alpha   89.98171932
_cell_angle_beta   89.99886719
_cell_angle_gamma   89.97727316
_symmetry_Int_Tables_number   1
_chemical_formula_structural   In86Cu29Se144
_chemical_formula_sum   'In86 Cu29 Se144'
_cell_volume   7264.22348847
_cell_formula_units_Z   1
loop_
 _symmetry_equiv_pos_site_id
 _symmetry_equiv_pos_as_xyz
  1  'x, y, z'
loop_
 _atom_site_type_symbol
 _atom_site_label
 _atom_site_symmetry_multiplicity
 _atom_site_fract_x
 _atom_site_fract_y
 _atom_site_fract_z
 _atom_site_occupancy
  In  In0  1  0.00343437  0.17581415  0.11747617  1
  In  In1  1  -0.00777761  0.18362013  0.63588789  1
  In  In2  1  -0.01853989  0.48396875  0.11618220  1
  In  In3  1  -0.01700995  0.51245911  0.63356573  1
  In  In4  1  -0.00157703  0.83296342  0.12834102  1
  In  In5  1  -0.01775520  0.80825877  0.60855858  1
  In  In6  1  0.33285055  0.15806997  0.11176985  1
  In  In7  1  0.32451572  0.15888069  0.63467553  1
  In  In8  1  0.33716774  0.51031024  0.11227486  1
  In  In9  1  0.34895312  0.50557446  0.62691741  1
  In  In10  1  0.34512485  0.82420994  0.12427027  1
  In  In11  1  0.33412203  0.83256494  0.62627658  1
  In  In12  1  0.65992342  0.15094348  0.10419052  1
  In  In13  1  0.67621565  0.15626009  0.63096818  1
  In  In14  1  0.67513500  0.51110130  0.11518072  1
  In  In15  1  0.66536209  0.49340263  0.62118206  1
  In  In16  1  0.65802973  0.83173714  0.12862875  1
  In  In17  1  0.67098904  0.84820736  0.61684184  1
  In  In18  1  0.16880420  -0.00720412  0.37629430  1
  In  In19  1  0.18315749  0.00009543  0.87890813  1
  In  In20  1  0.15635513  0.34732584  0.36998972  1
  In  In21  1  0.16083070  0.33699724  0.87712919  1
  In  In22  1  0.17423928  0.67257534  0.37810755  1
  In  In23  1  0.16041852  0.65856045  0.86554082  1
  In  In24  1  0.49061024  0.00251390  0.37247318  1
  In  In25  1  0.50235208  -0.00067314  0.87762382  1
  In  In26  1  0.51664211  0.33681222  0.37756563  1
  In  In27  1  0.51476688  0.32274562  0.87785052  1
  In  In28  1  0.51072013  0.65819239  0.38214034  1
  In  In29  1  0.49982934  0.67935113  0.88275987  1
  In  In30  1  0.83101822  -0.00050227  0.39294785  1
  In  In31  1  0.83305145  0.00845185  0.87202228  1
  In  In32  1  0.83801211  0.32398028  0.38171043  1
  In  In33  1  0.83237951  0.33426899  0.86831886  1
  In  In34  1  0.82438437  0.67632169  0.38830710  1
  In  In35  1  0.82574857  0.65120739  0.87189010  1
  In  In36  1  -0.01209965  0.17090637  0.37370665  1
  In  In37  1  -0.01160436  0.18022106  0.88030659  1
  In  In38  1  0.00260182  0.49065269  0.37192340  1
  In  In39  1  -0.00181902  0.49634304  0.86960404  1
  In  In40  1  -0.00300809  0.83391529  0.39618637  1
  In  In41  1  0.00273568  0.82905398  0.86533340  1
  In  In42  1  0.34706803  0.15867050  0.36857138  1
  In  In43  1  0.35304339  0.14331430  0.89324150  1
  In  In44  1  0.33379353  0.51312542  0.37501237  1
  In  In45  1  0.32779710  0.50301936  0.87641290  1
  In  In46  1  0.32957341  0.84102827  0.38168285  1
  In  In47  1  0.35031593  0.84734992  0.86608348  1
  In  In48  1  0.67642759  0.17310549  0.38072603  1
  In  In49  1  0.66403054  0.16525670  0.87083243  1
  In  In50  1  0.65581510  0.50319335  0.38425735  1
  In  In51  1  0.68138146  0.49773051  0.88281185  1
  In  In52  1  0.67663161  0.82557618  0.39089944  1
  In  In53  1  0.65157939  0.82893406  0.87664319  1
  In  In54  1  0.17384803  0.01759455  0.11693241  1
  In  In55  1  0.18051691  -0.00723199  0.63363232  1
  In  In56  1  0.15604144  0.32531084  0.11636460  1
  In  In57  1  0.16033531  0.32318195  0.63213703  1
  In  In58  1  0.17593210  0.66457376  0.12100910  1
  In  In59  1  0.15308084  0.68060050  0.63318411  1
  In  In60  1  0.48539154  -0.01952556  0.10277371  1
  In  In61  1  0.51324632  -0.01402632  0.63580531  1
  In  In62  1  0.50263841  0.33892600  0.11335507  1
  In  In63  1  0.50399427  0.34673726  0.62467000  1
  In  In64  1  0.51548156  0.68028922  0.10632852  1
  In  In65  1  0.49377967  0.66404985  0.62588236  1
  In  In66  1  0.81535651  0.00277580  0.11740042  1
  In  In67  1  0.81088879  -0.01452608  0.61264009  1
  In  In68  1  0.82938820  0.33241536  0.12126423  1
  In  In69  1  0.83122009  0.33635810  0.62586165  1
  In  In70  1  0.83802197  0.65257383  0.12546390  1
  In  In71  1  0.84369839  0.66636081  0.61860880  1
  In  In72  1  0.17144788  0.83132633  -0.00239568  1
  In  In73  1  0.16293849  0.50862595  0.50120615  1
  In  In74  1  0.51146158  0.16114150  0.50443233  1
  In  In75  1  0.66916612  0.33025701  0.24937207  1
  In  In76  1  0.66600836  0.67151420  0.75190872  1
  In  In77  1  0.33344209  0.32892237  0.75777929  1
  In  In78  1  0.16513140  0.16372098  0.50694019  1
  In  In79  1  0.00214420  0.66215659  0.26042443  1
  In  In80  1  0.66274924  -0.00064059  0.25090818  1
  In  In81  1  0.00050932  -0.00214786  0.74784252  1
  In  In82  1  0.82511153  0.83132637  -0.00840006  1
  In  In83  1  -0.00332358  0.00215620  0.25456864  1
  In  In84  1  0.32853313  0.33360888  0.24645743  1
  In  In85  1  0.33712934  0.66620192  0.25156241  1
  Cu  Cu86  1  0.00166443  0.65379955  -0.00543900  1
  Cu  Cu87  1  0.50368400  0.50310899  0.25150715  1
  Cu  Cu88  1  0.34012791  -0.00482809  0.50448412  1
  Cu  Cu89  1  0.17023177  0.84789879  0.25657798  1
  Cu  Cu90  1  0.34200452  0.33689697  0.49973512  1
  Cu  Cu91  1  0.66158068  0.66400514  0.50765674  1
  Cu  Cu92  1  0.50735693  0.50229165  0.74943434  1
  Cu  Cu93  1  0.16798767  0.82725514  0.74850550  1
  Cu  Cu94  1  -0.00402662  0.33755939  0.50414508  1
  Cu  Cu95  1  0.83585249  0.16902568  0.24825622  1
  Cu  Cu96  1  0.33145643  0.66597302  -0.00735269  1
  Cu  Cu97  1  0.83046576  0.16842479  0.75095068  1
  Cu  Cu98  1  0.15340646  0.49375477  0.23926996  1
  Cu  Cu99  1  0.33605439  0.67190510  0.50195151  1
  Cu  Cu100  1  0.83448401  0.49728946  0.74971307  1
  Cu  Cu101  1  0.16798459  0.16911269  0.24004374  1
  Cu  Cu102  1  0.82554305  0.49740560  0.24593099  1
  Cu  Cu103  1  0.67357058  0.33474045  -0.00606374  1
  Cu  Cu104  1  -0.00315500  0.33881456  -0.00424451  1
  Cu  Cu105  1  0.00398698  0.00681106  0.50560589  1
  Cu  Cu106  1  0.16674444  0.49745986  0.75240927  1
  Cu  Cu107  1  0.49973871  0.83296122  0.24705450  1
  Cu  Cu108  1  0.16789842  0.16426243  0.76019634  1
  Cu  Cu109  1  0.32683364  0.33710599  -0.00315804  1
  Cu  Cu110  1  0.49610978  0.15951960  0.24118049  1
  Cu  Cu111  1  -0.00401219  0.00368560  -0.00231379  1
  Cu  Cu112  1  0.50012189  0.16329986  0.75688740  1
  Cu  Cu113  1  0.49495025  0.83577865  0.75166603  1
  Cu  Cu114  1  0.82842175  0.82559393  0.26391566  1
  Se  Se115  1  0.08061812  0.08609111  0.05020064  1
  Se  Se116  1  0.07862769  0.08045938  0.57282401  1
  Se  Se117  1  0.08225730  0.41966999  0.05093517  1
  Se  Se118  1  0.08142658  0.41262207  0.56300513  1
  Se  Se119  1  0.07310399  0.74142762  0.05618518  1
  Se  Se120  1  0.09115740  0.74979779  0.54900530  1
  Se  Se121  1  0.43527366  0.09695023  0.04849933  1
  Se  Se122  1  0.41282122  0.08016065  0.56498993  1
  Se  Se123  1  0.41408040  0.41881626  0.04792952  1
  Se  Se124  1  0.42056035  0.42256304  0.55251257  1
  Se  Se125  1  0.41487117  0.75160560  0.04468542  1
  Se  Se126  1  0.41975458  0.75364156  0.55612814  1
  Se  Se127  1  0.76576950  0.09370348  0.04170707  1
  Se  Se128  1  0.75121374  0.09036856  0.55029618  1
  Se  Se129  1  0.75262410  0.41813521  0.05178532  1
  Se  Se130  1  0.77001855  0.43522207  0.55735525  1
  Se  Se131  1  0.74978162  0.74551982  0.06399493  1
  Se  Se132  1  0.74678321  0.74663565  0.55903319  1
  Se  Se133  1  0.24868414  0.25006005  0.05176886  1
  Se  Se134  1  0.26162127  0.25884582  0.56007783  1
  Se  Se135  1  0.24463530  0.58482463  0.04502297  1
  Se  Se136  1  0.25580050  0.59165268  0.56316928  1
  Se  Se137  1  0.25910159  0.91852986  0.05947249  1
  Se  Se138  1  0.25075047  0.91606471  0.55548918  1
  Se  Se139  1  0.58707625  0.25518703  0.04816072  1
  Se  Se140  1  0.59261192  0.25528261  0.56453298  1
  Se  Se141  1  0.56259308  0.56087173  0.05580712  1
  Se  Se142  1  0.57728754  0.57988711  0.55895538  1
  Se  Se143  1  0.61225921  0.93504854  0.06032299  1
  Se  Se144  1  0.57599496  0.91968975  0.55116967  1
  Se  Se145  1  0.91511966  0.25423155  0.05136036  1
  Se  Se146  1  0.91621284  0.25088823  0.55663221  1
  Se  Se147  1  0.91185045  0.57855867  0.04811716  1
  Se  Se148  1  0.91771124  0.57700458  0.54954692  1
  Se  Se149  1  0.92025596  0.91905450  0.05747541  1
  Se  Se150  1  0.91907210  0.92038445  0.55380139  1
  Se  Se151  1  0.08063460  0.25851915  0.44424179  1
  Se  Se152  1  0.08206841  0.25168844  0.94739417  1
  Se  Se153  1  0.07355252  0.59371310  0.43745502  1
  Se  Se154  1  0.08601486  0.57638914  0.93917233  1
  Se  Se155  1  0.08785076  0.92430831  0.45182105  1
  Se  Se156  1  0.07478426  0.91989337  0.93981370  1
  Se  Se157  1  0.41605949  0.25172857  0.44097331  1
  Se  Se158  1  0.41432717  0.25830897  0.94415770  1
  Se  Se159  1  0.41532950  0.58386665  0.44835942  1
  Se  Se160  1  0.41705771  0.58305459  0.94201506  1
  Se  Se161  1  0.42260215  0.91679458  0.44710743  1
  Se  Se162  1  0.42034955  0.91465094  0.94640157  1
  Se  Se163  1  0.74518665  0.25802322  0.45130568  1
  Se  Se164  1  0.75124778  0.25008091  0.93723027  1
  Se  Se165  1  0.74387351  0.58350613  0.45022524  1
  Se  Se166  1  0.74727145  0.59238688  0.95184777  1
  Se  Se167  1  0.75225924  0.91370126  0.45737959  1
  Se  Se168  1  0.73842675  0.92773222  0.93815832  1
  Se  Se169  1  0.26180309  0.08081424  0.44493535  1
  Se  Se170  1  0.24648419  0.08290703  0.95484704  1
  Se  Se171  1  0.25568307  0.41280990  0.44121203  1
  Se  Se172  1  0.24397493  0.42092993  0.94435106  1
  Se  Se173  1  0.25028757  0.75369092  0.44933785  1
  Se  Se174  1  0.25391692  0.74662931  0.93028371  1
  Se  Se175  1  0.59354037  0.07229017  0.43791319  1
  Se  Se176  1  0.56772071  0.10276285  0.94030112  1
  Se  Se177  1  0.58313586  0.41397293  0.45364759  1
  Se  Se178  1  0.58612742  0.41768373  0.94417993  1
  Se  Se179  1  0.57992593  0.74857354  0.45240168  1
  Se  Se180  1  0.59116709  0.74538662  0.95377703  1
  Se  Se181  1  0.92218842  0.08845256  0.44969693  1
  Se  Se182  1  0.91286719  0.08584166  0.94483564  1
  Se  Se183  1  0.91879039  0.41762248  0.44407610  1
  Se  Se184  1  0.91265478  0.41811525  0.93964563  1
  Se  Se185  1  0.91480119  0.74711095  0.45677840  1
  Se  Se186  1  0.92513701  0.74252765  0.93846894  1
  Se  Se187  1  0.24164097  0.24358886  0.31154222  1
  Se  Se188  1  0.25226192  0.23818747  0.82144908  1
  Se  Se189  1  0.23331750  0.57358204  0.30107414  1
  Se  Se190  1  0.25348634  0.58131479  0.79998096  1
  Se  Se191  1  0.26047510  0.92604729  0.30524089  1
  Se  Se192  1  0.24676227  0.91361303  0.80314128  1
  Se  Se193  1  0.57539836  0.23447447  0.30539203  1
  Se  Se194  1  0.58760748  0.25236956  0.79795328  1
  Se  Se195  1  0.58725998  0.58340294  0.30565304  1
  Se  Se196  1  0.58172388  0.58066451  0.81485233  1
  Se  Se197  1  0.58040796  0.90594754  0.31260106  1
  Se  Se198  1  0.58111465  0.91621748  0.80458274  1
  Se  Se199  1  0.91535330  0.25475976  0.30117198  1
  Se  Se200  1  0.91814128  0.25176037  0.79949535  1
  Se  Se201  1  0.90222075  0.57643184  0.31233025  1
  Se  Se202  1  0.91665962  0.58325019  0.80132405  1
  Se  Se203  1  0.91105575  0.91009887  0.31728976  1
  Se  Se204  1  0.90542402  0.90886911  0.80446566  1
  Se  Se205  1  0.09227284  0.09445171  0.30973727  1
  Se  Se206  1  0.08288321  0.08384317  0.81730362  1
  Se  Se207  1  0.07255124  0.41128306  0.29356650  1
  Se  Se208  1  0.08271329  0.41204761  0.80136775  1
  Se  Se209  1  0.08829732  0.76635659  0.31301176  1
  Se  Se210  1  0.08015255  0.74429714  0.79697457  1
  Se  Se211  1  0.41434383  0.07513584  0.29370572  1
  Se  Se212  1  0.41467338  0.07884377  0.80582307  1
  Se  Se213  1  0.42220314  0.42170716  0.30922842  1
  Se  Se214  1  0.42754188  0.42070865  0.81118666  1
  Se  Se215  1  0.42352296  0.75519222  0.31338889  1
  Se  Se216  1  0.41826049  0.74501475  0.80357695  1
  Se  Se217  1  0.76090757  0.08589249  0.30988013  1
  Se  Se218  1  0.74767606  0.08252076  0.80083250  1
  Se  Se219  1  0.75182601  0.41992221  0.31314751  1
  Se  Se220  1  0.74592660  0.41903646  0.80226788  1
  Se  Se221  1  0.74112687  0.74407023  0.31132841  1
  Se  Se222  1  0.75683803  0.75950589  0.81163430  1
  Se  Se223  1  0.25595128  0.08746383  0.19219286  1
  Se  Se224  1  0.24947841  0.07910195  0.70803721  1
  Se  Se225  1  0.24599759  0.42468436  0.18236335  1
  Se  Se226  1  0.24937568  0.41962451  0.69045605  1
  Se  Se227  1  0.24101181  0.75981868  0.19559336  1
  Se  Se228  1  0.25539029  0.74590309  0.69645139  1
  Se  Se229  1  0.57640735  0.07998839  0.18298304  1
  Se  Se230  1  0.58350764  0.08374065  0.69926886  1
  Se  Se231  1  0.58054755  0.42115512  0.19023613  1
  Se  Se232  1  0.58857072  0.41696897  0.69839675  1
  Se  Se233  1  0.57794232  0.74438661  0.19489408  1
  Se  Se234  1  0.57777197  0.75963824  0.68952422  1
  Se  Se235  1  0.90984591  0.08425896  0.18671600  1
  Se  Se236  1  0.90619810  0.08428814  0.68934532  1
  Se  Se237  1  0.90850525  0.41168402  0.19558331  1
  Se  Se238  1  0.91915465  0.41143402  0.69857811  1
  Se  Se239  1  0.91125935  0.75386934  0.19919188  1
  Se  Se240  1  0.91759561  0.74514327  0.69383247  1
  Se  Se241  1  0.07947985  0.25209487  0.19427732  1
  Se  Se242  1  0.08503596  0.24817699  0.70809074  1
  Se  Se243  1  0.07839340  0.58180913  0.18287023  1
  Se  Se244  1  0.08500561  0.57959113  0.69600152  1
  Se  Se245  1  0.09127393  0.91940654  0.19012863  1
  Se  Se246  1  0.08366704  0.90329047  0.68721310  1
  Se  Se247  1  0.42232895  0.24984315  0.18621470  1
  Se  Se248  1  0.42464547  0.24458974  0.69150170  1
  Se  Se249  1  0.42475588  0.58051511  0.18866162  1
  Se  Se250  1  0.41883513  0.58600523  0.70314278  1
  Se  Se251  1  0.42054115  0.91538984  0.19055582  1
  Se  Se252  1  0.41043687  0.91944817  0.69800026  1
  Se  Se253  1  0.74594720  0.23372684  0.18558025  1
  Se  Se254  1  0.74941294  0.25245188  0.69561395  1
  Se  Se255  1  0.74570612  0.58548203  0.19603861  1
  Se  Se256  1  0.75355201  0.58094788  0.69102249  1
  Se  Se257  1  0.76067235  0.90813592  0.19686675  1
  Se  Se258  1  0.74416151  0.91932545  0.69593995  1
