# generated using pymatgen
data_In86Cu29Se144
_symmetry_space_group_name_H-M   'P 1'
_cell_length_a   17.57557391
_cell_length_b   17.57545113
_cell_length_c   23.43286516
_cell_angle_alpha   90.00377323
_cell_angle_beta   90.00517965
_cell_angle_gamma   90.01467748
_symmetry_Int_Tables_number   1
_chemical_formula_structural   In86Cu29Se144
_chemical_formula_sum   'In86 Cu29 Se144'
_cell_volume   7238.37990216
_cell_formula_units_Z   1
loop_
 _symmetry_equiv_pos_site_id
 _symmetry_equiv_pos_as_xyz
  1  'x, y, z'
loop_
 _atom_site_type_symbol
 _atom_site_label
 _atom_site_symmetry_multiplicity
 _atom_site_fract_x
 _atom_site_fract_y
 _atom_site_fract_z
 _atom_site_occupancy
  In  In0  1  -0.00710792  0.18800479  0.12639004  1
  In  In1  1  -0.01153299  0.18513881  0.61427392  1
  In  In2  1  -0.00103013  0.49688281  0.12176582  1
  In  In3  1  -0.00528717  0.49754684  0.61539957  1
  In  In4  1  0.00036588  0.81314113  0.12259653  1
  In  In5  1  -0.00688107  0.81299220  0.62752880  1
  In  In6  1  0.34289527  0.17683494  0.13118718  1
  In  In7  1  0.34967202  0.16584366  0.61558328  1
  In  In8  1  0.32932328  0.49606599  0.12744156  1
  In  In9  1  0.33851865  0.49209594  0.61228949  1
  In  In10  1  0.32701920  0.82156084  0.11727448  1
  In  In11  1  0.32665821  0.84620310  0.62299723  1
  In  In12  1  0.67386421  0.16521662  0.13142242  1
  In  In13  1  0.66743713  0.17204223  0.62069081  1
  In  In14  1  0.66980234  0.49888729  0.12830476  1
  In  In15  1  0.67303726  0.50712608  0.62201744  1
  In  In16  1  0.66135501  0.83615260  0.12891000  1
  In  In17  1  0.67483895  0.83011342  0.63459991  1
  In  In18  1  0.14782732  -0.00728671  0.37858706  1
  In  In19  1  0.15305145  -0.00341422  0.87842597  1
  In  In20  1  0.17284894  0.34887394  0.36916997  1
  In  In21  1  0.15703596  0.34654716  0.87940106  1
  In  In22  1  0.15763604  0.66407779  0.37469579  1
  In  In23  1  0.15386367  0.66778411  0.88380596  1
  In  In24  1  0.51911507  0.00365192  0.37209443  1
  In  In25  1  0.50303544  -0.01200136  0.87743559  1
  In  In26  1  0.50749832  0.33324858  0.38101258  1
  In  In27  1  0.51779910  0.33253157  0.87432479  1
  In  In28  1  0.50070706  0.65378533  0.37336024  1
  In  In29  1  0.51553472  0.65344862  0.88373815  1
  In  In30  1  0.82932297  0.02014026  0.37873890  1
  In  In31  1  0.82576072  0.01671983  0.88024905  1
  In  In32  1  0.83312416  0.33609055  0.37662416  1
  In  In33  1  0.82372754  0.34722805  0.88869589  1
  In  In34  1  0.82164959  0.65451881  0.36345848  1
  In  In35  1  0.82933824  0.66126131  0.87368628  1
  In  In36  1  -0.03453473  0.17439208  0.39020039  1
  In  In37  1  -0.00840669  0.16084108  0.87996267  1
  In  In38  1  -0.00576065  0.49744588  0.37552825  1
  In  In39  1  -0.02529731  0.51827110  0.90532918  1
  In  In40  1  0.01073651  0.83279618  0.37504174  1
  In  In41  1  0.01298585  0.82979785  0.88017403  1
  In  In42  1  0.33363463  0.19546718  0.38126531  1
  In  In43  1  0.33626896  0.17323099  0.87075247  1
  In  In44  1  0.34923231  0.47690886  0.39703731  1
  In  In45  1  0.32981666  0.50720617  0.88239969  1
  In  In46  1  0.32024115  0.82197957  0.37228210  1
  In  In47  1  0.33193072  0.83360406  0.88014746  1
  In  In48  1  0.67028176  0.17260550  0.37549674  1
  In  In49  1  0.67285653  0.17515520  0.86545379  1
  In  In50  1  0.66993231  0.49384582  0.37823516  1
  In  In51  1  0.66703308  0.49984171  0.87524816  1
  In  In52  1  0.66561773  0.83354190  0.36282167  1
  In  In53  1  0.66345115  0.82716736  0.87646490  1
  In  In54  1  0.17213716  -0.00686685  0.12398378  1
  In  In55  1  0.17914157  -0.00051779  0.62033077  1
  In  In56  1  0.14866468  0.35659448  0.14640158  1
  In  In57  1  0.15690555  0.35264950  0.61163851  1
  In  In58  1  0.14498593  0.64240953  0.10450125  1
  In  In59  1  0.15227117  0.65019419  0.61969928  1
  In  In60  1  0.52197742  0.00195790  0.11922455  1
  In  In61  1  0.50826959  0.01431933  0.61944444  1
  In  In62  1  0.49435892  0.34409481  0.13732440  1
  In  In63  1  0.53769068  0.36702684  0.58164598  1
  In  In64  1  0.50807308  0.67275434  0.11893388  1
  In  In65  1  0.50780726  0.67081934  0.62707469  1
  In  In66  1  0.81059052  0.00660825  0.12219653  1
  In  In67  1  0.82542141  0.00045750  0.62651728  1
  In  In68  1  0.83487984  0.33263768  0.12297123  1
  In  In69  1  0.81703762  0.32032989  0.59702036  1
  In  In70  1  0.85000786  0.65026948  0.13211748  1
  In  In71  1  0.84069108  0.66307648  0.63569207  1
  In  In72  1  0.16448805  0.16509994  0.49629736  1
  In  In73  1  0.83136347  0.83248085  0.00198119  1
  In  In74  1  0.49456203  0.83309582  0.50296978  1
  In  In75  1  -0.00897915  0.00307524  0.25732360  1
  In  In76  1  0.33215214  0.65972978  0.25212786  1
  In  In77  1  -0.01201371  0.34039410  0.74521958  1
  In  In78  1  0.34532606  0.33409345  0.73853184  1
  In  In79  1  0.33941502  0.66767143  0.75081374  1
  In  In80  1  0.16770861  0.16925075  0.00309372  1
  In  In81  1  0.84127658  0.83468692  0.50441711  1
  In  In82  1  -0.00465436  -0.00687785  0.75283910  1
  In  In83  1  0.34530834  -0.00253301  0.75467772  1
  In  In84  1  0.50330862  0.16976761  0.00083068  1
  In  In85  1  0.33982268  0.00485798  0.24576488  1
  Cu  Cu86  1  0.50378382  0.17297311  0.25415098  1
  Cu  Cu87  1  0.83162608  0.49654979  0.75343223  1
  Cu  Cu88  1  0.32825284  -0.00909075  0.49328632  1
  Cu  Cu89  1  0.51765536  0.17428370  0.74055129  1
  Cu  Cu90  1  0.33272891  -0.00849202  0.00135350  1
  Cu  Cu91  1  0.16047184  0.82121075  0.74900119  1
  Cu  Cu92  1  0.50483684  0.83560033  0.24246373  1
  Cu  Cu93  1  0.34058560  0.66818872  -0.00139235  1
  Cu  Cu94  1  0.16976995  0.17555199  0.74342024  1
  Cu  Cu95  1  0.67375030  0.66132258  0.00272147  1
  Cu  Cu96  1  0.83562049  0.49213906  0.25077652  1
  Cu  Cu97  1  0.82789793  0.17434727  0.25183716  1
  Cu  Cu98  1  0.31926303  0.66487526  0.49557731  1
  Cu  Cu99  1  0.32926186  0.34086877  0.00854853  1
  Cu  Cu100  1  0.50925305  0.49783465  0.25681669  1
  Cu  Cu101  1  -0.00376067  -0.00096453  0.00146540  1
  Cu  Cu102  1  0.82877394  0.17504845  0.74596667  1
  Cu  Cu103  1  0.51413725  0.83033178  0.75363754  1
  Cu  Cu104  1  0.50927351  0.49124735  0.74686676  1
  Cu  Cu105  1  0.83125385  0.82902230  0.75551763  1
  Cu  Cu106  1  0.83259822  0.83182622  0.24361379  1
  Cu  Cu107  1  0.66492695  0.66195717  0.49889372  1
  Cu  Cu108  1  0.16533570  0.50733770  0.25175645  1
  Cu  Cu109  1  0.15392012  0.50344162  0.74788069  1
  Cu  Cu110  1  0.66561386  0.33948440  0.00168981  1
  Cu  Cu111  1  -0.00425376  0.66406788  0.49773128  1
  Cu  Cu112  1  0.16359270  0.82724323  0.24747864  1
  Cu  Cu113  1  0.67433999  0.00563448  0.49915070  1
  Cu  Cu114  1  0.16280647  0.17714568  0.25651262  1
  Se  Se115  1  0.07539335  0.07921498  0.06479571  1
  Se  Se116  1  0.07843785  0.07989449  0.56338669  1
  Se  Se117  1  0.09207658  0.41612328  0.05787668  1
  Se  Se118  1  0.06193468  0.40974175  0.54200010  1
  Se  Se119  1  0.09605480  0.76064936  0.05059813  1
  Se  Se120  1  0.07887973  0.74528780  0.55353320  1
  Se  Se121  1  0.40888190  0.07760857  0.06016377  1
  Se  Se122  1  0.41439967  0.07128229  0.54554471  1
  Se  Se123  1  0.41973742  0.41892249  0.05940299  1
  Se  Se124  1  0.40447955  0.40209377  0.54269322  1
  Se  Se125  1  0.42273501  0.75320435  0.05077255  1
  Se  Se126  1  0.40091889  0.74105663  0.56053046  1
  Se  Se127  1  0.73437788  0.08578248  0.05047898  1
  Se  Se128  1  0.75716602  0.08692798  0.55402910  1
  Se  Se129  1  0.75132046  0.41971911  0.05582255  1
  Se  Se130  1  0.73385163  0.41786791  0.54511845  1
  Se  Se131  1  0.75106434  0.73967370  0.06650849  1
  Se  Se132  1  0.74574669  0.74295054  0.55920818  1
  Se  Se133  1  0.25024939  0.25947664  0.06809776  1
  Se  Se134  1  0.25157844  0.25279446  0.56022207  1
  Se  Se135  1  0.26096896  0.58333234  0.05364302  1
  Se  Se136  1  0.24603786  0.57775753  0.55425504  1
  Se  Se137  1  0.24494992  0.91035902  0.05147283  1
  Se  Se138  1  0.24359380  0.91046646  0.54577232  1
  Se  Se139  1  0.58446324  0.26118135  0.06428612  1
  Se  Se140  1  0.57064558  0.23035754  0.54894382  1
  Se  Se141  1  0.58711739  0.57981333  0.05638896  1
  Se  Se142  1  0.57780134  0.58627083  0.55465950  1
  Se  Se143  1  0.59079536  0.91257396  0.05062691  1
  Se  Se144  1  0.59687399  0.91745641  0.55761363  1
  Se  Se145  1  0.90330123  0.24084842  0.05108562  1
  Se  Se146  1  0.92420755  0.26071922  0.53496720  1
  Se  Se147  1  0.92605307  0.58743546  0.05154507  1
  Se  Se148  1  0.90817652  0.58934581  0.55480698  1
  Se  Se149  1  0.91955655  0.92253967  0.06692887  1
  Se  Se150  1  0.92861968  0.92322506  0.56704313  1
  Se  Se151  1  0.08250022  0.25164543  0.43057713  1
  Se  Se152  1  0.07349311  0.25517465  0.94463241  1
  Se  Se153  1  0.07967322  0.58051338  0.44519712  1
  Se  Se154  1  0.10322965  0.55994302  0.94701252  1
  Se  Se155  1  0.08102696  0.90926477  0.45244139  1
  Se  Se156  1  0.08418936  0.91590733  0.95374362  1
  Se  Se157  1  0.42963880  0.24705566  0.45291241  1
  Se  Se158  1  0.40776044  0.26300968  0.94358077  1
  Se  Se159  1  0.41545739  0.59002450  0.44903123  1
  Se  Se160  1  0.42242732  0.57893238  0.94914179  1
  Se  Se161  1  0.41241773  0.91562177  0.43144723  1
  Se  Se162  1  0.41918125  0.91190678  0.94806687  1
  Se  Se163  1  0.77428036  0.22966393  0.44115434  1
  Se  Se164  1  0.74059702  0.25059500  0.94620982  1
  Se  Se165  1  0.75130478  0.58420300  0.44504676  1
  Se  Se166  1  0.75246314  0.57871712  0.94605494  1
  Se  Se167  1  0.74537546  0.91636090  0.44025401  1
  Se  Se168  1  0.74176900  0.92365773  0.94370089  1
  Se  Se169  1  0.25540030  0.07652255  0.43182015  1
  Se  Se170  1  0.25888217  0.07679269  0.93910709  1
  Se  Se171  1  0.24151556  0.41392711  0.45370310  1
  Se  Se172  1  0.24899872  0.41746665  0.94719801  1
  Se  Se173  1  0.23801558  0.75081042  0.44527115  1
  Se  Se174  1  0.25119855  0.74619966  0.94450184  1
  Se  Se175  1  0.58841228  0.08602961  0.44658459  1
  Se  Se176  1  0.58799904  0.08413613  0.93597992  1
  Se  Se177  1  0.58504746  0.41987586  0.45150053  1
  Se  Se178  1  0.58132404  0.42095636  0.94765293  1
  Se  Se179  1  0.58844449  0.74877867  0.44030515  1
  Se  Se180  1  0.58883444  0.74626307  0.95116587  1
  Se  Se181  1  0.94034130  0.05082755  0.44567855  1
  Se  Se182  1  0.91223109  0.08545922  0.95400243  1
  Se  Se183  1  0.90087805  0.43102003  0.44519048  1
  Se  Se184  1  0.92354989  0.40135814  0.95726549  1
  Se  Se185  1  0.91567369  0.74220121  0.43589346  1
  Se  Se186  1  0.92253902  0.74297251  0.94334514  1
  Se  Se187  1  0.25373795  0.25979388  0.30226832  1
  Se  Se188  1  0.24520647  0.25628220  0.80509840  1
  Se  Se189  1  0.25268030  0.57073485  0.31879250  1
  Se  Se190  1  0.24196027  0.57958705  0.80611165  1
  Se  Se191  1  0.24188289  0.91509056  0.30277415  1
  Se  Se192  1  0.23969204  0.91041523  0.80612977  1
  Se  Se193  1  0.58802970  0.25544426  0.30653218  1
  Se  Se194  1  0.59374561  0.26174762  0.79630668  1
  Se  Se195  1  0.59291895  0.58371830  0.30675881  1
  Se  Se196  1  0.58398553  0.58012579  0.80244087  1
  Se  Se197  1  0.58647744  0.92173121  0.29561178  1
  Se  Se198  1  0.59175201  0.91979324  0.80538987  1
  Se  Se199  1  0.91609198  0.25183315  0.30460562  1
  Se  Se200  1  0.90782353  0.24778629  0.81206861  1
  Se  Se201  1  0.91877106  0.58123425  0.30071858  1
  Se  Se202  1  0.91739262  0.57271830  0.81184306  1
  Se  Se203  1  0.90263237  0.90830556  0.31439406  1
  Se  Se204  1  0.90755549  0.90963373  0.81970407  1
  Se  Se205  1  0.08259538  0.09529419  0.31347262  1
  Se  Se206  1  0.08989630  0.09465137  0.80461154  1
  Se  Se207  1  0.07976923  0.42139177  0.30220039  1
  Se  Se208  1  0.07344950  0.42788489  0.80968442  1
  Se  Se209  1  0.07998424  0.74596962  0.30170296  1
  Se  Se210  1  0.07836951  0.74211494  0.80527116  1
  Se  Se211  1  0.42121248  0.09185889  0.31365345  1
  Se  Se212  1  0.43616709  0.09840317  0.80601880  1
  Se  Se213  1  0.42284555  0.41867826  0.31193376  1
  Se  Se214  1  0.42229520  0.42237676  0.81030639  1
  Se  Se215  1  0.42569457  0.75855829  0.30652540  1
  Se  Se216  1  0.42836483  0.75481210  0.81352407  1
  Se  Se217  1  0.74661690  0.08470073  0.30201491  1
  Se  Se218  1  0.75203281  0.08422216  0.79890708  1
  Se  Se219  1  0.74896448  0.41380630  0.30450167  1
  Se  Se220  1  0.74885653  0.41295809  0.80682069  1
  Se  Se221  1  0.74761491  0.74829357  0.29745729  1
  Se  Se222  1  0.74595675  0.74519313  0.80711541  1
  Se  Se223  1  0.23811348  0.09584504  0.19333134  1
  Se  Se224  1  0.25581289  0.09095772  0.69289843  1
  Se  Se225  1  0.25576688  0.42162465  0.20576671  1
  Se  Se226  1  0.24011006  0.42562820  0.69068903  1
  Se  Se227  1  0.24127847  0.74393257  0.18920030  1
  Se  Se228  1  0.24537602  0.75044392  0.68686908  1
  Se  Se229  1  0.58080884  0.08741028  0.19747473  1
  Se  Se230  1  0.59476278  0.07967520  0.69322810  1
  Se  Se231  1  0.59108861  0.41574499  0.20134525  1
  Se  Se232  1  0.58397577  0.41424730  0.68147404  1
  Se  Se233  1  0.58702796  0.74408267  0.19674477  1
  Se  Se234  1  0.59197701  0.74298660  0.69974727  1
  Se  Se235  1  0.90655069  0.08982695  0.19063291  1
  Se  Se236  1  0.91703224  0.09519298  0.69167141  1
  Se  Se237  1  0.91883524  0.41375954  0.19302169  1
  Se  Se238  1  0.89495869  0.41886057  0.68090040  1
  Se  Se239  1  0.92126155  0.74590492  0.20040160  1
  Se  Se240  1  0.91896930  0.74594014  0.70758726  1
  Se  Se241  1  0.07397537  0.25466244  0.20409075  1
  Se  Se242  1  0.08757421  0.25343756  0.68556804  1
  Se  Se243  1  0.08176542  0.58349955  0.19298547  1
  Se  Se244  1  0.06699483  0.57991980  0.69300461  1
  Se  Se245  1  0.08185264  0.91395871  0.19321985  1
  Se  Se246  1  0.09033313  0.91164893  0.68937089  1
  Se  Se247  1  0.41521840  0.25569442  0.20580178  1
  Se  Se248  1  0.43801469  0.25127204  0.67879740  1
  Se  Se249  1  0.42990904  0.57788281  0.19308962  1
  Se  Se250  1  0.42259641  0.57057994  0.68972729  1
  Se  Se251  1  0.42031269  0.91051965  0.18274117  1
  Se  Se252  1  0.43325470  0.90830231  0.68982861  1
  Se  Se253  1  0.74756489  0.25822473  0.19657686  1
  Se  Se254  1  0.75353521  0.25724472  0.68607407  1
  Se  Se255  1  0.75448726  0.57997475  0.19809562  1
  Se  Se256  1  0.74949827  0.58273292  0.69924321  1
  Se  Se257  1  0.74754791  0.91844207  0.19693467  1
  Se  Se258  1  0.75516262  0.91729713  0.70106946  1
