# generated using pymatgen
data_In86Cu29Se144
_symmetry_space_group_name_H-M   'P 1'
_cell_length_a   17.57254628
_cell_length_b   17.57210147
_cell_length_c   23.42601944
_cell_angle_alpha   90.00873515
_cell_angle_beta   90.00693783
_cell_angle_gamma   90.00050883
_symmetry_Int_Tables_number   1
_chemical_formula_structural   In86Cu29Se144
_chemical_formula_sum   'In86 Cu29 Se144'
_cell_volume   7233.63997139
_cell_formula_units_Z   1
loop_
 _symmetry_equiv_pos_site_id
 _symmetry_equiv_pos_as_xyz
  1  'x, y, z'
loop_
 _atom_site_type_symbol
 _atom_site_label
 _atom_site_symmetry_multiplicity
 _atom_site_fract_x
 _atom_site_fract_y
 _atom_site_fract_z
 _atom_site_occupancy
  In  In0  1  -0.00804015  0.17298375  0.13629656  1
  In  In1  1  0.00386234  0.17296286  0.62645503  1
  In  In2  1  -0.00485674  0.48399096  0.12463071  1
  In  In3  1  -0.00609095  0.50744110  0.62727710  1
  In  In4  1  0.01408050  0.83681918  0.12501128  1
  In  In5  1  -0.01178277  0.81151551  0.60585742  1
  In  In6  1  0.33988952  0.14190370  0.11541029  1
  In  In7  1  0.34207235  0.15366331  0.63445305  1
  In  In8  1  0.33888840  0.51305812  0.11620283  1
  In  In9  1  0.32730357  0.49635042  0.63382215  1
  In  In10  1  0.32992745  0.83810414  0.11740876  1
  In  In11  1  0.33995563  0.84178918  0.62594856  1
  In  In12  1  0.66528337  0.16257881  0.11086488  1
  In  In13  1  0.65668068  0.17456975  0.63337095  1
  In  In14  1  0.64808070  0.48893417  0.11933166  1
  In  In15  1  0.67791828  0.48618234  0.64021127  1
  In  In16  1  0.65956404  0.85916277  0.11469492  1
  In  In17  1  0.67466014  0.82664785  0.64309736  1
  In  In18  1  0.16306772  -0.00531747  0.36672459  1
  In  In19  1  0.16968438  -0.01359814  0.88129231  1
  In  In20  1  0.15614457  0.34479123  0.37075779  1
  In  In21  1  0.17742233  0.33985038  0.87108142  1
  In  In22  1  0.17872327  0.66361395  0.37309000  1
  In  In23  1  0.16251149  0.67105533  0.87559207  1
  In  In24  1  0.50714420  0.01026454  0.37249828  1
  In  In25  1  0.49741083  -0.00305108  0.87772008  1
  In  In26  1  0.50010508  0.31577155  0.37658929  1
  In  In27  1  0.49962610  0.33508083  0.87329516  1
  In  In28  1  0.49722170  0.68067347  0.37020569  1
  In  In29  1  0.50439695  0.65869805  0.87623592  1
  In  In30  1  0.82934585  -0.00722640  0.37819899  1
  In  In31  1  0.82972150  0.01679966  0.88259774  1
  In  In32  1  0.84178629  0.34380190  0.36932569  1
  In  In33  1  0.82016277  0.32309289  0.86829692  1
  In  In34  1  0.84267275  0.66318491  0.39302777  1
  In  In35  1  0.82482097  0.65872664  0.86428792  1
  In  In36  1  0.00255815  0.17594189  0.36416396  1
  In  In37  1  -0.01637666  0.16559883  0.87782869  1
  In  In38  1  -0.00603595  0.49005566  0.37674992  1
  In  In39  1  0.00403155  0.50431475  0.86894488  1
  In  In40  1  -0.00315630  0.83671638  0.38411191  1
  In  In41  1  0.00985755  0.83069028  0.87364886  1
  In  In42  1  0.35069061  0.16342508  0.37446001  1
  In  In43  1  0.34015769  0.16992452  0.87477278  1
  In  In44  1  0.32071955  0.50534820  0.37110167  1
  In  In45  1  0.34657318  0.48475500  0.88368556  1
  In  In46  1  0.33042936  0.83073459  0.36522832  1
  In  In47  1  0.32802231  0.84439393  0.88117884  1
  In  In48  1  0.65491337  0.16383995  0.37479685  1
  In  In49  1  0.65780389  0.16344443  0.87854997  1
  In  In50  1  0.67897937  0.50336625  0.37880527  1
  In  In51  1  0.64203217  0.48426610  0.85095521  1
  In  In52  1  0.67308644  0.84443354  0.37872610  1
  In  In53  1  0.65362453  0.82597374  0.86289677  1
  In  In54  1  0.17631309  -0.00913953  0.13091663  1
  In  In55  1  0.18265347  -0.01001225  0.62751399  1
  In  In56  1  0.15291411  0.33240723  0.12171148  1
  In  In57  1  0.16323133  0.33681836  0.63440741  1
  In  In58  1  0.17704454  0.68306880  0.11281746  1
  In  In59  1  0.15246268  0.66285667  0.62177100  1
  In  In60  1  0.48517610  -0.01832267  0.09513150  1
  In  In61  1  0.49162877  0.00141848  0.63893837  1
  In  In62  1  0.50306897  0.33722588  0.12015839  1
  In  In63  1  0.51257755  0.32503144  0.63956096  1
  In  In64  1  0.48926362  0.66185516  0.11651942  1
  In  In65  1  0.51590718  0.67433034  0.64025979  1
  In  In66  1  0.82679206  0.03315243  0.13032456  1
  In  In67  1  0.83636095  -0.01075272  0.62616270  1
  In  In68  1  0.83512497  0.31299588  0.13662214  1
  In  In69  1  0.83127792  0.33705225  0.62780843  1
  In  In70  1  0.83496686  0.66821968  0.12693668  1
  In  In71  1  0.83895630  0.66522352  0.62615538  1
  In  In72  1  0.66611124  0.00816330  0.24558909  1
  In  In73  1  0.50661732  0.83557600  0.50724098  1
  In  In74  1  0.82984614  0.49812832  -0.00363219  1
  In  In75  1  0.16472123  0.16610735  0.49108750  1
  In  In76  1  0.83293354  0.83661728  0.00027195  1
  In  In77  1  0.32958349  0.33306213  0.25004539  1
  In  In78  1  0.50019681  0.49680989  0.51242425  1
  In  In79  1  0.15872553  0.50265013  0.49724731  1
  In  In80  1  0.66423613  0.66796180  0.24694240  1
  In  In81  1  0.33456803  0.66469781  0.75476015  1
  In  In82  1  0.00711947  0.66056718  0.25635071  1
  In  In83  1  0.16807306  0.16511011  0.00208254  1
  In  In84  1  0.00555615  -0.00061226  0.74965197  1
  In  In85  1  0.83257795  0.16883962  0.49539144  1
  Cu  Cu86  1  0.16554436  0.50629028  0.24639337  1
  Cu  Cu87  1  0.00598863  0.66639419  -0.00526905  1
  Cu  Cu88  1  0.33648949  0.66872808  0.49541593  1
  Cu  Cu89  1  0.32940922  0.66952043  -0.00732010  1
  Cu  Cu90  1  0.34294574  -0.00184611  0.50545209  1
  Cu  Cu91  1  0.66758567  0.33498647  -0.00846134  1
  Cu  Cu92  1  0.50033877  0.16081879  0.24433309  1
  Cu  Cu93  1  0.83669084  0.83512056  0.74846055  1
  Cu  Cu94  1  0.67662218  0.66745224  0.50970215  1
  Cu  Cu95  1  0.84045033  0.50411643  0.74750543  1
  Cu  Cu96  1  0.66314283  0.66476952  -0.00443645  1
  Cu  Cu97  1  0.00875491  -0.00314391  0.49817499  1
  Cu  Cu98  1  -0.00274841  0.33242342  0.00176298  1
  Cu  Cu99  1  0.16834909  0.16685681  0.24348592  1
  Cu  Cu100  1  0.82472718  0.48816834  0.24963735  1
  Cu  Cu101  1  0.16507032  0.82991787  0.75139269  1
  Cu  Cu102  1  0.17489657  0.83909983  0.24571303  1
  Cu  Cu103  1  0.83577476  0.83531563  0.25750093  1
  Cu  Cu104  1  -0.00197193  0.00317569  0.00383294  1
  Cu  Cu105  1  0.49773169  0.49713459  0.24357150  1
  Cu  Cu106  1  0.16675739  0.49361011  0.75284557  1
  Cu  Cu107  1  0.82600093  0.17333505  0.75317383  1
  Cu  Cu108  1  0.33459851  0.33981602  -0.00065051  1
  Cu  Cu109  1  0.50031042  0.16447096  0.75830304  1
  Cu  Cu110  1  0.16950000  0.16705367  0.75194374  1
  Cu  Cu111  1  0.66581309  0.33540923  0.50902953  1
  Cu  Cu112  1  0.66726384  0.00218429  0.50258487  1
  Cu  Cu113  1  0.33130854  0.31986342  0.50467933  1
  Cu  Cu114  1  0.49206540  0.83474296  0.23896554  1
  Se  Se115  1  0.07808693  0.08148694  0.06650405  1
  Se  Se116  1  0.08421658  0.07580929  0.56156618  1
  Se  Se117  1  0.08225195  0.41956482  0.04889449  1
  Se  Se118  1  0.07723964  0.41005396  0.55956248  1
  Se  Se119  1  0.08176625  0.75655482  0.04747220  1
  Se  Se120  1  0.10121712  0.75766019  0.54853430  1
  Se  Se121  1  0.44059691  0.10273484  0.04027090  1
  Se  Se122  1  0.42395371  0.08141755  0.55894643  1
  Se  Se123  1  0.41987895  0.42214847  0.05303219  1
  Se  Se124  1  0.40734149  0.40295313  0.56550890  1
  Se  Se125  1  0.41229888  0.75043964  0.04995864  1
  Se  Se126  1  0.41793001  0.73715221  0.56196383  1
  Se  Se127  1  0.73074741  0.05627419  0.05132013  1
  Se  Se128  1  0.74737403  0.08369823  0.56302464  1
  Se  Se129  1  0.74825397  0.40591367  0.06016109  1
  Se  Se130  1  0.75071818  0.42041424  0.55712754  1
  Se  Se131  1  0.74021515  0.74279844  0.06004700  1
  Se  Se132  1  0.75116161  0.75664581  0.56402361  1
  Se  Se133  1  0.26036430  0.25606405  0.06270050  1
  Se  Se134  1  0.24828300  0.24508141  0.56478537  1
  Se  Se135  1  0.24664126  0.58507625  0.04790804  1
  Se  Se136  1  0.25987818  0.58560156  0.55624830  1
  Se  Se137  1  0.24668990  0.92269946  0.05058387  1
  Se  Se138  1  0.25601055  0.91162251  0.55068860  1
  Se  Se139  1  0.58401222  0.25626644  0.04952213  1
  Se  Se140  1  0.57981283  0.25093516  0.55722353  1
  Se  Se141  1  0.58040247  0.58228078  0.05138348  1
  Se  Se142  1  0.59370801  0.58863724  0.56727340  1
  Se  Se143  1  0.57533799  0.90145788  0.03200182  1
  Se  Se144  1  0.59310065  0.92364259  0.56876074  1
  Se  Se145  1  0.91819552  0.24877788  0.05783265  1
  Se  Se146  1  0.92285150  0.25680591  0.55601668  1
  Se  Se147  1  0.92365515  0.59045677  0.05641484  1
  Se  Se148  1  0.93083443  0.59794064  0.55516551  1
  Se  Se149  1  0.91714883  0.92416180  0.06627249  1
  Se  Se150  1  0.91863600  0.92053172  0.55097449  1
  Se  Se151  1  0.07163826  0.26423965  0.44310919  1
  Se  Se152  1  0.07873046  0.25385797  0.93996388  1
  Se  Se153  1  0.07333672  0.59478663  0.43592791  1
  Se  Se154  1  0.08531847  0.57925938  0.94303621  1
  Se  Se155  1  0.09398948  0.91633435  0.44476301  1
  Se  Se156  1  0.07564421  0.91693719  0.94940676  1
  Se  Se157  1  0.42027311  0.24280458  0.45222803  1
  Se  Se158  1  0.41545116  0.25658476  0.94512601  1
  Se  Se159  1  0.41749316  0.58488919  0.43958847  1
  Se  Se160  1  0.41786271  0.58334304  0.94717824  1
  Se  Se161  1  0.41935066  0.91889648  0.43923193  1
  Se  Se162  1  0.41777851  0.91650624  0.95015122  1
  Se  Se163  1  0.73867883  0.25874797  0.44007203  1
  Se  Se164  1  0.75012520  0.24457276  0.94538535  1
  Se  Se165  1  0.75273438  0.57957631  0.45501303  1
  Se  Se166  1  0.73711427  0.58102889  0.93516025  1
  Se  Se167  1  0.75223893  0.91645563  0.45421229  1
  Se  Se168  1  0.74409468  0.91507192  0.93448842  1
  Se  Se169  1  0.26217923  0.07372317  0.44032952  1
  Se  Se170  1  0.25864921  0.07642944  0.94389244  1
  Se  Se171  1  0.25782372  0.40563845  0.44421239  1
  Se  Se172  1  0.24493885  0.41954125  0.94968812  1
  Se  Se173  1  0.25628882  0.75163850  0.44130108  1
  Se  Se174  1  0.24348644  0.75465556  0.94398434  1
  Se  Se175  1  0.58179624  0.08363439  0.45064944  1
  Se  Se176  1  0.55901028  0.09944460  0.94703626  1
  Se  Se177  1  0.58462419  0.41218490  0.44322169  1
  Se  Se178  1  0.58463099  0.42167196  0.94127944  1
  Se  Se179  1  0.59576607  0.74169098  0.44486434  1
  Se  Se180  1  0.58285738  0.75041835  0.94276821  1
  Se  Se181  1  0.92996876  0.07946806  0.43919050  1
  Se  Se182  1  0.91310914  0.08953353  0.95666768  1
  Se  Se183  1  0.90735700  0.42150575  0.44801486  1
  Se  Se184  1  0.91885219  0.40823980  0.93652985  1
  Se  Se185  1  0.91223301  0.76091808  0.45361578  1
  Se  Se186  1  0.91587831  0.74035800  0.93788286  1
  Se  Se187  1  0.24260577  0.24233515  0.31370738  1
  Se  Se188  1  0.25413252  0.24926250  0.80529751  1
  Se  Se189  1  0.25359805  0.58832415  0.29519677  1
  Se  Se190  1  0.24716270  0.57229467  0.81474694  1
  Se  Se191  1  0.25801113  0.92437265  0.29877875  1
  Se  Se192  1  0.24632047  0.91575567  0.80303905  1
  Se  Se193  1  0.58001267  0.24516865  0.29990223  1
  Se  Se194  1  0.58595158  0.25153936  0.80597757  1
  Se  Se195  1  0.57512063  0.57661611  0.30915142  1
  Se  Se196  1  0.59249726  0.60184256  0.79807292  1
  Se  Se197  1  0.57718491  0.90668706  0.30346137  1
  Se  Se198  1  0.59483866  0.93745791  0.80671989  1
  Se  Se199  1  0.90929151  0.25037919  0.30166163  1
  Se  Se200  1  0.91814592  0.25149756  0.80265183  1
  Se  Se201  1  0.90106933  0.57750752  0.30726443  1
  Se  Se202  1  0.92316360  0.58871936  0.80037257  1
  Se  Se203  1  0.91932661  0.91726830  0.31037142  1
  Se  Se204  1  0.91148086  0.91632702  0.81344404  1
  Se  Se205  1  0.08613748  0.08664503  0.30189042  1
  Se  Se206  1  0.08999076  0.08896532  0.81560222  1
  Se  Se207  1  0.07911877  0.42555053  0.29887015  1
  Se  Se208  1  0.08089354  0.41030573  0.80453976  1
  Se  Se209  1  0.09443324  0.76025973  0.30887024  1
  Se  Se210  1  0.07997053  0.74503704  0.80024351  1
  Se  Se211  1  0.41829118  0.07793920  0.29933813  1
  Se  Se212  1  0.41299208  0.07921605  0.80608978  1
  Se  Se213  1  0.42232446  0.42101318  0.31219167  1
  Se  Se214  1  0.41855816  0.41834599  0.80332223  1
  Se  Se215  1  0.41466806  0.74913707  0.29555190  1
  Se  Se216  1  0.41712589  0.75632585  0.81602130  1
  Se  Se217  1  0.75697709  0.09068052  0.31048803  1
  Se  Se218  1  0.74798471  0.08728248  0.80777114  1
  Se  Se219  1  0.73854464  0.41172411  0.30519930  1
  Se  Se220  1  0.75585281  0.42002160  0.79958418  1
  Se  Se221  1  0.75631446  0.75027763  0.31327001  1
  Se  Se222  1  0.75007257  0.75105008  0.79869610  1
  Se  Se223  1  0.25571795  0.08430585  0.19513199  1
  Se  Se224  1  0.24921493  0.07806115  0.70070965  1
  Se  Se225  1  0.24498923  0.42329710  0.18612839  1
  Se  Se226  1  0.25368525  0.40980497  0.70362959  1
  Se  Se227  1  0.25357845  0.75275936  0.19130157  1
  Se  Se228  1  0.24523156  0.75013789  0.68909574  1
  Se  Se229  1  0.56916731  0.07735347  0.17902357  1
  Se  Se230  1  0.58378770  0.08344326  0.70126909  1
  Se  Se231  1  0.58235780  0.40949558  0.19833179  1
  Se  Se232  1  0.57648916  0.42451500  0.70404228  1
  Se  Se233  1  0.58175105  0.76003128  0.18233421  1
  Se  Se234  1  0.56503466  0.77756265  0.70698024  1
  Se  Se235  1  0.92558743  0.07473260  0.20248264  1
  Se  Se236  1  0.90912088  0.09247837  0.69357866  1
  Se  Se237  1  0.91420063  0.41025235  0.19768862  1
  Se  Se238  1  0.92034314  0.41564641  0.69515298  1
  Se  Se239  1  0.91557594  0.75487582  0.19643190  1
  Se  Se240  1  0.92138076  0.75403564  0.69434162  1
  Se  Se241  1  0.08311831  0.25642220  0.19994525  1
  Se  Se242  1  0.08226031  0.24818365  0.70067858  1
  Se  Se243  1  0.08710112  0.58287694  0.18102990  1
  Se  Se244  1  0.08700579  0.57902320  0.69792289  1
  Se  Se245  1  0.08240559  0.92016193  0.20008548  1
  Se  Se246  1  0.08398159  0.90502128  0.68629157  1
  Se  Se247  1  0.41620303  0.24367862  0.18726931  1
  Se  Se248  1  0.41710992  0.24576604  0.70082165  1
  Se  Se249  1  0.41616804  0.58488114  0.19479188  1
  Se  Se250  1  0.42630199  0.57554666  0.69472436  1
  Se  Se251  1  0.41791544  0.92324703  0.18369789  1
  Se  Se252  1  0.41504973  0.90955440  0.70361134  1
  Se  Se253  1  0.73645485  0.23479298  0.19117194  1
  Se  Se254  1  0.74616718  0.25721959  0.69685309  1
  Se  Se255  1  0.75158180  0.57138381  0.18717680  1
  Se  Se256  1  0.75344068  0.58850719  0.69734970  1
  Se  Se257  1  0.75857983  0.91089629  0.19096561  1
  Se  Se258  1  0.75305565  0.92558191  0.70309368  1
