# generated using pymatgen
data_In86Cu29Se144
_symmetry_space_group_name_H-M   'P 1'
_cell_length_a   17.58619979
_cell_length_b   17.57977211
_cell_length_c   23.45036941
_cell_angle_alpha   89.99418326
_cell_angle_beta   90.01245739
_cell_angle_gamma   89.97274464
_symmetry_Int_Tables_number   1
_chemical_formula_structural   In86Cu29Se144
_chemical_formula_sum   'In86 Cu29 Se144'
_cell_volume   7249.94764761
_cell_formula_units_Z   1
loop_
 _symmetry_equiv_pos_site_id
 _symmetry_equiv_pos_as_xyz
  1  'x, y, z'
loop_
 _atom_site_type_symbol
 _atom_site_label
 _atom_site_symmetry_multiplicity
 _atom_site_fract_x
 _atom_site_fract_y
 _atom_site_fract_z
 _atom_site_occupancy
  In  In0  1  -0.00019830  0.17000474  0.11721951  1
  In  In1  1  0.01089820  0.17494842  0.62200497  1
  In  In2  1  0.00412777  0.49788037  0.14030296  1
  In  In3  1  -0.01395682  0.49269131  0.61535592  1
  In  In4  1  -0.00152165  0.82994853  0.12375208  1
  In  In5  1  -0.00750004  0.83232363  0.61852024  1
  In  In6  1  0.32915426  0.17621256  0.11673295  1
  In  In7  1  0.33680363  0.16201483  0.62272841  1
  In  In8  1  0.33453451  0.49401513  0.13819023  1
  In  In9  1  0.33772416  0.49300550  0.61553864  1
  In  In10  1  0.32516413  0.82938738  0.12619219  1
  In  In11  1  0.34196051  0.85598631  0.62366649  1
  In  In12  1  0.67223639  0.16341832  0.12738738  1
  In  In13  1  0.65859046  0.15523493  0.61958997  1
  In  In14  1  0.66560702  0.49879031  0.13565872  1
  In  In15  1  0.66720863  0.50060714  0.60759201  1
  In  In16  1  0.67281760  0.83035177  0.13349229  1
  In  In17  1  0.66626922  0.83870954  0.62465716  1
  In  In18  1  0.16512684  0.00078828  0.38384587  1
  In  In19  1  0.16705631  -0.00121789  0.88068540  1
  In  In20  1  0.15857500  0.32347294  0.36762118  1
  In  In21  1  0.16191895  0.33708826  0.87381841  1
  In  In22  1  0.17652284  0.67361533  0.37011567  1
  In  In23  1  0.17225739  0.68199164  0.87502729  1
  In  In24  1  0.51541919  0.00141351  0.37132239  1
  In  In25  1  0.50947225  0.01863636  0.84143503  1
  In  In26  1  0.50310638  0.33179163  0.37438534  1
  In  In27  1  0.48980899  0.30494490  0.87357892  1
  In  In28  1  0.49110149  0.65574996  0.36946480  1
  In  In29  1  0.49917511  0.67060133  0.87991562  1
  In  In30  1  0.82738120  0.00908598  0.38176852  1
  In  In31  1  0.82405015  0.02569983  0.90413529  1
  In  In32  1  0.83397414  0.33256545  0.37439613  1
  In  In33  1  0.82910898  0.31196258  0.87889476  1
  In  In34  1  0.83238401  0.66836020  0.37091188  1
  In  In35  1  0.84576211  0.67863181  0.87487685  1
  In  In36  1  -0.00362416  0.17187337  0.38036149  1
  In  In37  1  -0.00455780  0.17314470  0.87639500  1
  In  In38  1  -0.01243443  0.49021409  0.36716791  1
  In  In39  1  0.00605536  0.49591437  0.87310633  1
  In  In40  1  0.00838974  0.82741027  0.37925135  1
  In  In41  1  -0.01807891  0.86445477  0.90372039  1
  In  In42  1  0.32793138  0.17364355  0.37803485  1
  In  In43  1  0.34586858  0.15274047  0.88673579  1
  In  In44  1  0.34747839  0.50737677  0.37337977  1
  In  In45  1  0.32920715  0.48929390  0.87494182  1
  In  In46  1  0.32825983  0.81951816  0.38052708  1
  In  In47  1  0.32253373  0.83765318  0.87760846  1
  In  In48  1  0.66602696  0.16867072  0.37332207  1
  In  In49  1  0.66533072  0.15524904  0.87932729  1
  In  In50  1  0.66679484  0.49798149  0.37433771  1
  In  In51  1  0.66118456  0.50430482  0.87801415  1
  In  In52  1  0.67930863  0.84424866  0.36738350  1
  In  In53  1  0.65894302  0.88945027  0.88701458  1
  In  In54  1  0.15952801  0.00039376  0.10542536  1
  In  In55  1  0.17749125  0.01489890  0.62019738  1
  In  In56  1  0.16676145  0.32546242  0.13457232  1
  In  In57  1  0.16906101  0.30853211  0.62498894  1
  In  In58  1  0.16268437  0.67002626  0.13849176  1
  In  In59  1  0.16143094  0.66931984  0.61841047  1
  In  In60  1  0.50712302  0.01407799  0.12243803  1
  In  In61  1  0.48510020  0.01211164  0.64571713  1
  In  In62  1  0.49907052  0.32456363  0.13376080  1
  In  In63  1  0.49862729  0.33166361  0.61180019  1
  In  In64  1  0.50524200  0.66120738  0.13787001  1
  In  In65  1  0.50541815  0.66866200  0.61371505  1
  In  In66  1  0.82638788  -0.00947188  0.11129549  1
  In  In67  1  0.82336600  -0.00707355  0.61977726  1
  In  In68  1  0.83657501  0.32487021  0.13303434  1
  In  In69  1  0.83715950  0.33245899  0.61662817  1
  In  In70  1  0.82992179  0.67444734  0.13750112  1
  In  In71  1  0.82958249  0.66800120  0.61077916  1
  In  In72  1  0.50482418  0.48899562  0.01478811  1
  In  In73  1  0.67436806  0.33316121  0.75104413  1
  In  In74  1  0.16623335  0.49636395  -0.00313118  1
  In  In75  1  -0.00166578  0.00115942  0.75330739  1
  In  In76  1  0.50041155  0.83494501  0.49826947  1
  In  In77  1  0.00395304  0.67439066  0.74350457  1
  In  In78  1  0.17056760  0.50241024  0.48998019  1
  In  In79  1  0.67213827  0.67807047  0.73873153  1
  In  In80  1  0.50134495  0.83984772  0.00217693  1
  In  In81  1  0.83021306  0.50121538  0.01756339  1
  In  In82  1  0.33372055  0.32396878  0.74813270  1
  In  In83  1  0.32945973  0.67367414  0.74885614  1
  In  In84  1  0.33543007  0.00173990  0.23795935  1
  In  In85  1  -0.00363556  0.00110260  0.23891760  1
  Cu  Cu86  1  -0.00842271  0.33639767  -0.00009473  1
  Cu  Cu87  1  0.33514453  0.00140692  -0.00075252  1
  Cu  Cu88  1  0.50040750  0.49572138  0.25360557  1
  Cu  Cu89  1  0.15949257  0.16597938  0.24623869  1
  Cu  Cu90  1  0.84114479  0.49139114  0.74205330  1
  Cu  Cu91  1  0.34137493  0.33268378  0.49672810  1
  Cu  Cu92  1  0.33574369  0.00604388  0.50224974  1
  Cu  Cu93  1  0.67973974  0.67989855  0.00350101  1
  Cu  Cu94  1  -0.00342627  -0.00266506  0.50104430  1
  Cu  Cu95  1  0.49954149  0.16926436  0.24852486  1
  Cu  Cu96  1  0.16837138  0.49750004  0.25765285  1
  Cu  Cu97  1  0.00559564  0.32924081  0.49568926  1
  Cu  Cu98  1  0.84115612  0.83856866  0.24890765  1
  Cu  Cu99  1  0.83471432  0.16003639  0.75340142  1
  Cu  Cu100  1  0.16015042  0.49089248  0.74896580  1
  Cu  Cu101  1  0.82876123  0.50089274  0.25365389  1
  Cu  Cu102  1  0.17362268  0.83370141  0.25380922  1
  Cu  Cu103  1  0.82303878  0.84039602  0.75502455  1
  Cu  Cu104  1  0.16366166  0.84130336  0.75263042  1
  Cu  Cu105  1  0.66469521  0.66695857  0.49146541  1
  Cu  Cu106  1  0.50439079  0.83018425  0.25542324  1
  Cu  Cu107  1  0.66319060  0.00531668  0.49940421  1
  Cu  Cu108  1  0.82800944  0.16666329  0.25435910  1
  Cu  Cu109  1  -0.00577300  0.66716429  0.49406639  1
  Cu  Cu110  1  0.50449860  0.49956558  0.74380633  1
  Cu  Cu111  1  0.33354917  0.65716743  0.00474684  1
  Cu  Cu112  1  0.67155198  0.33071403  0.49313163  1
  Cu  Cu113  1  0.65423931  0.31819375  0.00271019  1
  Cu  Cu114  1  0.00572105  0.67670004  0.00821470  1
  Se  Se115  1  0.06656821  0.07904143  0.04497238  1
  Se  Se116  1  0.08108979  0.08204216  0.55273172  1
  Se  Se117  1  0.07281012  0.41488371  0.06005023  1
  Se  Se118  1  0.08798495  0.40996732  0.55654048  1
  Se  Se119  1  0.09569890  0.75172467  0.06094816  1
  Se  Se120  1  0.07510362  0.74755637  0.55167144  1
  Se  Se121  1  0.41347425  0.08388426  0.05632996  1
  Se  Se122  1  0.42513882  0.07949471  0.55727970  1
  Se  Se123  1  0.40310641  0.40346231  0.06340890  1
  Se  Se124  1  0.42364384  0.42222875  0.54421876  1
  Se  Se125  1  0.41804589  0.73791451  0.06190668  1
  Se  Se126  1  0.40387245  0.74896888  0.55650227  1
  Se  Se127  1  0.75071716  0.08841098  0.05169409  1
  Se  Se128  1  0.75260335  0.08609054  0.55060830  1
  Se  Se129  1  0.73294264  0.40347294  0.06151423  1
  Se  Se130  1  0.75526221  0.41503730  0.54714335  1
  Se  Se131  1  0.76094887  0.75773838  0.06086238  1
  Se  Se132  1  0.73801414  0.75224360  0.55159393  1
  Se  Se133  1  0.22473736  0.24129036  0.05596009  1
  Se  Se134  1  0.26007019  0.24858329  0.55124232  1
  Se  Se135  1  0.25208107  0.58121130  0.06484793  1
  Se  Se136  1  0.25709503  0.59165423  0.55428068  1
  Se  Se137  1  0.25659058  0.91363947  0.05214893  1
  Se  Se138  1  0.25045896  0.92114767  0.55241152  1
  Se  Se139  1  0.57483830  0.24013975  0.06200990  1
  Se  Se140  1  0.58923523  0.24960749  0.55056921  1
  Se  Se141  1  0.59715793  0.59464795  0.05895251  1
  Se  Se142  1  0.57953550  0.58347932  0.54342334  1
  Se  Se143  1  0.59681479  0.92381382  0.06087463  1
  Se  Se144  1  0.57908153  0.93002414  0.56104888  1
  Se  Se145  1  0.90797459  0.25272893  0.05253083  1
  Se  Se146  1  0.92156831  0.24708107  0.55122415  1
  Se  Se147  1  0.92932993  0.59258233  0.06770572  1
  Se  Se148  1  0.91234082  0.58105248  0.54641139  1
  Se  Se149  1  0.93782335  0.92847620  0.05681861  1
  Se  Se150  1  0.90926026  0.91318572  0.55060390  1
  Se  Se151  1  0.09167962  0.24461985  0.44712730  1
  Se  Se152  1  0.07723791  0.26009437  0.94387900  1
  Se  Se153  1  0.07354461  0.58700757  0.43283886  1
  Se  Se154  1  0.07629601  0.59692968  0.94115620  1
  Se  Se155  1  0.08328260  0.91511991  0.44939158  1
  Se  Se156  1  0.11250765  0.89067133  0.94506408  1
  Se  Se157  1  0.42216686  0.24611848  0.44422031  1
  Se  Se158  1  0.41523680  0.24675768  0.95469138  1
  Se  Se159  1  0.41057512  0.59397627  0.44873906  1
  Se  Se160  1  0.41398527  0.57763003  0.94563232  1
  Se  Se161  1  0.41102099  0.92713579  0.43585377  1
  Se  Se162  1  0.41509427  0.92464682  0.93761253  1
  Se  Se163  1  0.75464397  0.24530366  0.44285544  1
  Se  Se164  1  0.74394421  0.24059976  0.95037699  1
  Se  Se165  1  0.75078012  0.58457258  0.44078277  1
  Se  Se166  1  0.75062281  0.58952378  0.94425921  1
  Se  Se167  1  0.74650391  0.91954928  0.44828412  1
  Se  Se168  1  0.77246863  0.90377020  0.95194840  1
  Se  Se169  1  0.25066888  0.08638344  0.44708989  1
  Se  Se170  1  0.24585626  0.08413427  0.95037702  1
  Se  Se171  1  0.25722874  0.40648232  0.43362748  1
  Se  Se172  1  0.26171882  0.40049454  0.94818050  1
  Se  Se173  1  0.23465054  0.75685979  0.44986145  1
  Se  Se174  1  0.25746959  0.74522971  0.95077817  1
  Se  Se175  1  0.58113353  0.08804693  0.44512588  1
  Se  Se176  1  0.57781525  0.06051101  0.93351311  1
  Se  Se177  1  0.58472675  0.41550055  0.44422100  1
  Se  Se178  1  0.58376261  0.40434631  0.93938007  1
  Se  Se179  1  0.58721988  0.75121026  0.43159527  1
  Se  Se180  1  0.59631989  0.75234613  0.93980460  1
  Se  Se181  1  0.91761369  0.08500802  0.44822950  1
  Se  Se182  1  0.94840919  0.07147585  0.95001633  1
  Se  Se183  1  0.91908981  0.41281732  0.44596166  1
  Se  Se184  1  0.91069691  0.41932697  0.94146181  1
  Se  Se185  1  0.91127258  0.75305712  0.44254408  1
  Se  Se186  1  0.91504227  0.75124322  0.95482759  1
  Se  Se187  1  0.24727694  0.24313196  0.30050546  1
  Se  Se188  1  0.25002644  0.24407579  0.81564234  1
  Se  Se189  1  0.25464723  0.58194912  0.30603929  1
  Se  Se190  1  0.23975766  0.57405893  0.80700662  1
  Se  Se191  1  0.25119214  0.91952473  0.30957655  1
  Se  Se192  1  0.24876978  0.92192229  0.80505067  1
  Se  Se193  1  0.58388148  0.25028763  0.30259343  1
  Se  Se194  1  0.58355062  0.23707095  0.80284705  1
  Se  Se195  1  0.58438307  0.58200660  0.30394174  1
  Se  Se196  1  0.57930324  0.58535391  0.80291780  1
  Se  Se197  1  0.58913077  0.91984883  0.29819008  1
  Se  Se198  1  0.57849308  0.90291105  0.79828333  1
  Se  Se199  1  0.91706500  0.24677341  0.30535271  1
  Se  Se200  1  0.91426371  0.25096588  0.80224890  1
  Se  Se201  1  0.91617668  0.58574620  0.30129323  1
  Se  Se202  1  0.91323700  0.57837464  0.80339432  1
  Se  Se203  1  0.91757373  0.91871974  0.31238057  1
  Se  Se204  1  0.90689882  0.91554024  0.81409439  1
  Se  Se205  1  0.08501084  0.08309674  0.30749169  1
  Se  Se206  1  0.08914275  0.09036429  0.81017347  1
  Se  Se207  1  0.07909381  0.41188233  0.30199511  1
  Se  Se208  1  0.07571258  0.41029058  0.80080508  1
  Se  Se209  1  0.08549118  0.75191804  0.30311552  1
  Se  Se210  1  0.08015193  0.76388387  0.81150820  1
  Se  Se211  1  0.41891313  0.08521937  0.30700891  1
  Se  Se212  1  0.40338270  0.09645966  0.79483516  1
  Se  Se213  1  0.41583581  0.41226408  0.30549174  1
  Se  Se214  1  0.42960494  0.41910792  0.80745430  1
  Se  Se215  1  0.41503577  0.75301319  0.30609223  1
  Se  Se216  1  0.42111132  0.75736983  0.81076865  1
  Se  Se217  1  0.74711883  0.07970746  0.30531033  1
  Se  Se218  1  0.75899960  0.07872536  0.81348602  1
  Se  Se219  1  0.74861637  0.41339241  0.30534286  1
  Se  Se220  1  0.76010202  0.42705958  0.81297021  1
  Se  Se221  1  0.75450691  0.75420251  0.29931244  1
  Se  Se222  1  0.74688911  0.75758491  0.81537550  1
  Se  Se223  1  0.23432467  0.08520472  0.18441275  1
  Se  Se224  1  0.24784744  0.09482570  0.69457111  1
  Se  Se225  1  0.24693817  0.41123456  0.20191555  1
  Se  Se226  1  0.24587698  0.42000360  0.68740634  1
  Se  Se227  1  0.25750539  0.74745860  0.20270957  1
  Se  Se228  1  0.23943385  0.76138576  0.68800412  1
  Se  Se229  1  0.58513684  0.08403761  0.19901117  1
  Se  Se230  1  0.59559151  0.07688097  0.69929703  1
  Se  Se231  1  0.58180062  0.41214835  0.19904649  1
  Se  Se232  1  0.58530221  0.42139703  0.68519386  1
  Se  Se233  1  0.58915473  0.74768219  0.20135500  1
  Se  Se234  1  0.56573642  0.76070590  0.68966826  1
  Se  Se235  1  0.90249473  0.09168520  0.18619158  1
  Se  Se236  1  0.91083566  0.08513756  0.68677240  1
  Se  Se237  1  0.91143161  0.41645699  0.19998371  1
  Se  Se238  1  0.92214061  0.40643664  0.69136990  1
  Se  Se239  1  0.92584651  0.75186895  0.20035483  1
  Se  Se240  1  0.89774301  0.75715004  0.69151111  1
  Se  Se241  1  0.07022826  0.24745943  0.19629091  1
  Se  Se242  1  0.08430975  0.24703081  0.70024562  1
  Se  Se243  1  0.08449536  0.58371103  0.20659672  1
  Se  Se244  1  0.08583530  0.57236054  0.68625005  1
  Se  Se245  1  0.09916443  0.91331138  0.18997849  1
  Se  Se246  1  0.08350650  0.91364661  0.68596907  1
  Se  Se247  1  0.40589974  0.24405598  0.19729513  1
  Se  Se248  1  0.43356122  0.24550948  0.68953387  1
  Se  Se249  1  0.41575114  0.58240716  0.20253674  1
  Se  Se250  1  0.42000288  0.58004118  0.68853041  1
  Se  Se251  1  0.43040863  0.90672753  0.18599439  1
  Se  Se252  1  0.40942240  0.91699046  0.70761845  1
  Se  Se253  1  0.74451220  0.25149229  0.20027887  1
  Se  Se254  1  0.75794385  0.24083908  0.68899186  1
  Se  Se255  1  0.74639535  0.58614063  0.20076023  1
  Se  Se256  1  0.75798854  0.57333051  0.68594829  1
  Se  Se257  1  0.75779671  0.92179773  0.19512673  1
  Se  Se258  1  0.74346572  0.92096699  0.69695747  1
