# generated using pymatgen
data_In86Cu29Se144
_symmetry_space_group_name_H-M   'P 1'
_cell_length_a   17.57832966
_cell_length_b   17.57678781
_cell_length_c   23.43502084
_cell_angle_alpha   89.99945553
_cell_angle_beta   89.99415633
_cell_angle_gamma   89.98079380
_symmetry_Int_Tables_number   1
_chemical_formula_structural   In86Cu29Se144
_chemical_formula_sum   'In86 Cu29 Se144'
_cell_volume   7240.73131160
_cell_formula_units_Z   1
loop_
 _symmetry_equiv_pos_site_id
 _symmetry_equiv_pos_as_xyz
  1  'x, y, z'
loop_
 _atom_site_type_symbol
 _atom_site_label
 _atom_site_symmetry_multiplicity
 _atom_site_fract_x
 _atom_site_fract_y
 _atom_site_fract_z
 _atom_site_occupancy
  In  In0  1  0.01554042  0.15016293  0.14270545  1
  In  In1  1  0.01572877  0.16977600  0.62313491  1
  In  In2  1  0.00275536  0.49798806  0.12688799  1
  In  In3  1  -0.00877067  0.49222958  0.61802798  1
  In  In4  1  -0.00321500  0.83193572  0.12985801  1
  In  In5  1  -0.00506015  0.84340968  0.62140533  1
  In  In6  1  0.33663197  0.17313271  0.12365164  1
  In  In7  1  0.34848735  0.17971155  0.61065507  1
  In  In8  1  0.31863867  0.50684920  0.13367945  1
  In  In9  1  0.32360171  0.50214634  0.62365701  1
  In  In10  1  0.31881225  0.83578727  0.13024624  1
  In  In11  1  0.35310044  0.83120735  0.61427158  1
  In  In12  1  0.65381210  0.16390609  0.12701194  1
  In  In13  1  0.66065858  0.17883992  0.62863029  1
  In  In14  1  0.67397396  0.48720689  0.12169511  1
  In  In15  1  0.66926039  0.47746073  0.61962153  1
  In  In16  1  0.68039717  0.83238126  0.12551834  1
  In  In17  1  0.67748476  0.85469356  0.60959803  1
  In  In18  1  0.16932044  0.02787102  0.37201159  1
  In  In19  1  0.16578817  0.00265937  0.88744507  1
  In  In20  1  0.16905275  0.32876913  0.37261961  1
  In  In21  1  0.16727541  0.33653837  0.87829250  1
  In  In22  1  0.15569903  0.65774644  0.36605536  1
  In  In23  1  0.16294814  0.66982559  0.88824624  1
  In  In24  1  0.49704286  -0.00391399  0.39070957  1
  In  In25  1  0.51482224  0.00525390  0.87097802  1
  In  In26  1  0.48542745  0.33714332  0.37935079  1
  In  In27  1  0.48186677  0.32355402  0.86124309  1
  In  In28  1  0.49788919  0.67809299  0.37600757  1
  In  In29  1  0.49723817  0.66254486  0.87164077  1
  In  In30  1  0.82438983  -0.00605126  0.37202491  1
  In  In31  1  0.82132353  -0.00011154  0.87417840  1
  In  In32  1  0.84461675  0.33178149  0.37646575  1
  In  In33  1  0.84867821  0.33948184  0.86585760  1
  In  In34  1  0.84092533  0.66393183  0.38116859  1
  In  In35  1  0.83795800  0.66258457  0.88164251  1
  In  In36  1  0.01600339  0.18124601  0.35599828  1
  In  In37  1  0.00327145  0.17843439  0.87688091  1
  In  In38  1  0.00234670  0.49959618  0.37398702  1
  In  In39  1  0.00773056  0.49515776  0.88381039  1
  In  In40  1  -0.00754538  0.82832943  0.36818500  1
  In  In41  1  -0.00103910  0.83755230  0.88489294  1
  In  In42  1  0.31642782  0.17774986  0.39229072  1
  In  In43  1  0.32429415  0.17755040  0.88319184  1
  In  In44  1  0.31968462  0.48702254  0.36711216  1
  In  In45  1  0.32972242  0.48794501  0.87431992  1
  In  In46  1  0.34458662  0.83585630  0.37645228  1
  In  In47  1  0.32829723  0.82613607  0.87827310  1
  In  In48  1  0.66476599  0.14806066  0.38643865  1
  In  In49  1  0.66004504  0.15910454  0.86872244  1
  In  In50  1  0.66758624  0.50615278  0.38277494  1
  In  In51  1  0.67599131  0.49827218  0.87231183  1
  In  In52  1  0.66028122  0.85309187  0.39200925  1
  In  In53  1  0.67178771  0.84540409  0.87076561  1
  In  In54  1  0.16262580  -0.00751428  0.12203274  1
  In  In55  1  0.15724549  0.01046644  0.61971240  1
  In  In56  1  0.16233668  0.32939605  0.12706698  1
  In  In57  1  0.16753271  0.33739310  0.62566517  1
  In  In58  1  0.16185997  0.66634378  0.13003399  1
  In  In59  1  0.18831581  0.66019506  0.61598032  1
  In  In60  1  0.49596906  0.01627740  0.12844036  1
  In  In61  1  0.52680307  0.03414779  0.58461964  1
  In  In62  1  0.49811145  0.31725813  0.12399409  1
  In  In63  1  0.51541169  0.32146191  0.63676308  1
  In  In64  1  0.49568876  0.65623766  0.12966700  1
  In  In65  1  0.49388421  0.67319341  0.61911904  1
  In  In66  1  0.83985582  -0.01066267  0.13335186  1
  In  In67  1  0.82670889  -0.01322539  0.61918179  1
  In  In68  1  0.84125818  0.34579116  0.11974003  1
  In  In69  1  0.82606710  0.34089501  0.63088709  1
  In  In70  1  0.84398271  0.67383002  0.12010229  1
  In  In71  1  0.83907098  0.67334476  0.61848221  1
  In  In72  1  0.33291902  0.00183882  0.25591609  1
  In  In73  1  0.33479192  0.00192930  0.73815667  1
  In  In74  1  0.83705906  0.16594737  -0.00177173  1
  In  In75  1  0.00145280  0.66470114  0.73968184  1
  In  In76  1  0.16207275  0.83087754  0.49134528  1
  In  In77  1  -0.00736476  0.00975738  0.75677441  1
  In  In78  1  0.33602880  0.66059122  0.74294016  1
  In  In79  1  0.66601569  0.32862414  0.25071755  1
  In  In80  1  0.50117875  0.83681821  -0.00692453  1
  In  In81  1  0.49949072  0.49551604  -0.00722646  1
  In  In82  1  0.66780373  0.67040864  0.25769858  1
  In  In83  1  0.66735678  0.65997612  0.75260944  1
  In  In84  1  0.49721046  0.49919243  0.50145691  1
  In  In85  1  0.83981285  0.17060401  0.49491305  1
  Cu  Cu86  1  0.33428339  0.00754451  0.00635616  1
  Cu  Cu87  1  0.16304456  0.49493120  0.24843593  1
  Cu  Cu88  1  0.00357022  0.66446517  0.49422927  1
  Cu  Cu89  1  0.49881165  0.16284894  0.25427180  1
  Cu  Cu90  1  0.51072816  0.83659721  0.74391764  1
  Cu  Cu91  1  0.66982446  0.32781847  -0.00196164  1
  Cu  Cu92  1  0.00701360  0.33724353  0.49578527  1
  Cu  Cu93  1  -0.00169451  0.00773033  0.49416544  1
  Cu  Cu94  1  0.83771442  0.50584280  0.25046881  1
  Cu  Cu95  1  0.48533698  0.49536378  0.25163759  1
  Cu  Cu96  1  0.16427516  0.49368291  0.75231242  1
  Cu  Cu97  1  0.16591152  0.83359960  0.75260162  1
  Cu  Cu98  1  0.49763565  0.15795864  0.74266238  1
  Cu  Cu99  1  0.33062406  0.33662055  0.00162796  1
  Cu  Cu100  1  0.17277696  0.18288126  0.75016846  1
  Cu  Cu101  1  0.83088295  0.16611345  0.74814473  1
  Cu  Cu102  1  0.83568097  0.49585767  0.74694046  1
  Cu  Cu103  1  0.16154339  0.83119298  0.24992486  1
  Cu  Cu104  1  0.50377429  0.83693411  0.26072111  1
  Cu  Cu105  1  0.00538905  0.33216382  0.00230459  1
  Cu  Cu106  1  0.66729791  0.00106733  -0.00267688  1
  Cu  Cu107  1  0.67467707  0.66933370  0.49899761  1
  Cu  Cu108  1  0.32340190  0.67234343  0.00760871  1
  Cu  Cu109  1  0.83010195  0.16658506  0.25486646  1
  Cu  Cu110  1  0.82952472  0.83650834  0.25229232  1
  Cu  Cu111  1  0.00125634  -0.00332957  0.00964302  1
  Cu  Cu112  1  -0.00114635  0.66429347  0.00768935  1
  Cu  Cu113  1  0.33060249  0.33269296  0.50153301  1
  Cu  Cu114  1  0.67702347  0.66326632  -0.00161553  1
  Se  Se115  1  0.08361588  0.08580928  0.05688943  1
  Se  Se116  1  0.08434531  0.09038267  0.54451786  1
  Se  Se117  1  0.08624230  0.41786870  0.05624013  1
  Se  Se118  1  0.08730770  0.41990176  0.55343945  1
  Se  Se119  1  0.08078664  0.75031519  0.06043839  1
  Se  Se120  1  0.07833066  0.74210422  0.56201820  1
  Se  Se121  1  0.42142954  0.09180602  0.05301019  1
  Se  Se122  1  0.38958350  0.06337863  0.55195454  1
  Se  Se123  1  0.41270604  0.41599908  0.06277518  1
  Se  Se124  1  0.41418805  0.40688772  0.56427459  1
  Se  Se125  1  0.41518628  0.74862931  0.06052813  1
  Se  Se126  1  0.39634398  0.72371865  0.54754964  1
  Se  Se127  1  0.74743150  0.07811143  0.06126403  1
  Se  Se128  1  0.74995354  0.08926878  0.56041209  1
  Se  Se129  1  0.75314989  0.41486621  0.04637114  1
  Se  Se130  1  0.76104725  0.41433436  0.54939552  1
  Se  Se131  1  0.75370725  0.75104547  0.05226343  1
  Se  Se132  1  0.75634169  0.75617561  0.55064190  1
  Se  Se133  1  0.24945344  0.25184892  0.05589348  1
  Se  Se134  1  0.24289975  0.25030265  0.55376028  1
  Se  Se135  1  0.24407536  0.58391406  0.05804274  1
  Se  Se136  1  0.25722101  0.57707768  0.54336160  1
  Se  Se137  1  0.25296744  0.91706187  0.05310968  1
  Se  Se138  1  0.24345662  0.91277932  0.56336855  1
  Se  Se139  1  0.58506903  0.24745116  0.05124655  1
  Se  Se140  1  0.57187269  0.24337681  0.55425276  1
  Se  Se141  1  0.59101629  0.58696338  0.05667867  1
  Se  Se142  1  0.59473511  0.58805569  0.55975264  1
  Se  Se143  1  0.58605833  0.92242576  0.06050008  1
  Se  Se144  1  0.55677414  0.89442363  0.55551264  1
  Se  Se145  1  0.92771143  0.24789617  0.06213730  1
  Se  Se146  1  0.92648631  0.25873103  0.55900788  1
  Se  Se147  1  0.91481680  0.57641786  0.05625808  1
  Se  Se148  1  0.91845315  0.58593405  0.55198266  1
  Se  Se149  1  0.91378686  0.91275432  0.05700353  1
  Se  Se150  1  0.91894396  0.92081878  0.54708188  1
  Se  Se151  1  0.08205383  0.24730014  0.44194937  1
  Se  Se152  1  0.08887370  0.24893676  0.94886861  1
  Se  Se153  1  0.08725743  0.57931458  0.44516494  1
  Se  Se154  1  0.08354255  0.58206457  0.95319377  1
  Se  Se155  1  0.07755260  0.92680489  0.43255885  1
  Se  Se156  1  0.08573958  0.91489921  0.95284324  1
  Se  Se157  1  0.41889043  0.24889190  0.45275881  1
  Se  Se158  1  0.41786216  0.25603310  0.94753424  1
  Se  Se159  1  0.41240028  0.57822678  0.43152243  1
  Se  Se160  1  0.40286067  0.59478766  0.94380146  1
  Se  Se161  1  0.41955971  0.90332129  0.45490905  1
  Se  Se162  1  0.40857402  0.93090479  0.93713394  1
  Se  Se163  1  0.74213168  0.25847767  0.43942395  1
  Se  Se164  1  0.74995222  0.25235906  0.93354431  1
  Se  Se165  1  0.75636650  0.58154084  0.44944481  1
  Se  Se166  1  0.75502540  0.57474846  0.94605546  1
  Se  Se167  1  0.75443317  0.92750530  0.45519822  1
  Se  Se168  1  0.75147169  0.91444973  0.94885110  1
  Se  Se169  1  0.26446837  0.06366188  0.45088853  1
  Se  Se170  1  0.24872437  0.08887114  0.95178173  1
  Se  Se171  1  0.24715474  0.41278319  0.44570313  1
  Se  Se172  1  0.24697519  0.42134828  0.94997328  1
  Se  Se173  1  0.25040389  0.74124052  0.43259245  1
  Se  Se174  1  0.24450287  0.75908212  0.95315467  1
  Se  Se175  1  0.58067922  0.07866531  0.46016557  1
  Se  Se176  1  0.58307853  0.08656989  0.94786254  1
  Se  Se177  1  0.58958170  0.40708493  0.44410232  1
  Se  Se178  1  0.58771437  0.40367536  0.93465875  1
  Se  Se179  1  0.58569243  0.74742214  0.44710755  1
  Se  Se180  1  0.59347002  0.74002034  0.93775952  1
  Se  Se181  1  0.92525474  0.08684873  0.42792729  1
  Se  Se182  1  0.92745169  0.07219971  0.93914310  1
  Se  Se183  1  0.91859196  0.41888377  0.44581195  1
  Se  Se184  1  0.91804455  0.41149649  0.94747866  1
  Se  Se185  1  0.92004610  0.75410003  0.44786621  1
  Se  Se186  1  0.91903925  0.74710414  0.94908537  1
  Se  Se187  1  0.24730643  0.23646333  0.30775173  1
  Se  Se188  1  0.25598938  0.26054155  0.80708839  1
  Se  Se189  1  0.24752724  0.58054740  0.29962113  1
  Se  Se190  1  0.23857768  0.58495360  0.80960680  1
  Se  Se191  1  0.23969922  0.91020096  0.31340346  1
  Se  Se192  1  0.24608170  0.91691569  0.80927900  1
  Se  Se193  1  0.57860877  0.24381336  0.31586327  1
  Se  Se194  1  0.57664360  0.24250291  0.80091146  1
  Se  Se195  1  0.57257004  0.57264361  0.30856888  1
  Se  Se196  1  0.57158456  0.56795282  0.80637750  1
  Se  Se197  1  0.58055667  0.92322160  0.31433155  1
  Se  Se198  1  0.58913811  0.92139801  0.79903588  1
  Se  Se199  1  0.91437482  0.25744746  0.29744948  1
  Se  Se200  1  0.92098313  0.24418147  0.79974160  1
  Se  Se201  1  0.91891539  0.58735281  0.30642243  1
  Se  Se202  1  0.91688828  0.57694761  0.80638725  1
  Se  Se203  1  0.91506767  0.92065324  0.30288165  1
  Se  Se204  1  0.90939148  0.90805606  0.80917608  1
  Se  Se205  1  0.08033016  0.07750753  0.29433511  1
  Se  Se206  1  0.09786485  0.09348783  0.80858430  1
  Se  Se207  1  0.08272822  0.41354512  0.30616573  1
  Se  Se208  1  0.07995838  0.41513869  0.80778630  1
  Se  Se209  1  0.07601431  0.74649373  0.29990060  1
  Se  Se210  1  0.08532682  0.75324919  0.80984920  1
  Se  Se211  1  0.41919880  0.08901832  0.31953457  1
  Se  Se212  1  0.41544213  0.08771503  0.80987567  1
  Se  Se213  1  0.40768457  0.40415379  0.30059605  1
  Se  Se214  1  0.41567221  0.42637399  0.80043399  1
  Se  Se215  1  0.41438583  0.74982072  0.30148575  1
  Se  Se216  1  0.42464575  0.76120292  0.80300864  1
  Se  Se217  1  0.74414067  0.08507734  0.30583576  1
  Se  Se218  1  0.74814723  0.08081887  0.80009180  1
  Se  Se219  1  0.75296047  0.42589504  0.30814348  1
  Se  Se220  1  0.75257469  0.41368118  0.80151395  1
  Se  Se221  1  0.75180856  0.76160957  0.31898759  1
  Se  Se222  1  0.75920049  0.75089729  0.80974700  1
  Se  Se223  1  0.24762294  0.08460252  0.18881142  1
  Se  Se224  1  0.24242919  0.09812387  0.68692784  1
  Se  Se225  1  0.24863787  0.40980465  0.19765184  1
  Se  Se226  1  0.25224620  0.41730782  0.69714929  1
  Se  Se227  1  0.24860155  0.74752662  0.20013440  1
  Se  Se228  1  0.24818987  0.76162013  0.68934456  1
  Se  Se229  1  0.58466769  0.08054926  0.20295248  1
  Se  Se230  1  0.57803995  0.07796514  0.68376637  1
  Se  Se231  1  0.57292756  0.42180512  0.19142716  1
  Se  Se232  1  0.59082282  0.41625897  0.69899999  1
  Se  Se233  1  0.57688220  0.75705973  0.19267126  1
  Se  Se234  1  0.58645001  0.75058880  0.68658640  1
  Se  Se235  1  0.91198386  0.08016528  0.20160783  1
  Se  Se236  1  0.91049468  0.08985880  0.68398699  1
  Se  Se237  1  0.91620868  0.41776424  0.19746618  1
  Se  Se238  1  0.92326057  0.41313845  0.69676852  1
  Se  Se239  1  0.91117947  0.75027913  0.19964922  1
  Se  Se240  1  0.90858799  0.76489503  0.69420668  1
  Se  Se241  1  0.06928886  0.26336977  0.19797469  1
  Se  Se242  1  0.08168237  0.25754041  0.69703070  1
  Se  Se243  1  0.07941874  0.58269686  0.19860791  1
  Se  Se244  1  0.09711538  0.57633229  0.68472977  1
  Se  Se245  1  0.08155060  0.91762285  0.19614815  1
  Se  Se246  1  0.08631362  0.91744282  0.69572130  1
  Se  Se247  1  0.41768844  0.24686077  0.19993947  1
  Se  Se248  1  0.41269135  0.24674525  0.69625478  1
  Se  Se249  1  0.40892845  0.58638722  0.20037758  1
  Se  Se250  1  0.43043626  0.57131275  0.68868133  1
  Se  Se251  1  0.42431231  0.91109262  0.19301138  1
  Se  Se252  1  0.43142326  0.91620321  0.68423247  1
  Se  Se253  1  0.75781904  0.24523341  0.18611381  1
  Se  Se254  1  0.74768106  0.25348692  0.69879479  1
  Se  Se255  1  0.75110275  0.58031049  0.19086089  1
  Se  Se256  1  0.75922789  0.57883229  0.68670273  1
  Se  Se257  1  0.74302627  0.91898496  0.20097708  1
  Se  Se258  1  0.74672717  0.91733818  0.69441430  1
