# generated using pymatgen
data_In86Cu29Se144
_symmetry_space_group_name_H-M   'P 1'
_cell_length_a   17.69525380
_cell_length_b   17.68967655
_cell_length_c   23.53144901
_cell_angle_alpha   90.01213711
_cell_angle_beta   89.96073409
_cell_angle_gamma   89.97715770
_symmetry_Int_Tables_number   1
_chemical_formula_structural   In86Cu29Se144
_chemical_formula_sum   'In86 Cu29 Se144'
_cell_volume   7365.88972488
_cell_formula_units_Z   1
loop_
 _symmetry_equiv_pos_site_id
 _symmetry_equiv_pos_as_xyz
  1  'x, y, z'
loop_
 _atom_site_type_symbol
 _atom_site_label
 _atom_site_symmetry_multiplicity
 _atom_site_fract_x
 _atom_site_fract_y
 _atom_site_fract_z
 _atom_site_occupancy
  In  In0  1  -0.00596136  0.16842761  0.13304718  1
  In  In1  1  -0.00230879  0.17263055  0.62569790  1
  In  In2  1  -0.00427437  0.49373169  0.12511091  1
  In  In3  1  0.00246157  0.49922023  0.62186869  1
  In  In4  1  0.00618909  0.83691750  0.13012020  1
  In  In5  1  -0.00126283  0.83184920  0.62623876  1
  In  In6  1  0.35574681  0.16748045  0.12569430  1
  In  In7  1  0.34208131  0.16792859  0.62705844  1
  In  In8  1  0.34830819  0.48658819  0.13645527  1
  In  In9  1  0.33022735  0.49082887  0.62218759  1
  In  In10  1  0.32547072  0.83649966  0.13446140  1
  In  In11  1  0.33615126  0.83365699  0.61858237  1
  In  In12  1  0.66301414  0.17570695  0.13434941  1
  In  In13  1  0.67102166  0.16615992  0.62079116  1
  In  In14  1  0.65273455  0.49767655  0.12556288  1
  In  In15  1  0.65985628  0.48190114  0.60710185  1
  In  In16  1  0.67470730  0.84409129  0.13150876  1
  In  In17  1  0.70247285  0.89045944  0.57202397  1
  In  In18  1  0.14222358  -0.00297992  0.37980646  1
  In  In19  1  0.16606271  0.00898504  0.87008381  1
  In  In20  1  0.17305944  0.33783328  0.36698107  1
  In  In21  1  0.16398869  0.32978981  0.86721170  1
  In  In22  1  0.17058601  0.66958992  0.37754858  1
  In  In23  1  0.16338557  0.67304264  0.87201683  1
  In  In24  1  0.52377090  0.00224424  0.39567777  1
  In  In25  1  0.51178402  -0.00053702  0.86974342  1
  In  In26  1  0.49485630  0.33433156  0.38033342  1
  In  In27  1  0.50265015  0.32954768  0.87463963  1
  In  In28  1  0.49029165  0.66456304  0.37821518  1
  In  In29  1  0.49118783  0.65985858  0.87426584  1
  In  In30  1  0.82576071  0.01112118  0.38829136  1
  In  In31  1  0.83339430  0.00358719  0.86309493  1
  In  In32  1  0.83879586  0.33362878  0.37736150  1
  In  In33  1  0.82918929  0.33328326  0.86383802  1
  In  In34  1  0.83081936  0.66653487  0.38567087  1
  In  In35  1  0.83789940  0.66331432  0.86179436  1
  In  In36  1  -0.01141033  0.15632168  0.37089534  1
  In  In37  1  -0.00161841  0.16885371  0.86522298  1
  In  In38  1  0.01479528  0.49618388  0.38123638  1
  In  In39  1  -0.00736280  0.49466878  0.86165348  1
  In  In40  1  -0.03736754  0.88253302  0.42919879  1
  In  In41  1  0.00372860  0.83739910  0.85106356  1
  In  In42  1  0.33214537  0.17881864  0.37123108  1
  In  In43  1  0.33434424  0.17629119  0.87616883  1
  In  In44  1  0.32879315  0.49986624  0.37448830  1
  In  In45  1  0.35080888  0.49418378  0.87741870  1
  In  In46  1  0.34322879  0.82882110  0.38066984  1
  In  In47  1  0.33473237  0.82766492  0.86993356  1
  In  In48  1  0.66725345  0.18436890  0.38569608  1
  In  In49  1  0.66250719  0.16216142  0.86976819  1
  In  In50  1  0.67698953  0.47881019  0.39012381  1
  In  In51  1  0.66180513  0.48368521  0.87027207  1
  In  In52  1  0.66488282  0.83458411  0.38199680  1
  In  In53  1  0.65874184  0.84714874  0.86807377  1
  In  In54  1  0.16494009  -0.00955199  0.12857822  1
  In  In55  1  0.15517204  -0.01880666  0.62293677  1
  In  In56  1  0.16369958  0.33831114  0.13140711  1
  In  In57  1  0.15875585  0.34308090  0.63201861  1
  In  In58  1  0.16935526  0.67966584  0.13132298  1
  In  In59  1  0.16575184  0.66075909  0.62471116  1
  In  In60  1  0.50216034  0.01852268  0.12853331  1
  In  In61  1  0.51970449  0.02110343  0.60426845  1
  In  In62  1  0.50401441  0.33006193  0.12966075  1
  In  In63  1  0.50252397  0.32320381  0.62088258  1
  In  In64  1  0.50840297  0.65034776  0.13354961  1
  In  In65  1  0.51259083  0.67085217  0.61640835  1
  In  In66  1  0.82651210  0.00341298  0.13968498  1
  In  In67  1  0.84773335  0.00430047  0.61853917  1
  In  In68  1  0.83671470  0.32598294  0.13647124  1
  In  In69  1  0.83450685  0.33168032  0.61741861  1
  In  In70  1  0.83974398  0.66385049  0.13141216  1
  In  In71  1  0.83979721  0.67470248  0.61151899  1
  In  In72  1  0.33635584  0.00748543  0.25339960  1
  In  In73  1  0.82985003  0.16972950  0.00592273  1
  In  In74  1  0.49371540  0.83263163  -0.00066440  1
  In  In75  1  0.17211118  0.49977726  0.00580966  1
  In  In76  1  0.16601421  0.83607445  0.00479572  1
  In  In77  1  0.66332033  0.66901492  0.26567098  1
  In  In78  1  0.82342213  0.49240514  -0.01304004  1
  In  In79  1  0.16471332  0.16568124  0.50135971  1
  In  In80  1  0.17208576  0.16767973  -0.00605535  1
  In  In81  1  0.33527072  0.66145634  0.74213712  1
  In  In82  1  0.00039169  0.67445898  0.26089359  1
  In  In83  1  0.67281167  0.66451477  0.73421688  1
  In  In84  1  0.32996130  -0.00100211  0.74777773  1
  In  In85  1  0.83561808  0.83113162  0.00497687  1
  Cu  Cu86  1  0.34066327  0.66086855  0.00586479  1
  Cu  Cu87  1  0.83427904  0.49321362  0.73915695  1
  Cu  Cu88  1  0.16414225  0.83792959  0.25637105  1
  Cu  Cu89  1  0.50617959  0.48908869  0.74595954  1
  Cu  Cu90  1  0.33153514  0.65985479  0.50134339  1
  Cu  Cu91  1  0.50671053  0.17048164  0.74430537  1
  Cu  Cu92  1  0.50871322  0.84301782  0.73976868  1
  Cu  Cu93  1  0.66128339  0.65934750  0.49608146  1
  Cu  Cu94  1  0.83092552  0.16623481  0.25996126  1
  Cu  Cu95  1  0.82775922  0.83480818  0.73268646  1
  Cu  Cu96  1  0.82969505  0.49816265  0.25428642  1
  Cu  Cu97  1  0.50516363  0.83805157  0.26275049  1
  Cu  Cu98  1  0.16150024  0.16415085  0.74844525  1
  Cu  Cu99  1  0.32824320  0.33770428  0.49680146  1
  Cu  Cu100  1  0.17047857  0.49917432  0.74731682  1
  Cu  Cu101  1  0.32609555  -0.00247003  0.49770792  1
  Cu  Cu102  1  0.50005433  0.48986956  0.25598704  1
  Cu  Cu103  1  0.00304135  0.00349246  -0.00265881  1
  Cu  Cu104  1  0.16342891  0.16863314  0.25118917  1
  Cu  Cu105  1  0.34065412  0.33059524  0.00308795  1
  Cu  Cu106  1  0.65939726  0.33403601  0.00260560  1
  Cu  Cu107  1  0.16630783  0.50479167  0.25310806  1
  Cu  Cu108  1  0.66137927  0.00471169  -0.00492850  1
  Cu  Cu109  1  -0.00782773  0.66082362  -0.00953964  1
  Cu  Cu110  1  0.83142127  0.16750258  0.74199241  1
  Cu  Cu111  1  0.00254044  0.66326251  0.50209684  1
  Cu  Cu112  1  0.00658320  0.33359084  0.49923927  1
  Cu  Cu113  1  0.66135596  0.66288845  0.00138062  1
  Cu  Cu114  1  0.50909557  0.16829962  0.25714573  1
  Se  Se115  1  0.08136367  0.08022431  0.05940297  1
  Se  Se116  1  0.07514859  0.07547256  0.55810591  1
  Se  Se117  1  0.07460358  0.40755308  0.05408395  1
  Se  Se118  1  0.08819004  0.41699618  0.55301301  1
  Se  Se119  1  0.06953306  0.73817218  0.05545295  1
  Se  Se120  1  0.08178233  0.74519074  0.55956946  1
  Se  Se121  1  0.41466640  0.07629056  0.05391963  1
  Se  Se122  1  0.40486416  0.08207276  0.55203743  1
  Se  Se123  1  0.42142264  0.41303708  0.05897945  1
  Se  Se124  1  0.41556156  0.40943034  0.55596896  1
  Se  Se125  1  0.41294738  0.74448442  0.06843935  1
  Se  Se126  1  0.41437063  0.74376030  0.55410686  1
  Se  Se127  1  0.74108517  0.07556264  0.06135796  1
  Se  Se128  1  0.74673758  0.07278468  0.55575434  1
  Se  Se129  1  0.74608707  0.40907379  0.06134981  1
  Se  Se130  1  0.73856560  0.38958001  0.54335714  1
  Se  Se131  1  0.74123811  0.73834561  0.06194499  1
  Se  Se132  1  0.73503859  0.74431231  0.55486812  1
  Se  Se133  1  0.25528667  0.25540175  0.06186345  1
  Se  Se134  1  0.25229590  0.25721633  0.56151113  1
  Se  Se135  1  0.25820082  0.58863864  0.06877163  1
  Se  Se136  1  0.25022125  0.57916216  0.55738797  1
  Se  Se137  1  0.26324649  0.92663164  0.05662640  1
  Se  Se138  1  0.24779227  0.91451877  0.55350428  1
  Se  Se139  1  0.58394761  0.24682091  0.05813025  1
  Se  Se140  1  0.56642324  0.22349906  0.55285229  1
  Se  Se141  1  0.57875785  0.57953407  0.05233466  1
  Se  Se142  1  0.57704603  0.57524590  0.54777477  1
  Se  Se143  1  0.58870422  0.91995527  0.05729442  1
  Se  Se144  1  0.55926185  0.90064662  0.55097272  1
  Se  Se145  1  0.92512970  0.26002872  0.05794269  1
  Se  Se146  1  0.92280288  0.25003725  0.55059269  1
  Se  Se147  1  0.91399791  0.58321693  0.05208606  1
  Se  Se148  1  0.91761884  0.57759299  0.55146381  1
  Se  Se149  1  0.92344283  0.92788134  0.06133911  1
  Se  Se150  1  0.92319443  0.91148671  0.55082562  1
  Se  Se151  1  0.08181540  0.25290446  0.43522285  1
  Se  Se152  1  0.07494939  0.25435176  0.94013707  1
  Se  Se153  1  0.08967239  0.58633874  0.44729923  1
  Se  Se154  1  0.07901602  0.58109918  0.93809600  1
  Se  Se155  1  0.10368093  0.90006405  0.45491497  1
  Se  Se156  1  0.07658232  0.91907614  0.93755107  1
  Se  Se157  1  0.40907668  0.24953557  0.44768166  1
  Se  Se158  1  0.42038897  0.24877381  0.94645925  1
  Se  Se159  1  0.41245705  0.57785359  0.44585100  1
  Se  Se160  1  0.42149348  0.57998422  0.95044685  1
  Se  Se161  1  0.41744508  0.92287855  0.44535090  1
  Se  Se162  1  0.41057315  0.92195995  0.93504135  1
  Se  Se163  1  0.74418581  0.27592703  0.45197471  1
  Se  Se164  1  0.74369154  0.25793214  0.94189779  1
  Se  Se165  1  0.75240256  0.57718253  0.45057149  1
  Se  Se166  1  0.73913570  0.59356331  0.93259555  1
  Se  Se167  1  0.73815321  0.92267244  0.45180676  1
  Se  Se168  1  0.74801135  0.92406927  0.94160084  1
  Se  Se169  1  0.25129800  0.07888595  0.43520897  1
  Se  Se170  1  0.26227235  0.07215624  0.94067485  1
  Se  Se171  1  0.24368991  0.41722843  0.44347212  1
  Se  Se172  1  0.25722337  0.40734401  0.94256824  1
  Se  Se173  1  0.25627279  0.74856966  0.44680675  1
  Se  Se174  1  0.25907925  0.74022649  0.94711934  1
  Se  Se175  1  0.57464126  0.11353914  0.45711709  1
  Se  Se176  1  0.57974767  0.08694903  0.94292169  1
  Se  Se177  1  0.56699547  0.42495399  0.44864271  1
  Se  Se178  1  0.58029341  0.41691855  0.94596293  1
  Se  Se179  1  0.58058919  0.74449773  0.44274515  1
  Se  Se180  1  0.58919330  0.74625285  0.93751786  1
  Se  Se181  1  0.91960140  0.08993979  0.45181121  1
  Se  Se182  1  0.91837192  0.08057579  0.94047384  1
  Se  Se183  1  0.92431234  0.41711280  0.44492723  1
  Se  Se184  1  0.92271084  0.40516863  0.93709663  1
  Se  Se185  1  0.91400734  0.74553159  0.45461370  1
  Se  Se186  1  0.92057745  0.74987202  0.93353299  1
  Se  Se187  1  0.25102643  0.25165412  0.29757570  1
  Se  Se188  1  0.24681780  0.24280578  0.80360109  1
  Se  Se189  1  0.24880394  0.58706430  0.30567842  1
  Se  Se190  1  0.25116820  0.57451223  0.81194042  1
  Se  Se191  1  0.24810738  0.91842607  0.31402032  1
  Se  Se192  1  0.24041807  0.90557165  0.80674338  1
  Se  Se193  1  0.58367039  0.25765996  0.31111541  1
  Se  Se194  1  0.58622195  0.25193073  0.80346647  1
  Se  Se195  1  0.57979299  0.56924390  0.31739060  1
  Se  Se196  1  0.58053939  0.58042768  0.80293767  1
  Se  Se197  1  0.58583930  0.92258803  0.31377856  1
  Se  Se198  1  0.58982146  0.92751843  0.79291740  1
  Se  Se199  1  0.91852154  0.25241671  0.30529985  1
  Se  Se200  1  0.91346681  0.24962915  0.79908995  1
  Se  Se201  1  0.91078412  0.57698594  0.31327468  1
  Se  Se202  1  0.91432104  0.57947891  0.79320948  1
  Se  Se203  1  0.91469434  0.92039975  0.33015847  1
  Se  Se204  1  0.90698813  0.91556469  0.79409774  1
  Se  Se205  1  0.08253572  0.08353907  0.30303050  1
  Se  Se206  1  0.07881323  0.08015498  0.80080608  1
  Se  Se207  1  0.08261735  0.41890813  0.30184570  1
  Se  Se208  1  0.08532301  0.41576007  0.80020293  1
  Se  Se209  1  0.08362426  0.76487448  0.31949844  1
  Se  Se210  1  0.08043772  0.73738541  0.79841448  1
  Se  Se211  1  0.42960608  0.08666858  0.31679123  1
  Se  Se212  1  0.42347393  0.09113495  0.80515845  1
  Se  Se213  1  0.41072374  0.41258571  0.30781399  1
  Se  Se214  1  0.42145232  0.41309183  0.80337663  1
  Se  Se215  1  0.41810430  0.75083384  0.30475148  1
  Se  Se216  1  0.43176004  0.75823770  0.79910760  1
  Se  Se217  1  0.74474610  0.09397253  0.31846688  1
  Se  Se218  1  0.74883493  0.08705620  0.79967901  1
  Se  Se219  1  0.75043003  0.41338717  0.30788899  1
  Se  Se220  1  0.74831292  0.41789272  0.79678537  1
  Se  Se221  1  0.76187561  0.75907100  0.31268098  1
  Se  Se222  1  0.75237779  0.76149754  0.80340522  1
  Se  Se223  1  0.24536142  0.09193534  0.18832854  1
  Se  Se224  1  0.23908476  0.08607384  0.68592948  1
  Se  Se225  1  0.24707778  0.41962163  0.19841689  1
  Se  Se226  1  0.25503786  0.41386951  0.69851291  1
  Se  Se227  1  0.24873370  0.75423190  0.20514414  1
  Se  Se228  1  0.24702840  0.75732339  0.69166038  1
  Se  Se229  1  0.58849735  0.08383666  0.20184052  1
  Se  Se230  1  0.58498634  0.08421120  0.69075848  1
  Se  Se231  1  0.58647010  0.41331902  0.19948823  1
  Se  Se232  1  0.58637727  0.41042946  0.68734235  1
  Se  Se233  1  0.57950642  0.75757697  0.19574100  1
  Se  Se234  1  0.58907391  0.76298098  0.68202426  1
  Se  Se235  1  0.91411674  0.08633159  0.20157159  1
  Se  Se236  1  0.92012240  0.08501805  0.69440025  1
  Se  Se237  1  0.91573678  0.42002297  0.19801394  1
  Se  Se238  1  0.91918517  0.41148187  0.68743669  1
  Se  Se239  1  0.90876592  0.76185599  0.19615915  1
  Se  Se240  1  0.91279535  0.74442338  0.69160589  1
  Se  Se241  1  0.08135255  0.25166071  0.19609958  1
  Se  Se242  1  0.08173636  0.25089494  0.69610093  1
  Se  Se243  1  0.08400082  0.58282851  0.19122099  1
  Se  Se244  1  0.08537199  0.57855541  0.69439891  1
  Se  Se245  1  0.08132686  0.91977676  0.20169104  1
  Se  Se246  1  0.07681780  0.91320448  0.69874483  1
  Se  Se247  1  0.42328405  0.24767122  0.20131164  1
  Se  Se248  1  0.41721895  0.25195203  0.69713624  1
  Se  Se249  1  0.42092322  0.57973150  0.20362330  1
  Se  Se250  1  0.43119066  0.57492960  0.68726272  1
  Se  Se251  1  0.42843974  0.91409411  0.19497913  1
  Se  Se252  1  0.42333917  0.92129927  0.68421697  1
  Se  Se253  1  0.75051656  0.24982119  0.20334917  1
  Se  Se254  1  0.75108171  0.25149160  0.68894969  1
  Se  Se255  1  0.74990287  0.57943434  0.19536252  1
  Se  Se256  1  0.75524022  0.56931564  0.67531211  1
  Se  Se257  1  0.75082471  0.91598223  0.20517039  1
  Se  Se258  1  0.75071012  0.91797532  0.67641242  1
