# generated using pymatgen
data_In86Cu29Se144
_symmetry_space_group_name_H-M   'P 1'
_cell_length_a   17.57554268
_cell_length_b   17.57887573
_cell_length_c   23.43561940
_cell_angle_alpha   89.97659882
_cell_angle_beta   90.00572211
_cell_angle_gamma   90.01426317
_symmetry_Int_Tables_number   1
_chemical_formula_structural   In86Cu29Se144
_chemical_formula_sum   'In86 Cu29 Se144'
_cell_volume   7240.62781227
_cell_formula_units_Z   1
loop_
 _symmetry_equiv_pos_site_id
 _symmetry_equiv_pos_as_xyz
  1  'x, y, z'
loop_
 _atom_site_type_symbol
 _atom_site_label
 _atom_site_symmetry_multiplicity
 _atom_site_fract_x
 _atom_site_fract_y
 _atom_site_fract_z
 _atom_site_occupancy
  In  In0  1  -0.01269872  0.18417642  0.13228234  1
  In  In1  1  0.01508413  0.17598367  0.61318210  1
  In  In2  1  -0.00892604  0.50434361  0.13526774  1
  In  In3  1  -0.00266744  0.49118975  0.62781660  1
  In  In4  1  -0.01277187  0.82376443  0.12809993  1
  In  In5  1  -0.01400719  0.81383449  0.62795725  1
  In  In6  1  0.33935391  0.15135436  0.12456960  1
  In  In7  1  0.33544055  0.16965548  0.62558631  1
  In  In8  1  0.34276929  0.50761987  0.12808144  1
  In  In9  1  0.33168981  0.49971180  0.61899099  1
  In  In10  1  0.33819548  0.82241659  0.12634893  1
  In  In11  1  0.34008621  0.82438109  0.63386027  1
  In  In12  1  0.66793897  0.17443845  0.12255322  1
  In  In13  1  0.68256481  0.18049564  0.61383908  1
  In  In14  1  0.66994727  0.49662709  0.13760476  1
  In  In15  1  0.66944248  0.50173233  0.62323398  1
  In  In16  1  0.66216755  0.83581115  0.13535643  1
  In  In17  1  0.66976017  0.82419832  0.62901508  1
  In  In18  1  0.16228497  0.00773668  0.38400656  1
  In  In19  1  0.16873656  -0.01252376  0.87254103  1
  In  In20  1  0.15659219  0.34594372  0.38673163  1
  In  In21  1  0.16650388  0.33323285  0.86272677  1
  In  In22  1  0.16288233  0.65533751  0.37654235  1
  In  In23  1  0.16154052  0.65960413  0.86625736  1
  In  In24  1  0.51163372  -0.00459655  0.37422306  1
  In  In25  1  0.49724698  0.01265460  0.88171824  1
  In  In26  1  0.50798588  0.32736008  0.38280413  1
  In  In27  1  0.49832387  0.32950941  0.86379009  1
  In  In28  1  0.49806074  0.65945559  0.37410713  1
  In  In29  1  0.50631947  0.67165436  0.86932598  1
  In  In30  1  0.83196110  0.01534047  0.37503337  1
  In  In31  1  0.83376677  0.00734042  0.88276040  1
  In  In32  1  0.83064091  0.33385778  0.37702095  1
  In  In33  1  0.82527410  0.33015821  0.85567138  1
  In  In34  1  0.82189870  0.65848430  0.36918347  1
  In  In35  1  0.83171278  0.67507299  0.86012945  1
  In  In36  1  -0.02364771  0.18287146  0.39281483  1
  In  In37  1  -0.01101598  0.16648707  0.87521838  1
  In  In38  1  -0.00288892  0.49620045  0.37909413  1
  In  In39  1  -0.00304198  0.50588149  0.86290672  1
  In  In40  1  0.00494159  0.82229010  0.37168918  1
  In  In41  1  -0.00140485  0.83081568  0.87251245  1
  In  In42  1  0.33260484  0.16750526  0.38619387  1
  In  In43  1  0.34520674  0.17692333  0.86175092  1
  In  In44  1  0.33004974  0.51353096  0.39341147  1
  In  In45  1  0.33612998  0.49868269  0.86027222  1
  In  In46  1  0.34405097  0.82807261  0.37456761  1
  In  In47  1  0.33935272  0.84174763  0.86561684  1
  In  In48  1  0.66440020  0.17157860  0.37444765  1
  In  In49  1  0.65909858  0.17292970  0.87931608  1
  In  In50  1  0.66874450  0.49824479  0.37854962  1
  In  In51  1  0.67861253  0.49741507  0.85293712  1
  In  In52  1  0.66574286  0.83148944  0.35977043  1
  In  In53  1  0.66656287  0.81950817  0.87879004  1
  In  In54  1  0.17388443  -0.00234491  0.12721163  1
  In  In55  1  0.16289941  0.01487768  0.62484175  1
  In  In56  1  0.15566117  0.32457424  0.12827137  1
  In  In57  1  0.16693262  0.33604623  0.62234150  1
  In  In58  1  0.16407549  0.67033011  0.13344983  1
  In  In59  1  0.17942166  0.64732469  0.62679467  1
  In  In60  1  0.52672309  0.01483358  0.10243503  1
  In  In61  1  0.48878367  0.00106900  0.62749995  1
  In  In62  1  0.51505367  0.33745170  0.12456427  1
  In  In63  1  0.50378814  0.33250013  0.62278757  1
  In  In64  1  0.49207538  0.67147055  0.13004826  1
  In  In65  1  0.50476419  0.65690403  0.62282693  1
  In  In66  1  0.79193587  0.00071828  0.12482390  1
  In  In67  1  0.82918107  0.00299701  0.61918933  1
  In  In68  1  0.83445992  0.33259539  0.13032279  1
  In  In69  1  0.83634963  0.33788915  0.62718594  1
  In  In70  1  0.83558717  0.67012126  0.14047985  1
  In  In71  1  0.85545986  0.63593752  0.65757445  1
  In  In72  1  0.66558568  -0.00197186  0.75137651  1
  In  In73  1  0.82765617  0.83514140  0.00098881  1
  In  In74  1  0.16590440  0.83374532  0.49628733  1
  In  In75  1  0.83007355  0.83157682  0.49976460  1
  In  In76  1  0.50470393  0.49988101  -0.00693091  1
  In  In77  1  0.00285730  -0.00078697  0.75203691  1
  In  In78  1  0.33661141  0.34209256  0.25540718  1
  In  In79  1  -0.00696760  -0.00134319  0.25202420  1
  In  In80  1  0.16940109  0.16313337  0.00063061  1
  In  In81  1  0.50335591  0.83217055  0.50499976  1
  In  In82  1  0.83472711  0.50123603  -0.00272618  1
  In  In83  1  0.33826439  -0.00711537  0.25005841  1
  In  In84  1  0.16594137  0.83301808  0.00473002  1
  In  In85  1  0.16506651  0.49843834  -0.01246447  1
  Cu  Cu86  1  0.32840384  0.67031941  -0.00083490  1
  Cu  Cu87  1  0.50220990  0.83261532  0.24714952  1
  Cu  Cu88  1  0.16649492  0.49858886  0.25938191  1
  Cu  Cu89  1  0.16646789  0.82897010  0.74784218  1
  Cu  Cu90  1  0.83940241  0.17209558  0.74475389  1
  Cu  Cu91  1  0.15785219  0.17585194  0.25933652  1
  Cu  Cu92  1  -0.00094644  0.65503305  0.50460939  1
  Cu  Cu93  1  0.66496953  0.01006901  0.49724540  1
  Cu  Cu94  1  0.66526764  0.66272835  -0.00123862  1
  Cu  Cu95  1  0.49348088  0.83267586  0.75107599  1
  Cu  Cu96  1  0.82465183  0.16976385  0.25302963  1
  Cu  Cu97  1  0.66739777  0.32919892  -0.00605477  1
  Cu  Cu98  1  0.67164749  0.66123602  0.50125682  1
  Cu  Cu99  1  0.49744405  0.49496683  0.74028914  1
  Cu  Cu100  1  0.16994728  0.17114241  0.74138314  1
  Cu  Cu101  1  -0.00403876  0.33547387  0.50265878  1
  Cu  Cu102  1  0.16985596  0.82592700  0.25297371  1
  Cu  Cu103  1  0.50690200  0.16806385  0.74737761  1
  Cu  Cu104  1  0.33484156  0.33150785  0.50587542  1
  Cu  Cu105  1  0.34695597  0.00318431  -0.00855345  1
  Cu  Cu106  1  0.50377390  0.50554149  0.25601207  1
  Cu  Cu107  1  0.50547027  0.16670151  0.24780473  1
  Cu  Cu108  1  -0.00962201  0.00916533  0.00602139  1
  Cu  Cu109  1  0.32852275  0.00643170  0.50711276  1
  Cu  Cu110  1  -0.00582253  0.33581351  0.00099393  1
  Cu  Cu111  1  0.83500895  0.49431450  0.25782332  1
  Cu  Cu112  1  0.16592916  0.49922567  0.74229605  1
  Cu  Cu113  1  0.66873237  0.33538196  0.50061560  1
  Cu  Cu114  1  0.34370522  0.32294616  -0.00686070  1
  Se  Se115  1  0.07645159  0.08159104  0.06671639  1
  Se  Se116  1  0.07962898  0.07588672  0.54840779  1
  Se  Se117  1  0.07686433  0.41553189  0.05824540  1
  Se  Se118  1  0.08188998  0.41861589  0.55410430  1
  Se  Se119  1  0.07339834  0.73967973  0.05702388  1
  Se  Se120  1  0.08055606  0.74053707  0.55923203  1
  Se  Se121  1  0.42281291  0.09124764  0.04660678  1
  Se  Se122  1  0.41965900  0.08717140  0.55464913  1
  Se  Se123  1  0.41166596  0.41138840  0.05580048  1
  Se  Se124  1  0.42092337  0.41620332  0.55433910  1
  Se  Se125  1  0.41749690  0.74699852  0.05187027  1
  Se  Se126  1  0.40807944  0.74073123  0.55549008  1
  Se  Se127  1  0.75088996  0.09627605  0.05072004  1
  Se  Se128  1  0.75664028  0.08717785  0.54706731  1
  Se  Se129  1  0.74093686  0.41324914  0.05672522  1
  Se  Se130  1  0.75265563  0.41717713  0.55530209  1
  Se  Se131  1  0.74643680  0.73774267  0.06212494  1
  Se  Se132  1  0.75265580  0.73714177  0.56295538  1
  Se  Se133  1  0.26022017  0.25608896  0.06065364  1
  Se  Se134  1  0.24850389  0.24744217  0.55603813  1
  Se  Se135  1  0.25062887  0.58647365  0.05708988  1
  Se  Se136  1  0.24832207  0.57745383  0.54696193  1
  Se  Se137  1  0.26610424  0.92712920  0.05492487  1
  Se  Se138  1  0.25572907  0.91663809  0.56377666  1
  Se  Se139  1  0.58110461  0.25280370  0.05008112  1
  Se  Se140  1  0.58310847  0.24892663  0.55036704  1
  Se  Se141  1  0.58908507  0.58301632  0.06248293  1
  Se  Se142  1  0.58304568  0.57833573  0.54962250  1
  Se  Se143  1  0.58588692  0.89870207  0.05461778  1
  Se  Se144  1  0.59478556  0.92653228  0.56236508  1
  Se  Se145  1  0.91033468  0.25394701  0.05391127  1
  Se  Se146  1  0.91292337  0.25140426  0.55613598  1
  Se  Se147  1  0.91838874  0.59146229  0.06082237  1
  Se  Se148  1  0.91188679  0.58204761  0.56374184  1
  Se  Se149  1  0.91438399  0.92601059  0.06566500  1
  Se  Se150  1  0.92584106  0.91715585  0.55924269  1
  Se  Se151  1  0.08257088  0.25035092  0.45141414  1
  Se  Se152  1  0.08132238  0.25889976  0.94260111  1
  Se  Se153  1  0.08409646  0.57593385  0.44915160  1
  Se  Se154  1  0.06811132  0.59290697  0.94162262  1
  Se  Se155  1  0.06687831  0.92171889  0.44325781  1
  Se  Se156  1  0.07011564  0.92687938  0.94730034  1
  Se  Se157  1  0.41872001  0.24968656  0.45054461  1
  Se  Se158  1  0.42760316  0.24420527  0.93946369  1
  Se  Se159  1  0.42895813  0.58749966  0.45355022  1
  Se  Se160  1  0.40569663  0.58712046  0.93868179  1
  Se  Se161  1  0.40952793  0.92672050  0.44577651  1
  Se  Se162  1  0.42179110  0.91027948  0.94147920  1
  Se  Se163  1  0.74889898  0.24888177  0.44597439  1
  Se  Se164  1  0.75652241  0.25659869  0.93695520  1
  Se  Se165  1  0.75602594  0.57882333  0.44788674  1
  Se  Se166  1  0.74342426  0.58761554  0.93472406  1
  Se  Se167  1  0.73801225  0.91992229  0.43877857  1
  Se  Se168  1  0.73627487  0.92507312  0.94316429  1
  Se  Se169  1  0.24473189  0.08766145  0.45277088  1
  Se  Se170  1  0.25788574  0.07910243  0.93487281  1
  Se  Se171  1  0.25175083  0.41605196  0.45267691  1
  Se  Se172  1  0.26279224  0.40464005  0.93661582  1
  Se  Se173  1  0.25850290  0.74303928  0.44112045  1
  Se  Se174  1  0.24962307  0.74734109  0.93624132  1
  Se  Se175  1  0.57808791  0.08793148  0.44357103  1
  Se  Se176  1  0.59384282  0.07873402  0.94730605  1
  Se  Se177  1  0.58372607  0.41913806  0.44897906  1
  Se  Se178  1  0.59638683  0.41463612  0.93119131  1
  Se  Se179  1  0.59609382  0.74912361  0.44185816  1
  Se  Se180  1  0.57823332  0.74544431  0.94922938  1
  Se  Se181  1  0.91471841  0.07620053  0.45222550  1
  Se  Se182  1  0.91172985  0.09344409  0.95176523  1
  Se  Se183  1  0.91152775  0.41664899  0.44805527  1
  Se  Se184  1  0.91989757  0.41126189  0.93392303  1
  Se  Se185  1  0.92251404  0.73740533  0.44299825  1
  Se  Se186  1  0.91673832  0.74332182  0.94156265  1
  Se  Se187  1  0.24645969  0.25101832  0.31472838  1
  Se  Se188  1  0.25361526  0.25355702  0.79660483  1
  Se  Se189  1  0.25512277  0.57833982  0.30982875  1
  Se  Se190  1  0.24825947  0.58281138  0.79804989  1
  Se  Se191  1  0.24135083  0.91172388  0.31388237  1
  Se  Se192  1  0.24868309  0.91743211  0.79727627  1
  Se  Se193  1  0.58158742  0.25369209  0.30348000  1
  Se  Se194  1  0.59191194  0.25149107  0.79966644  1
  Se  Se195  1  0.59137046  0.58675289  0.30768376  1
  Se  Se196  1  0.57487165  0.57646088  0.80140332  1
  Se  Se197  1  0.58384721  0.92227353  0.29600948  1
  Se  Se198  1  0.57529899  0.91036352  0.81219666  1
  Se  Se199  1  0.91305243  0.24840252  0.30686719  1
  Se  Se200  1  0.92692698  0.25118829  0.79871415  1
  Se  Se201  1  0.91883264  0.58036814  0.30811650  1
  Se  Se202  1  0.91369649  0.58808526  0.79666224  1
  Se  Se203  1  0.90733179  0.90921483  0.31404940  1
  Se  Se204  1  0.90416394  0.91509464  0.81025075  1
  Se  Se205  1  0.07826300  0.09071443  0.31442571  1
  Se  Se206  1  0.09498017  0.09352064  0.81017806  1
  Se  Se207  1  0.08043788  0.41397991  0.30718293  1
  Se  Se208  1  0.08231677  0.41894475  0.79952753  1
  Se  Se209  1  0.08684592  0.74075729  0.30414667  1
  Se  Se210  1  0.08033199  0.75115188  0.80319509  1
  Se  Se211  1  0.42066845  0.09166453  0.30896064  1
  Se  Se212  1  0.42400157  0.08170483  0.80005427  1
  Se  Se213  1  0.42352420  0.42758037  0.31862693  1
  Se  Se214  1  0.41478085  0.41028888  0.79503688  1
  Se  Se215  1  0.42206451  0.74941549  0.30329508  1
  Se  Se216  1  0.41184370  0.74389763  0.80233477  1
  Se  Se217  1  0.74238087  0.08349838  0.30368973  1
  Se  Se218  1  0.75910495  0.09197937  0.80634623  1
  Se  Se219  1  0.74588577  0.41276715  0.30677928  1
  Se  Se220  1  0.77433875  0.43197543  0.78473996  1
  Se  Se221  1  0.75588711  0.75102495  0.29938768  1
  Se  Se222  1  0.73640939  0.75080878  0.79876263  1
  Se  Se223  1  0.23960284  0.09388482  0.20101629  1
  Se  Se224  1  0.25370477  0.08265767  0.69509403  1
  Se  Se225  1  0.24153032  0.42374075  0.18911926  1
  Se  Se226  1  0.25201824  0.41630159  0.69146546  1
  Se  Se227  1  0.25637669  0.74704142  0.19884177  1
  Se  Se228  1  0.24857067  0.74314790  0.69566112  1
  Se  Se229  1  0.58418021  0.08539975  0.18945224  1
  Se  Se230  1  0.58692028  0.09013717  0.68501852  1
  Se  Se231  1  0.58110146  0.41604067  0.20311866  1
  Se  Se232  1  0.58788540  0.41416537  0.69194029  1
  Se  Se233  1  0.58440405  0.74182198  0.19865895  1
  Se  Se234  1  0.57283745  0.75313123  0.69215094  1
  Se  Se235  1  0.90224377  0.08660194  0.19008784  1
  Se  Se236  1  0.91781585  0.08788300  0.68727847  1
  Se  Se237  1  0.91729168  0.41237635  0.20078094  1
  Se  Se238  1  0.90335484  0.42693020  0.70130212  1
  Se  Se239  1  0.93053147  0.74101878  0.20608225  1
  Se  Se240  1  0.91215639  0.75344863  0.70921827  1
  Se  Se241  1  0.07455123  0.25581472  0.20433948  1
  Se  Se242  1  0.08160212  0.25346793  0.69281960  1
  Se  Se243  1  0.08666744  0.57958634  0.19855446  1
  Se  Se244  1  0.07930095  0.58336494  0.69276582  1
  Se  Se245  1  0.09146577  0.90824551  0.19269621  1
  Se  Se246  1  0.08599901  0.90750382  0.68632750  1
  Se  Se247  1  0.41924575  0.24590715  0.19079781  1
  Se  Se248  1  0.42133989  0.25013139  0.69402168  1
  Se  Se249  1  0.41610309  0.58534759  0.20245444  1
  Se  Se250  1  0.41389272  0.58206373  0.69082252  1
  Se  Se251  1  0.42947763  0.91692966  0.18313342  1
  Se  Se252  1  0.41250138  0.91982299  0.69951691  1
  Se  Se253  1  0.74457658  0.25528313  0.19704495  1
  Se  Se254  1  0.75008273  0.25258227  0.69524269  1
  Se  Se255  1  0.75328591  0.57978030  0.20314562  1
  Se  Se256  1  0.72123131  0.60570362  0.69286992  1
  Se  Se257  1  0.76592848  0.89876390  0.19856290  1
  Se  Se258  1  0.76115617  0.91155516  0.69299755  1
