# generated using pymatgen
data_In86Cu29Se144
_symmetry_space_group_name_H-M   'P 1'
_cell_length_a   17.57163552
_cell_length_b   17.57099038
_cell_length_c   23.41603506
_cell_angle_alpha   89.99731057
_cell_angle_beta   90.01098021
_cell_angle_gamma   90.00161600
_symmetry_Int_Tables_number   1
_chemical_formula_structural   In86Cu29Se144
_chemical_formula_sum   'In86 Cu29 Se144'
_cell_volume   7229.72500604
_cell_formula_units_Z   1
loop_
 _symmetry_equiv_pos_site_id
 _symmetry_equiv_pos_as_xyz
  1  'x, y, z'
loop_
 _atom_site_type_symbol
 _atom_site_label
 _atom_site_symmetry_multiplicity
 _atom_site_fract_x
 _atom_site_fract_y
 _atom_site_fract_z
 _atom_site_occupancy
  In  In0  1  0.00101096  0.16425564  0.11369720  1
  In  In1  1  0.01314815  0.17645158  0.62763377  1
  In  In2  1  0.00764024  0.50177531  0.12784529  1
  In  In3  1  -0.01064464  0.49912064  0.62912236  1
  In  In4  1  -0.00147906  0.83270068  0.11899326  1
  In  In5  1  0.01558807  0.84007417  0.62791372  1
  In  In6  1  0.32213917  0.18277746  0.13321706  1
  In  In7  1  0.32828840  0.15495041  0.62637780  1
  In  In8  1  0.33356989  0.49273015  0.12842772  1
  In  In9  1  0.34443517  0.50165225  0.62257671  1
  In  In10  1  0.33703086  0.83156338  0.12930866  1
  In  In11  1  0.31956454  0.82872483  0.62798967  1
  In  In12  1  0.67384154  0.15512404  0.13195983  1
  In  In13  1  0.67297474  0.16317560  0.63778441  1
  In  In14  1  0.65535159  0.49154367  0.11598833  1
  In  In15  1  0.66151597  0.50710275  0.63759224  1
  In  In16  1  0.67265795  0.84055393  0.11485770  1
  In  In17  1  0.66450555  0.83575210  0.63807030  1
  In  In18  1  0.17157420  0.00254769  0.35564399  1
  In  In19  1  0.15705623  0.00487217  0.90269964  1
  In  In20  1  0.17370678  0.35158102  0.34724608  1
  In  In21  1  0.15671959  0.35069776  0.89225633  1
  In  In22  1  0.17342397  0.66478595  0.36040672  1
  In  In23  1  0.17326828  0.66410682  0.88421032  1
  In  In24  1  0.49570338  -0.01405394  0.33838440  1
  In  In25  1  0.50008900  -0.01234695  0.88101336  1
  In  In26  1  0.51238868  0.34453524  0.36399716  1
  In  In27  1  0.51147304  0.33076427  0.87965525  1
  In  In28  1  0.48109936  0.65951579  0.36879691  1
  In  In29  1  0.49715813  0.66771365  0.87914167  1
  In  In30  1  0.83365880  -0.00070508  0.35919636  1
  In  In31  1  0.83261809  0.01161772  0.89380435  1
  In  In32  1  0.83399954  0.33184345  0.36264118  1
  In  In33  1  0.83444193  0.33318318  0.88442723  1
  In  In34  1  0.83896295  0.65795267  0.37129837  1
  In  In35  1  0.82271327  0.67444234  0.88579894  1
  In  In36  1  0.01215783  0.17480701  0.35928751  1
  In  In37  1  -0.01682733  0.17552661  0.89615737  1
  In  In38  1  0.02225927  0.51367312  0.34297645  1
  In  In39  1  0.00698937  0.49345953  0.88430599  1
  In  In40  1  -0.00118977  0.83251914  0.36086145  1
  In  In41  1  -0.00193255  0.84081060  0.89999253  1
  In  In42  1  0.34576049  0.16561242  0.35010347  1
  In  In43  1  0.33081382  0.16812238  0.88803170  1
  In  In44  1  0.34555255  0.51401610  0.35592349  1
  In  In45  1  0.31836289  0.50728698  0.89115719  1
  In  In46  1  0.33057426  0.81973857  0.35291134  1
  In  In47  1  0.34279582  0.82515208  0.89004831  1
  In  In48  1  0.65995347  0.16463279  0.35665603  1
  In  In49  1  0.67480230  0.17562457  0.87309202  1
  In  In50  1  0.66845081  0.48828627  0.37352521  1
  In  In51  1  0.66580511  0.50044038  0.88234755  1
  In  In52  1  0.65310137  0.83425531  0.36583567  1
  In  In53  1  0.66232394  0.83278300  0.87879475  1
  In  In54  1  0.15597353  0.00365451  0.11611827  1
  In  In55  1  0.17295482  -0.00331953  0.62986070  1
  In  In56  1  0.17574510  0.33537249  0.12232224  1
  In  In57  1  0.15931980  0.32651901  0.63187272  1
  In  In58  1  0.16836286  0.65498920  0.13182891  1
  In  In59  1  0.16884356  0.67879964  0.63047876  1
  In  In60  1  0.51014991  -0.00967898  0.13930169  1
  In  In61  1  0.50444401  0.00994708  0.62724325  1
  In  In62  1  0.49208445  0.34106943  0.13634151  1
  In  In63  1  0.49639547  0.34848560  0.62793147  1
  In  In64  1  0.48932040  0.65765799  0.12043904  1
  In  In65  1  0.50041996  0.66352748  0.63173410  1
  In  In66  1  0.83966495  -0.00211808  0.11364068  1
  In  In67  1  0.83062661  -0.01365140  0.62828381  1
  In  In68  1  0.83292598  0.33229639  0.11927043  1
  In  In69  1  0.83220262  0.33604039  0.63777667  1
  In  In70  1  0.84248276  0.67732346  0.11424573  1
  In  In71  1  0.83212165  0.65302946  0.62787529  1
  In  In72  1  0.16960353  0.50552515  0.49128285  1
  In  In73  1  -0.00503487  0.66989533  0.75219068  1
  In  In74  1  0.82982157  0.82623776  0.48759104  1
  In  In75  1  0.33818739  0.33655823  0.75287835  1
  In  In76  1  0.49419135  0.82880989  0.49470825  1
  In  In77  1  0.16711999  0.17321927  0.49654507  1
  In  In78  1  0.83702983  0.49459736  0.50054958  1
  In  In79  1  0.83090672  0.17327036  0.49585637  1
  In  In80  1  0.49541183  0.16941662  0.01320858  1
  In  In81  1  0.33574957  -0.01036573  0.75621012  1
  In  In82  1  0.67257024  0.67192037  0.24317488  1
  In  In83  1  0.50510683  0.17133014  0.49061017  1
  In  In84  1  -0.01336177  0.01072047  0.76403215  1
  In  In85  1  0.16636492  0.82171241  0.48392467  1
  Cu  Cu86  1  0.33334922  -0.00462331  0.48446446  1
  Cu  Cu87  1  0.83565574  0.16827471  0.76191536  1
  Cu  Cu88  1  -0.00538373  0.00232886  0.49188328  1
  Cu  Cu89  1  0.15616823  0.17884984  0.76384933  1
  Cu  Cu90  1  0.82759155  0.83253436  0.75669396  1
  Cu  Cu91  1  0.33057414  0.66797761  0.00804499  1
  Cu  Cu92  1  0.83696132  0.83815000  0.23672238  1
  Cu  Cu93  1  0.50116097  0.50328948  0.75609062  1
  Cu  Cu94  1  0.00022788  0.33574104  0.00763031  1
  Cu  Cu95  1  0.33341900  -0.00058192  0.01227752  1
  Cu  Cu96  1  0.49901248  0.50178894  0.24375893  1
  Cu  Cu97  1  0.65857259  0.00598425  0.49461684  1
  Cu  Cu98  1  0.16597966  0.83252856  0.23552236  1
  Cu  Cu99  1  0.66862728  0.33166889  0.00146867  1
  Cu  Cu100  1  0.65862789  0.33680605  0.49915271  1
  Cu  Cu101  1  0.83938528  0.16623053  0.23746407  1
  Cu  Cu102  1  0.83227376  0.49813424  0.23971386  1
  Cu  Cu103  1  0.66098916  0.00459642  0.00327050  1
  Cu  Cu104  1  0.66057323  0.66683190  0.00245268  1
  Cu  Cu105  1  0.15690518  0.16308884  0.23747572  1
  Cu  Cu106  1  0.66096522  0.66303454  0.50711861  1
  Cu  Cu107  1  0.17043959  0.83134298  0.76596608  1
  Cu  Cu108  1  0.50661270  0.16356036  0.75453774  1
  Cu  Cu109  1  0.00929357  0.65819255  0.00594376  1
  Cu  Cu110  1  0.33694279  0.33833190  0.49337176  1
  Cu  Cu111  1  0.50241872  0.82756382  0.75957102  1
  Cu  Cu112  1  0.16749279  0.49993645  0.76212788  1
  Cu  Cu113  1  0.83395854  0.49492557  0.75991594  1
  Cu  Cu114  1  -0.00108104  0.34148506  0.49206137  1
  Se  Se115  1  0.07063485  0.07397646  0.04083462  1
  Se  Se116  1  0.07843277  0.07481772  0.55638021  1
  Se  Se117  1  0.08730748  0.41939488  0.05611128  1
  Se  Se118  1  0.07975047  0.41504461  0.55773235  1
  Se  Se119  1  0.08909688  0.74161167  0.06131090  1
  Se  Se120  1  0.07508336  0.74224162  0.55502192  1
  Se  Se121  1  0.41208527  0.07736907  0.07429030  1
  Se  Se122  1  0.40984598  0.07426763  0.54990955  1
  Se  Se123  1  0.43125820  0.42714840  0.06028316  1
  Se  Se124  1  0.41948266  0.41820991  0.54980280  1
  Se  Se125  1  0.41801410  0.75407385  0.05429765  1
  Se  Se126  1  0.40714676  0.74472629  0.56027502  1
  Se  Se127  1  0.74972168  0.08684542  0.05169418  1
  Se  Se128  1  0.74473291  0.07623058  0.55695753  1
  Se  Se129  1  0.75187956  0.41977204  0.05075957  1
  Se  Se130  1  0.74343288  0.40978847  0.56229956  1
  Se  Se131  1  0.74992579  0.75153641  0.04767933  1
  Se  Se132  1  0.74428962  0.74618141  0.56175938  1
  Se  Se133  1  0.25530171  0.25215839  0.05126372  1
  Se  Se134  1  0.26151679  0.26177507  0.55954417  1
  Se  Se135  1  0.25140600  0.57861482  0.05848359  1
  Se  Se136  1  0.25177559  0.59153884  0.56098746  1
  Se  Se137  1  0.24992877  0.91283850  0.06096998  1
  Se  Se138  1  0.25244442  0.92071804  0.54898805  1
  Se  Se139  1  0.59162603  0.25684913  0.06775637  1
  Se  Se140  1  0.58903490  0.25117819  0.56378620  1
  Se  Se141  1  0.57619161  0.58094812  0.05060409  1
  Se  Se142  1  0.58096627  0.57923300  0.56128647  1
  Se  Se143  1  0.57601731  0.92110723  0.05412578  1
  Se  Se144  1  0.58721856  0.92013711  0.55742903  1
  Se  Se145  1  0.91130134  0.24685380  0.04867479  1
  Se  Se146  1  0.92355353  0.26229952  0.55699852  1
  Se  Se147  1  0.91961967  0.57757273  0.05595163  1
  Se  Se148  1  0.92889209  0.59329520  0.55387783  1
  Se  Se149  1  0.90415440  0.89739282  0.04862621  1
  Se  Se150  1  0.92310314  0.91674495  0.55309589  1
  Se  Se151  1  0.08603762  0.26589774  0.43344463  1
  Se  Se152  1  0.08435269  0.25097208  0.95406697  1
  Se  Se153  1  0.07585604  0.59157483  0.43214491  1
  Se  Se154  1  0.09194677  0.57702807  0.95008061  1
  Se  Se155  1  0.07953901  0.92544462  0.43309570  1
  Se  Se156  1  0.09798862  0.90112334  0.96550247  1
  Se  Se157  1  0.40996470  0.25523794  0.43101318  1
  Se  Se158  1  0.41286631  0.26265892  0.94955123  1
  Se  Se159  1  0.41063041  0.57816648  0.44214025  1
  Se  Se160  1  0.41363680  0.58779658  0.95040557  1
  Se  Se161  1  0.41378084  0.91731484  0.42495339  1
  Se  Se162  1  0.41661982  0.92007305  0.95550211  1
  Se  Se163  1  0.73629004  0.25808090  0.43605476  1
  Se  Se164  1  0.75201935  0.24497482  0.95134983  1
  Se  Se165  1  0.74306249  0.58928884  0.44369026  1
  Se  Se166  1  0.74851872  0.58253355  0.95239273  1
  Se  Se167  1  0.74007476  0.92541825  0.43584226  1
  Se  Se168  1  0.74246626  0.91960322  0.94801280  1
  Se  Se169  1  0.25522607  0.08509657  0.43111220  1
  Se  Se170  1  0.25417949  0.08738841  0.95958235  1
  Se  Se171  1  0.25501026  0.41224929  0.43188405  1
  Se  Se172  1  0.25677421  0.40950468  0.95852955  1
  Se  Se173  1  0.26704703  0.73382889  0.43541928  1
  Se  Se174  1  0.24695921  0.75242030  0.95435475  1
  Se  Se175  1  0.57888706  0.07212805  0.42723135  1
  Se  Se176  1  0.58286046  0.08759539  0.94189150  1
  Se  Se177  1  0.57800860  0.42177277  0.44606172  1
  Se  Se178  1  0.58294321  0.41625444  0.95194794  1
  Se  Se179  1  0.58881209  0.73776136  0.43847054  1
  Se  Se180  1  0.57852188  0.75280253  0.94845696  1
  Se  Se181  1  0.91998734  0.08534672  0.43234870  1
  Se  Se182  1  0.94338965  0.05927323  0.95798966  1
  Se  Se183  1  0.92350121  0.41946340  0.42851691  1
  Se  Se184  1  0.91708362  0.41829861  0.95190004  1
  Se  Se185  1  0.93123912  0.74008297  0.43815414  1
  Se  Se186  1  0.92058348  0.73893111  0.95419738  1
  Se  Se187  1  0.24246961  0.24168589  0.29485277  1
  Se  Se188  1  0.24727525  0.25367986  0.81769496  1
  Se  Se189  1  0.22879167  0.55706127  0.29765703  1
  Se  Se190  1  0.25215443  0.58512176  0.80997343  1
  Se  Se191  1  0.25051217  0.91265146  0.29159702  1
  Se  Se192  1  0.24338275  0.91832100  0.82587458  1
  Se  Se193  1  0.57131019  0.24587377  0.29532198  1
  Se  Se194  1  0.58659780  0.25285795  0.80419341  1
  Se  Se195  1  0.58451752  0.57942796  0.30598816  1
  Se  Se196  1  0.58362938  0.58423340  0.81245396  1
  Se  Se197  1  0.60680980  0.92179957  0.28668901  1
  Se  Se198  1  0.58368863  0.91845346  0.80634749  1
  Se  Se199  1  0.91777623  0.24985170  0.29554152  1
  Se  Se200  1  0.91935828  0.25055929  0.81390458  1
  Se  Se201  1  0.91188157  0.58698722  0.29298777  1
  Se  Se202  1  0.91286883  0.58032646  0.81713241  1
  Se  Se203  1  0.92128118  0.91996211  0.29335113  1
  Se  Se204  1  0.90825553  0.90819727  0.82013679  1
  Se  Se205  1  0.07611876  0.07677939  0.29219455  1
  Se  Se206  1  0.08510215  0.09069725  0.82371453  1
  Se  Se207  1  0.05930838  0.39452331  0.28733583  1
  Se  Se208  1  0.08261829  0.41422726  0.80861408  1
  Se  Se209  1  0.08813324  0.75170460  0.29731719  1
  Se  Se210  1  0.07829898  0.75703732  0.81946557  1
  Se  Se211  1  0.40386004  0.06846103  0.28130229  1
  Se  Se212  1  0.42117801  0.08939833  0.81423246  1
  Se  Se213  1  0.41683318  0.41307917  0.29577893  1
  Se  Se214  1  0.42046786  0.42459578  0.81782030  1
  Se  Se215  1  0.44285535  0.76187523  0.29706849  1
  Se  Se216  1  0.41138995  0.75053233  0.80929922  1
  Se  Se217  1  0.75390331  0.08677537  0.29430399  1
  Se  Se218  1  0.75603859  0.07957138  0.81272877  1
  Se  Se219  1  0.74971277  0.41873464  0.29802319  1
  Se  Se220  1  0.74994704  0.41442991  0.81481369  1
  Se  Se221  1  0.76424244  0.76131596  0.30702423  1
  Se  Se222  1  0.74535821  0.74785206  0.80881245  1
  Se  Se223  1  0.24281460  0.07946129  0.18768229  1
  Se  Se224  1  0.23757206  0.09286956  0.70587044  1
  Se  Se225  1  0.24905227  0.41485103  0.19874764  1
  Se  Se226  1  0.24299417  0.42462730  0.69250046  1
  Se  Se227  1  0.25549204  0.74264352  0.19621163  1
  Se  Se228  1  0.24921300  0.75072065  0.70656394  1
  Se  Se229  1  0.58184492  0.08839581  0.20117817  1
  Se  Se230  1  0.58838445  0.07695018  0.70253337  1
  Se  Se231  1  0.59015605  0.41888981  0.19888988  1
  Se  Se232  1  0.58153118  0.41560775  0.70221613  1
  Se  Se233  1  0.58195424  0.75263920  0.18027766  1
  Se  Se234  1  0.58338316  0.74626052  0.70028952  1
  Se  Se235  1  0.92030166  0.08070069  0.18524004  1
  Se  Se236  1  0.90812264  0.09537409  0.68755467  1
  Se  Se237  1  0.91603898  0.41442422  0.18886054  1
  Se  Se238  1  0.92021970  0.41671653  0.70373467  1
  Se  Se239  1  0.92007570  0.74763193  0.19250659  1
  Se  Se240  1  0.90904774  0.76389258  0.68855127  1
  Se  Se241  1  0.08054224  0.24970398  0.18248488  1
  Se  Se242  1  0.07438491  0.25872903  0.70707316  1
  Se  Se243  1  0.07645489  0.58680445  0.20286729  1
  Se  Se244  1  0.09019204  0.57785075  0.69510227  1
  Se  Se245  1  0.07928208  0.91791955  0.18836524  1
  Se  Se246  1  0.08930492  0.91886252  0.70818808  1
  Se  Se247  1  0.42217944  0.24443337  0.20020727  1
  Se  Se248  1  0.42277338  0.23739563  0.69112702  1
  Se  Se249  1  0.41111068  0.58629760  0.19782829  1
  Se  Se250  1  0.41470011  0.58096378  0.69947946  1
  Se  Se251  1  0.41454954  0.91407835  0.20189234  1
  Se  Se252  1  0.42680920  0.90495027  0.68938782  1
  Se  Se253  1  0.75157600  0.25332233  0.19256883  1
  Se  Se254  1  0.75154294  0.25036100  0.70416112  1
  Se  Se255  1  0.75401203  0.58019797  0.18008665  1
  Se  Se256  1  0.75472917  0.58201043  0.70393816  1
  Se  Se257  1  0.75280371  0.92146377  0.18633914  1
  Se  Se258  1  0.74772089  0.92155134  0.70441136  1
