# generated using pymatgen
data_In86Cu29Se144
_symmetry_space_group_name_H-M   'P 1'
_cell_length_a   17.57430369
_cell_length_b   17.57581418
_cell_length_c   23.43050884
_cell_angle_alpha   90.00989155
_cell_angle_beta   89.99046855
_cell_angle_gamma   89.98759298
_symmetry_Int_Tables_number   1
_chemical_formula_structural   In86Cu29Se144
_chemical_formula_sum   'In86 Cu29 Se144'
_cell_volume   7237.27836372
_cell_formula_units_Z   1
loop_
 _symmetry_equiv_pos_site_id
 _symmetry_equiv_pos_as_xyz
  1  'x, y, z'
loop_
 _atom_site_type_symbol
 _atom_site_label
 _atom_site_symmetry_multiplicity
 _atom_site_fract_x
 _atom_site_fract_y
 _atom_site_fract_z
 _atom_site_occupancy
  In  In0  1  -0.01381188  0.16725625  0.12617082  1
  In  In1  1  -0.00512138  0.16529320  0.61981345  1
  In  In2  1  0.00463816  0.50483645  0.11566088  1
  In  In3  1  -0.01050298  0.51227497  0.64989186  1
  In  In4  1  -0.00034788  0.82713700  0.12744627  1
  In  In5  1  -0.02717419  0.84143651  0.64893386  1
  In  In6  1  0.35458973  0.16855308  0.11978269  1
  In  In7  1  0.33650898  0.18214450  0.62699272  1
  In  In8  1  0.32428542  0.48906188  0.12066024  1
  In  In9  1  0.32304108  0.50224581  0.64550795  1
  In  In10  1  0.32536823  0.84379990  0.11890698  1
  In  In11  1  0.33248533  0.82297243  0.62431376  1
  In  In12  1  0.62899300  0.19161163  0.16220693  1
  In  In13  1  0.66653201  0.14558796  0.62503821  1
  In  In14  1  0.66906557  0.49993394  0.11841915  1
  In  In15  1  0.67420249  0.48890028  0.62341832  1
  In  In16  1  0.66670598  0.83332005  0.13779085  1
  In  In17  1  0.67969966  0.83809952  0.61504028  1
  In  In18  1  0.17216896  0.01286777  0.37847831  1
  In  In19  1  0.15398296  0.00196041  0.87267101  1
  In  In20  1  0.16699162  0.32062886  0.37383808  1
  In  In21  1  0.17508637  0.36673712  0.84971028  1
  In  In22  1  0.15603816  0.67942309  0.37543198  1
  In  In23  1  0.16889269  0.66118367  0.87472403  1
  In  In24  1  0.49593554  -0.00634370  0.37603106  1
  In  In25  1  0.51506422  -0.00368064  0.87400166  1
  In  In26  1  0.50369647  0.32840961  0.35998492  1
  In  In27  1  0.49793091  0.34575185  0.88900701  1
  In  In28  1  0.51854641  0.66148797  0.37533120  1
  In  In29  1  0.47915658  0.66320881  0.87041117  1
  In  In30  1  0.83545943  -0.00380520  0.37749183  1
  In  In31  1  0.83286235  -0.00097143  0.85718712  1
  In  In32  1  0.82766580  0.34215430  0.38045121  1
  In  In33  1  0.84185892  0.33675981  0.87006474  1
  In  In34  1  0.83377839  0.66535160  0.37621903  1
  In  In35  1  0.83294752  0.65917342  0.86708925  1
  In  In36  1  0.00923925  0.15614972  0.38307237  1
  In  In37  1  -0.00401136  0.16593361  0.86440155  1
  In  In38  1  -0.01534061  0.50384231  0.37476609  1
  In  In39  1  -0.00465479  0.50813289  0.86838966  1
  In  In40  1  -0.01073176  0.82139348  0.37068559  1
  In  In41  1  0.00660037  0.84314354  0.86370468  1
  In  In42  1  0.33181758  0.16684602  0.37523383  1
  In  In43  1  0.33510751  0.18625179  0.87250882  1
  In  In44  1  0.34556346  0.49521495  0.37180044  1
  In  In45  1  0.33285839  0.50221516  0.87858287  1
  In  In46  1  0.33622366  0.84975075  0.38072121  1
  In  In47  1  0.33610333  0.80139057  0.86832953  1
  In  In48  1  0.67523323  0.17783955  0.36706884  1
  In  In49  1  0.66511359  0.15904117  0.87770531  1
  In  In50  1  0.67766068  0.50538683  0.36584491  1
  In  In51  1  0.67495191  0.49073452  0.89192971  1
  In  In52  1  0.67026564  0.83323022  0.37778829  1
  In  In53  1  0.65800616  0.84226839  0.86393363  1
  In  In54  1  0.16519098  -0.01071891  0.11930110  1
  In  In55  1  0.14648534  -0.00142808  0.62533066  1
  In  In56  1  0.16393050  0.34925291  0.12333858  1
  In  In57  1  0.16859807  0.33014289  0.63357381  1
  In  In58  1  0.15620955  0.65919133  0.11654913  1
  In  In59  1  0.15696774  0.66532178  0.64189058  1
  In  In60  1  0.50651736  0.01039620  0.12513656  1
  In  In61  1  0.53426941  -0.00430576  0.63860034  1
  In  In62  1  0.50093235  0.33174293  0.11888086  1
  In  In63  1  0.48967430  0.32173055  0.63537418  1
  In  In64  1  0.51670911  0.66967578  0.12521898  1
  In  In65  1  0.49009082  0.66667415  0.62818749  1
  In  In66  1  0.82890291  0.00571135  0.13567555  1
  In  In67  1  0.83075308  -0.00271504  0.61953004  1
  In  In68  1  0.81334338  0.33242721  0.11939733  1
  In  In69  1  0.84437356  0.34282532  0.61552217  1
  In  In70  1  0.83834522  0.65922881  0.12834004  1
  In  In71  1  0.83906402  0.66543378  0.62355502  1
  In  In72  1  0.67031119  0.33011150  0.75679638  1
  In  In73  1  0.66674354  0.66951145  0.75145630  1
  In  In74  1  -0.00255586  0.33359274  0.24909741  1
  In  In75  1  0.49596153  0.82752140  -0.00554180  1
  In  In76  1  0.83307018  0.83073126  -0.00492279  1
  In  In77  1  0.33736745  0.00540008  0.25140768  1
  In  In78  1  0.50129856  0.16615083  0.50366808  1
  In  In79  1  0.50484703  0.49630127  0.50281764  1
  In  In80  1  0.82724310  0.16853484  0.00073678  1
  In  In81  1  0.16222965  0.17416930  -0.00921222  1
  In  In82  1  0.33126942  0.66282388  0.24881668  1
  In  In83  1  0.16441656  0.49548442  0.51538025  1
  In  In84  1  0.33541409  0.00316638  0.74968115  1
  In  In85  1  0.15798839  0.83274646  0.50881205  1
  Cu  Cu86  1  -0.00513163  -0.00548573  0.50205859  1
  Cu  Cu87  1  0.67071906  0.33098002  0.49714321  1
  Cu  Cu88  1  0.82892921  0.50104155  0.24757110  1
  Cu  Cu89  1  0.15524414  0.16307161  0.74854039  1
  Cu  Cu90  1  0.16188563  0.50456799  0.24375013  1
  Cu  Cu91  1  0.00647662  0.66878097  -0.00297723  1
  Cu  Cu92  1  0.67243459  -0.00201776  0.49702605  1
  Cu  Cu93  1  0.00240164  0.34503856  -0.01093217  1
  Cu  Cu94  1  0.82848816  0.16206975  0.74140578  1
  Cu  Cu95  1  0.66765054  0.66299987  -0.00154744  1
  Cu  Cu96  1  0.33821158  0.00763575  0.50229172  1
  Cu  Cu97  1  0.83326504  0.83317120  0.25588949  1
  Cu  Cu98  1  0.83868274  0.15897557  0.25569979  1
  Cu  Cu99  1  0.50271763  0.49238055  0.24409890  1
  Cu  Cu100  1  0.67317303  0.66928003  0.49713501  1
  Cu  Cu101  1  0.17353245  0.16587622  0.25149036  1
  Cu  Cu102  1  0.49931444  0.49960693  0.76043613  1
  Cu  Cu103  1  0.50202176  0.82887755  0.25515542  1
  Cu  Cu104  1  0.15453710  0.83320947  0.24585466  1
  Cu  Cu105  1  0.32819932  0.65724749  -0.00134869  1
  Cu  Cu106  1  0.00032452  0.32898607  0.49954958  1
  Cu  Cu107  1  0.33763381  0.67224707  0.50722109  1
  Cu  Cu108  1  0.17101310  0.82978051  0.75122573  1
  Cu  Cu109  1  -0.00287594  0.66124946  0.50732282  1
  Cu  Cu110  1  0.33063541  0.33774390  -0.00295608  1
  Cu  Cu111  1  -0.00228391  -0.00455709  -0.00497166  1
  Cu  Cu112  1  0.33217924  -0.00361070  -0.00344401  1
  Cu  Cu113  1  0.66763597  0.00452741  0.00257784  1
  Cu  Cu114  1  0.32948373  0.33510557  0.50584892  1
  Se  Se115  1  0.07335878  0.08312588  0.05435776  1
  Se  Se116  1  0.08013795  0.08190641  0.54965313  1
  Se  Se117  1  0.08735480  0.42153416  0.04665450  1
  Se  Se118  1  0.06817653  0.40843928  0.56812169  1
  Se  Se119  1  0.08320585  0.75641720  0.05233130  1
  Se  Se120  1  0.07060060  0.74439518  0.57006124  1
  Se  Se121  1  0.41925503  0.07472726  0.04936093  1
  Se  Se122  1  0.41825694  0.07788515  0.56923341  1
  Se  Se123  1  0.41550890  0.41777691  0.05230531  1
  Se  Se124  1  0.40845612  0.41622136  0.56628495  1
  Se  Se125  1  0.40711203  0.73994704  0.06052884  1
  Se  Se126  1  0.42540339  0.75591377  0.55329365  1
  Se  Se127  1  0.74178173  0.08367594  0.06572453  1
  Se  Se128  1  0.75297569  0.08519487  0.54841334  1
  Se  Se129  1  0.75939841  0.42771171  0.04836894  1
  Se  Se130  1  0.75323994  0.41922676  0.54680997  1
  Se  Se131  1  0.74150351  0.74822427  0.05959329  1
  Se  Se132  1  0.76014721  0.74704839  0.55206831  1
  Se  Se133  1  0.25192748  0.25473240  0.05881403  1
  Se  Se134  1  0.24535366  0.25133315  0.55644487  1
  Se  Se135  1  0.24402378  0.57599887  0.05319220  1
  Se  Se136  1  0.25764441  0.59303834  0.56568213  1
  Se  Se137  1  0.24362580  0.91408239  0.04378697  1
  Se  Se138  1  0.25471048  0.92673730  0.56152562  1
  Se  Se139  1  0.58995914  0.23836169  0.06321936  1
  Se  Se140  1  0.58992290  0.26032006  0.56223936  1
  Se  Se141  1  0.58061074  0.58351937  0.05059896  1
  Se  Se142  1  0.59362107  0.59096927  0.56097672  1
  Se  Se143  1  0.58966194  0.91365061  0.05687850  1
  Se  Se144  1  0.58518640  0.91999614  0.55175048  1
  Se  Se145  1  0.92570779  0.26418105  0.05264426  1
  Se  Se146  1  0.91165166  0.24554034  0.54858256  1
  Se  Se147  1  0.91854487  0.59001120  0.05086825  1
  Se  Se148  1  0.92127802  0.57157272  0.56129908  1
  Se  Se149  1  0.91455453  0.92455236  0.05893080  1
  Se  Se150  1  0.91921274  0.90687321  0.55800010  1
  Se  Se151  1  0.08818771  0.24824328  0.44857707  1
  Se  Se152  1  0.07728844  0.26192926  0.92807546  1
  Se  Se153  1  0.08132859  0.58605954  0.44640552  1
  Se  Se154  1  0.08276458  0.58027479  0.94220998  1
  Se  Se155  1  0.07910355  0.91928016  0.43858064  1
  Se  Se156  1  0.08303432  0.91351110  0.94425976  1
  Se  Se157  1  0.41511787  0.26260609  0.44315287  1
  Se  Se158  1  0.41615568  0.24989472  0.95125583  1
  Se  Se159  1  0.41261001  0.59115391  0.44422335  1
  Se  Se160  1  0.42101187  0.57979397  0.95000858  1
  Se  Se161  1  0.42074665  0.91902995  0.45418778  1
  Se  Se162  1  0.40789816  0.91614394  0.93249821  1
  Se  Se163  1  0.75397993  0.24612110  0.44572029  1
  Se  Se164  1  0.74445007  0.26046827  0.93821013  1
  Se  Se165  1  0.75091756  0.57917119  0.44449321  1
  Se  Se166  1  0.75981745  0.58840877  0.94686836  1
  Se  Se167  1  0.75655242  0.91058062  0.44788145  1
  Se  Se168  1  0.74416244  0.92660197  0.93826658  1
  Se  Se169  1  0.25402054  0.09034222  0.45042884  1
  Se  Se170  1  0.25585383  0.08020662  0.93587722  1
  Se  Se171  1  0.25385916  0.41627229  0.44281429  1
  Se  Se172  1  0.24419758  0.41504995  0.94106280  1
  Se  Se173  1  0.25518048  0.74799688  0.44542318  1
  Se  Se174  1  0.24969265  0.74686898  0.94715129  1
  Se  Se175  1  0.59070997  0.08160390  0.43875459  1
  Se  Se176  1  0.58008481  0.08329408  0.94986675  1
  Se  Se177  1  0.58810585  0.40902189  0.43618876  1
  Se  Se178  1  0.58738536  0.41632713  0.95854552  1
  Se  Se179  1  0.58418500  0.75016978  0.44734248  1
  Se  Se180  1  0.59096195  0.74234610  0.93455412  1
  Se  Se181  1  0.91596483  0.08110478  0.44771597  1
  Se  Se182  1  0.91540707  0.07615357  0.93765579  1
  Se  Se183  1  0.91890580  0.41717370  0.44828380  1
  Se  Se184  1  0.91267078  0.42598016  0.94073209  1
  Se  Se185  1  0.91908722  0.74382279  0.44831291  1
  Se  Se186  1  0.92603640  0.74657704  0.93461201  1
  Se  Se187  1  0.25602260  0.25087012  0.30254348  1
  Se  Se188  1  0.23568347  0.24529671  0.80448279  1
  Se  Se189  1  0.23973240  0.57736354  0.31328699  1
  Se  Se190  1  0.27558901  0.60416460  0.81066194  1
  Se  Se191  1  0.23972201  0.91052565  0.30550113  1
  Se  Se192  1  0.24912904  0.91070987  0.81279289  1
  Se  Se193  1  0.59028429  0.24973558  0.29453684  1
  Se  Se194  1  0.57478400  0.25062154  0.81705849  1
  Se  Se195  1  0.58261165  0.57777275  0.29921517  1
  Se  Se196  1  0.58588463  0.57579879  0.81752749  1
  Se  Se197  1  0.58210675  0.91390519  0.30912232  1
  Se  Se198  1  0.58864136  0.92939769  0.79351108  1
  Se  Se199  1  0.91669297  0.24400323  0.31522403  1
  Se  Se200  1  0.90731638  0.24477688  0.79854373  1
  Se  Se201  1  0.91335111  0.58480620  0.30077208  1
  Se  Se202  1  0.92954955  0.60269230  0.79539226  1
  Se  Se203  1  0.92002905  0.91787625  0.30518634  1
  Se  Se204  1  0.91481195  0.91234580  0.79485722  1
  Se  Se205  1  0.08883780  0.08470069  0.30460705  1
  Se  Se206  1  0.07368062  0.07495798  0.79796244  1
  Se  Se207  1  0.08770303  0.42410557  0.31082870  1
  Se  Se208  1  0.04882778  0.40106609  0.80142877  1
  Se  Se209  1  0.07581232  0.74501902  0.29848242  1
  Se  Se210  1  0.08804591  0.74686017  0.80485804  1
  Se  Se211  1  0.43037593  0.09585608  0.30689813  1
  Se  Se212  1  0.42145598  0.08919062  0.81397715  1
  Se  Se213  1  0.41495563  0.41370281  0.29732844  1
  Se  Se214  1  0.41675278  0.41441928  0.81173400  1
  Se  Se215  1  0.41603126  0.75374136  0.31430381  1
  Se  Se216  1  0.44510353  0.76936326  0.79954097  1
  Se  Se217  1  0.75204869  0.07862908  0.30787386  1
  Se  Se218  1  0.74249525  0.08739423  0.79963999  1
  Se  Se219  1  0.75147920  0.41052589  0.30009518  1
  Se  Se220  1  0.75688087  0.43222360  0.80638884  1
  Se  Se221  1  0.74957051  0.74787399  0.30793638  1
  Se  Se222  1  0.76059465  0.76425077  0.80451645  1
  Se  Se223  1  0.24725837  0.08830174  0.18382372  1
  Se  Se224  1  0.24033120  0.08708427  0.68769885  1
  Se  Se225  1  0.24781203  0.41654701  0.19944117  1
  Se  Se226  1  0.25229847  0.40470974  0.70608974  1
  Se  Se227  1  0.24283383  0.75604709  0.18898394  1
  Se  Se228  1  0.25486077  0.74715259  0.69868794  1
  Se  Se229  1  0.59448934  0.06035032  0.20318722  1
  Se  Se230  1  0.55794471  0.11834378  0.69533421  1
  Se  Se231  1  0.58722231  0.41561036  0.18735485  1
  Se  Se232  1  0.57566164  0.42268694  0.69486581  1
  Se  Se233  1  0.58654255  0.74485364  0.20417569  1
  Se  Se234  1  0.58510803  0.75545644  0.68431461  1
  Se  Se235  1  0.92455423  0.07987372  0.20133993  1
  Se  Se236  1  0.91445344  0.07993946  0.68912019  1
  Se  Se237  1  0.91057748  0.42106050  0.18565386  1
  Se  Se238  1  0.90986308  0.40817194  0.70017540  1
  Se  Se239  1  0.91223413  0.75132630  0.19583694  1
  Se  Se240  1  0.93134488  0.71894305  0.70191647  1
  Se  Se241  1  0.09114700  0.24336141  0.18883529  1
  Se  Se242  1  0.07478615  0.24600848  0.69259534  1
  Se  Se243  1  0.07688101  0.58556704  0.19280614  1
  Se  Se244  1  0.11850064  0.54499194  0.69619985  1
  Se  Se245  1  0.07798008  0.92186336  0.19218003  1
  Se  Se246  1  0.08349135  0.91191224  0.70043354  1
  Se  Se247  1  0.42068431  0.25166805  0.19291123  1
  Se  Se248  1  0.40476425  0.25328698  0.70755318  1
  Se  Se249  1  0.42225924  0.57792749  0.18660217  1
  Se  Se250  1  0.42010107  0.58389747  0.70300854  1
  Se  Se251  1  0.42292939  0.90695333  0.19165014  1
  Se  Se252  1  0.42186481  0.91407133  0.68731064  1
  Se  Se253  1  0.76120619  0.24253046  0.19718155  1
  Se  Se254  1  0.75079161  0.24817409  0.68323051  1
  Se  Se255  1  0.74514952  0.58379825  0.19326592  1
  Se  Se256  1  0.75375942  0.57507710  0.69276473  1
  Se  Se257  1  0.75039996  0.91738051  0.20271491  1
  Se  Se258  1  0.73512380  0.93162766  0.68924423  1
