# generated using pymatgen
data_In86Cu29Se144
_symmetry_space_group_name_H-M   'P 1'
_cell_length_a   17.57791947
_cell_length_b   17.57703876
_cell_length_c   23.43655639
_cell_angle_alpha   90.00646407
_cell_angle_beta   90.00990265
_cell_angle_gamma   90.00232323
_symmetry_Int_Tables_number   1
_chemical_formula_structural   In86Cu29Se144
_chemical_formula_sum   'In86 Cu29 Se144'
_cell_volume   7241.14044899
_cell_formula_units_Z   1
loop_
 _symmetry_equiv_pos_site_id
 _symmetry_equiv_pos_as_xyz
  1  'x, y, z'
loop_
 _atom_site_type_symbol
 _atom_site_label
 _atom_site_symmetry_multiplicity
 _atom_site_fract_x
 _atom_site_fract_y
 _atom_site_fract_z
 _atom_site_occupancy
  In  In0  1  0.00688659  0.16785918  0.13688822  1
  In  In1  1  -0.02649569  0.19343757  0.64948297  1
  In  In2  1  0.00160922  0.49956629  0.12395741  1
  In  In3  1  -0.00363234  0.50023770  0.62358155  1
  In  In4  1  0.00490268  0.81797397  0.13178200  1
  In  In5  1  -0.01005524  0.83866239  0.64169484  1
  In  In6  1  0.33784065  0.17329196  0.13390454  1
  In  In7  1  0.31933643  0.16346309  0.62394244  1
  In  In8  1  0.33694441  0.51175062  0.13045723  1
  In  In9  1  0.33416248  0.50683394  0.61264818  1
  In  In10  1  0.32602283  0.82907864  0.12214159  1
  In  In11  1  0.35065199  0.82863246  0.62613793  1
  In  In12  1  0.65692171  0.16445966  0.12615806  1
  In  In13  1  0.69100021  0.16829122  0.62601686  1
  In  In14  1  0.66130704  0.49634974  0.10742160  1
  In  In15  1  0.66665986  0.50071862  0.62925562  1
  In  In16  1  0.67084436  0.84194612  0.12141548  1
  In  In17  1  0.65100518  0.82817985  0.62507301  1
  In  In18  1  0.16163510  0.01266435  0.37037211  1
  In  In19  1  0.15912306  -0.01519649  0.87197864  1
  In  In20  1  0.17671129  0.34258016  0.36139218  1
  In  In21  1  0.16162971  0.34591035  0.87816542  1
  In  In22  1  0.15457211  0.65578627  0.36680785  1
  In  In23  1  0.16156862  0.66950828  0.88186798  1
  In  In24  1  0.49934036  -0.02015298  0.37230139  1
  In  In25  1  0.49065556  -0.00225042  0.87296046  1
  In  In26  1  0.50250081  0.35602334  0.36969798  1
  In  In27  1  0.51504100  0.34238963  0.87514259  1
  In  In28  1  0.49607611  0.66837889  0.37181311  1
  In  In29  1  0.52173668  0.64588672  0.89987321  1
  In  In30  1  0.84308146  0.00744404  0.37299793  1
  In  In31  1  0.83811230  -0.02085549  0.86609753  1
  In  In32  1  0.83877511  0.32874227  0.38401951  1
  In  In33  1  0.84044669  0.33820283  0.86822675  1
  In  In34  1  0.82954178  0.65204500  0.37703165  1
  In  In35  1  0.81893076  0.65607096  0.85380950  1
  In  In36  1  -0.00175403  0.16598836  0.36829662  1
  In  In37  1  -0.00673840  0.16253145  0.86364747  1
  In  In38  1  -0.00034230  0.50017581  0.37596438  1
  In  In39  1  -0.00124466  0.49970844  0.87350493  1
  In  In40  1  0.00369924  0.83780407  0.36856011  1
  In  In41  1  0.00207087  0.83020655  0.86776240  1
  In  In42  1  0.31953829  0.17937284  0.37028552  1
  In  In43  1  0.34832707  0.16011457  0.87511913  1
  In  In44  1  0.33371081  0.50193165  0.36673717  1
  In  In45  1  0.32799914  0.50619920  0.88477330  1
  In  In46  1  0.35590337  0.82166634  0.36599285  1
  In  In47  1  0.33430965  0.83205789  0.88232934  1
  In  In48  1  0.68441600  0.16936399  0.37914939  1
  In  In49  1  0.67079859  0.17572912  0.86581019  1
  In  In50  1  0.66900893  0.50196886  0.38450554  1
  In  In51  1  0.67118276  0.50507811  0.88041361  1
  In  In52  1  0.64805415  0.83176973  0.37109056  1
  In  In53  1  0.67134293  0.79663335  0.88006580  1
  In  In54  1  0.16709995  -0.01820291  0.12582885  1
  In  In55  1  0.16106177  0.00668345  0.62943298  1
  In  In56  1  0.15182584  0.34912022  0.13581668  1
  In  In57  1  0.15172297  0.33111016  0.62274070  1
  In  In58  1  0.16543927  0.66665755  0.12381985  1
  In  In59  1  0.16241671  0.65429649  0.62026535  1
  In  In60  1  0.50769158  0.00338156  0.12967537  1
  In  In61  1  0.50502485  -0.01922405  0.62684064  1
  In  In62  1  0.49382900  0.33747585  0.12922554  1
  In  In63  1  0.49829001  0.35347037  0.62558033  1
  In  In64  1  0.49563604  0.66125669  0.12109798  1
  In  In65  1  0.50421885  0.67035509  0.62304356  1
  In  In66  1  0.83223243  0.00258246  0.12898278  1
  In  In67  1  0.83577249  0.01278863  0.62363239  1
  In  In68  1  0.83756073  0.35154049  0.12241447  1
  In  In69  1  0.82888001  0.33532796  0.62808150  1
  In  In70  1  0.84103755  0.66406365  0.12213563  1
  In  In71  1  0.84741077  0.65369445  0.63764063  1
  In  In72  1  0.66959604  -0.00388692  0.74688281  1
  In  In73  1  0.66800101  0.66615519  0.24752924  1
  In  In74  1  0.33038209  0.33168503  0.74885714  1
  In  In75  1  0.50458168  0.16746064  0.49904045  1
  In  In76  1  0.83643464  0.17229725  -0.01149188  1
  In  In77  1  0.66964165  0.33549002  0.24303606  1
  In  In78  1  0.49955681  0.17491837  0.00724452  1
  In  In79  1  0.33355876  0.67108473  0.75637731  1
  In  In80  1  0.32905759  0.00110561  0.25317919  1
  In  In81  1  0.16683775  0.16866674  0.00848325  1
  In  In82  1  0.16102058  0.17175359  0.49364759  1
  In  In83  1  0.16954539  0.82792328  0.49768289  1
  In  In84  1  0.83433372  0.82245711  -0.00629982  1
  In  In85  1  0.82636140  0.82827676  0.50468638  1
  Cu  Cu86  1  0.83120716  0.83868083  0.24760859  1
  Cu  Cu87  1  0.33202604  0.66767238  0.00553701  1
  Cu  Cu88  1  0.32720666  -0.00435258  -0.00045301  1
  Cu  Cu89  1  0.34096467  -0.01035811  0.49966786  1
  Cu  Cu90  1  0.66760591  -0.00522587  0.50397673  1
  Cu  Cu91  1  0.83274884  0.49580742  0.74979510  1
  Cu  Cu92  1  -0.00141570  0.01453773  0.50143787  1
  Cu  Cu93  1  0.50651488  0.50481885  0.75461950  1
  Cu  Cu94  1  0.16617161  0.50719473  0.24674965  1
  Cu  Cu95  1  0.17356165  0.83172204  0.75573060  1
  Cu  Cu96  1  0.15515534  0.49509967  0.74686994  1
  Cu  Cu97  1  0.17030477  0.15914861  0.75285598  1
  Cu  Cu98  1  0.00166465  0.65871210  0.00033675  1
  Cu  Cu99  1  0.33337882  0.34654316  0.00637521  1
  Cu  Cu100  1  0.33505984  0.66055480  0.49344953  1
  Cu  Cu101  1  0.00255763  -0.01484930  -0.00233444  1
  Cu  Cu102  1  0.50414400  0.16748759  0.25215817  1
  Cu  Cu103  1  0.83655803  0.16519248  0.25349277  1
  Cu  Cu104  1  0.66017155  0.00310050  -0.00233675  1
  Cu  Cu105  1  0.33382084  0.34594595  0.49088068  1
  Cu  Cu106  1  -0.00507245  0.34025848  0.50259477  1
  Cu  Cu107  1  -0.00265467  0.33733371  -0.00105397  1
  Cu  Cu108  1  0.50226041  0.16576410  0.74991609  1
  Cu  Cu109  1  0.83979659  0.50004804  0.24999648  1
  Cu  Cu110  1  -0.00079103  0.66565110  0.50103677  1
  Cu  Cu111  1  0.66273164  0.65882832  0.50151840  1
  Cu  Cu112  1  0.50052901  0.82830061  0.75567528  1
  Cu  Cu113  1  0.66969568  0.33644350  0.50454887  1
  Cu  Cu114  1  0.16274894  0.83065703  0.24869001  1
  Se  Se115  1  0.07328087  0.07150514  0.05953977  1
  Se  Se116  1  0.07479856  0.09384854  0.56374902  1
  Se  Se117  1  0.08413066  0.41712230  0.05235766  1
  Se  Se118  1  0.08361137  0.42112106  0.55275663  1
  Se  Se119  1  0.08038919  0.74804464  0.05283067  1
  Se  Se120  1  0.07164156  0.75192517  0.56156254  1
  Se  Se121  1  0.40557727  0.07768386  0.06027251  1
  Se  Se122  1  0.41407131  0.07638024  0.56046927  1
  Se  Se123  1  0.41897637  0.42497985  0.06052189  1
  Se  Se124  1  0.41958984  0.42199269  0.54765896  1
  Se  Se125  1  0.41654250  0.75334268  0.05514754  1
  Se  Se126  1  0.41574959  0.74356808  0.55101488  1
  Se  Se127  1  0.74533725  0.08315455  0.05330599  1
  Se  Se128  1  0.75311608  0.08320166  0.54814042  1
  Se  Se129  1  0.75607008  0.41747309  0.04785442  1
  Se  Se130  1  0.75096091  0.42120016  0.55842971  1
  Se  Se131  1  0.74183925  0.74003780  0.05711218  1
  Se  Se132  1  0.74260490  0.73526457  0.56529346  1
  Se  Se133  1  0.25617094  0.26238696  0.06501310  1
  Se  Se134  1  0.25674310  0.26319215  0.55247471  1
  Se  Se135  1  0.24841052  0.58186843  0.05665981  1
  Se  Se136  1  0.24492848  0.58353133  0.54543861  1
  Se  Se137  1  0.24381012  0.90984823  0.04962266  1
  Se  Se138  1  0.25463910  0.91936340  0.56164415  1
  Se  Se139  1  0.59501178  0.26713434  0.05882473  1
  Se  Se140  1  0.58887565  0.25502129  0.56484456  1
  Se  Se141  1  0.58412121  0.59212302  0.04923092  1
  Se  Se142  1  0.57912087  0.57742516  0.55763051  1
  Se  Se143  1  0.58120942  0.92240508  0.05496919  1
  Se  Se144  1  0.57983005  0.90889986  0.54837193  1
  Se  Se145  1  0.92553037  0.24998317  0.05929280  1
  Se  Se146  1  0.91698507  0.25347775  0.55836489  1
  Se  Se147  1  0.91572567  0.57755211  0.05241398  1
  Se  Se148  1  0.91348792  0.58418033  0.55383652  1
  Se  Se149  1  0.91720918  0.91386647  0.06016726  1
  Se  Se150  1  0.92541973  0.92047725  0.55605136  1
  Se  Se151  1  0.07532510  0.26622570  0.43602304  1
  Se  Se152  1  0.07376694  0.24846158  0.94111158  1
  Se  Se153  1  0.08259189  0.58384892  0.44679531  1
  Se  Se154  1  0.08557959  0.57527994  0.94563295  1
  Se  Se155  1  0.07853909  0.92926604  0.44462998  1
  Se  Se156  1  0.08459674  0.90222835  0.94497117  1
  Se  Se157  1  0.41336847  0.25674095  0.43816768  1
  Se  Se158  1  0.40933381  0.26378225  0.94390096  1
  Se  Se159  1  0.41911387  0.57875124  0.43951702  1
  Se  Se160  1  0.41380850  0.57887188  0.95564183  1
  Se  Se161  1  0.41923434  0.90439133  0.44596178  1
  Se  Se162  1  0.41869038  0.91878964  0.94904996  1
  Se  Se163  1  0.75356941  0.25041426  0.45472586  1
  Se  Se164  1  0.73970289  0.26418670  0.94009319  1
  Se  Se165  1  0.75487801  0.57899827  0.45448361  1
  Se  Se166  1  0.74997760  0.60304956  0.94023174  1
  Se  Se167  1  0.74486430  0.91712703  0.43768099  1
  Se  Se168  1  0.74032528  0.91932702  0.93948842  1
  Se  Se169  1  0.26118620  0.07550097  0.44394606  1
  Se  Se170  1  0.25207438  0.08124117  0.94075876  1
  Se  Se171  1  0.24601899  0.42346598  0.43810396  1
  Se  Se172  1  0.24445547  0.41977385  0.95035278  1
  Se  Se173  1  0.25646216  0.74284911  0.43292947  1
  Se  Se174  1  0.24956869  0.74850019  0.94832895  1
  Se  Se175  1  0.58956976  0.07340956  0.43853651  1
  Se  Se176  1  0.58548632  0.08841287  0.93784304  1
  Se  Se177  1  0.58461761  0.41581421  0.44985550  1
  Se  Se178  1  0.57764856  0.42961572  0.94723908  1
  Se  Se179  1  0.58364344  0.74229555  0.44445926  1
  Se  Se180  1  0.56573582  0.76900250  0.95094059  1
  Se  Se181  1  0.91625970  0.09374194  0.44491463  1
  Se  Se182  1  0.92275309  0.06646649  0.93909509  1
  Se  Se183  1  0.91280651  0.42450972  0.44787572  1
  Se  Se184  1  0.91436770  0.41802075  0.94381943  1
  Se  Se185  1  0.92192682  0.74799198  0.44018544  1
  Se  Se186  1  0.92339986  0.73355811  0.93431141  1
  Se  Se187  1  0.23642421  0.24065404  0.29453763  1
  Se  Se188  1  0.24550429  0.24269878  0.81529797  1
  Se  Se189  1  0.25122267  0.58938174  0.29987635  1
  Se  Se190  1  0.23976474  0.57315413  0.80629450  1
  Se  Se191  1  0.24299784  0.90517227  0.31435761  1
  Se  Se192  1  0.25832495  0.91377760  0.80798894  1
  Se  Se193  1  0.58488035  0.24818076  0.31287685  1
  Se  Se194  1  0.58052254  0.25397753  0.80050726  1
  Se  Se195  1  0.58347056  0.57288648  0.30861561  1
  Se  Se196  1  0.58556787  0.58893124  0.80997493  1
  Se  Se197  1  0.58254987  0.91637028  0.29659579  1
  Se  Se198  1  0.58493052  0.90966071  0.81336546  1
  Se  Se199  1  0.91311550  0.25587789  0.30549089  1
  Se  Se200  1  0.90988435  0.24564861  0.79972635  1
  Se  Se201  1  0.91846947  0.58591153  0.30491924  1
  Se  Se202  1  0.92167430  0.58014098  0.79907814  1
  Se  Se203  1  0.91685181  0.91929523  0.30298944  1
  Se  Se204  1  0.92790632  0.91514725  0.79583846  1
  Se  Se205  1  0.07771743  0.08175678  0.29930620  1
  Se  Se206  1  0.08542562  0.07717584  0.80526854  1
  Se  Se207  1  0.08241979  0.42473978  0.30211729  1
  Se  Se208  1  0.07685777  0.41030203  0.80251499  1
  Se  Se209  1  0.07719135  0.74758668  0.30115136  1
  Se  Se210  1  0.08954230  0.74385914  0.80303219  1
  Se  Se211  1  0.42223074  0.09096590  0.31474552  1
  Se  Se212  1  0.41756678  0.08050260  0.79825240  1
  Se  Se213  1  0.40467882  0.40644750  0.29928560  1
  Se  Se214  1  0.41593850  0.42617635  0.80939341  1
  Se  Se215  1  0.41906971  0.73551081  0.29104775  1
  Se  Se216  1  0.42960959  0.74521380  0.82011514  1
  Se  Se217  1  0.75064082  0.08304997  0.30495871  1
  Se  Se218  1  0.76073931  0.08505658  0.80670939  1
  Se  Se219  1  0.75607106  0.42151200  0.30987882  1
  Se  Se220  1  0.74683736  0.41997384  0.80714099  1
  Se  Se221  1  0.75704595  0.75641827  0.31175179  1
  Se  Se222  1  0.76733446  0.77486077  0.80057159  1
  Se  Se223  1  0.23952480  0.08628643  0.18943100  1
  Se  Se224  1  0.25434420  0.07845159  0.69877303  1
  Se  Se225  1  0.25192306  0.42302716  0.19566717  1
  Se  Se226  1  0.24556423  0.42466404  0.68655927  1
  Se  Se227  1  0.24701794  0.75020441  0.19480664  1
  Se  Se228  1  0.24500566  0.75266848  0.68703017  1
  Se  Se229  1  0.58787206  0.08317399  0.20200296  1
  Se  Se230  1  0.58046121  0.08846672  0.68507454  1
  Se  Se231  1  0.57970059  0.43237344  0.19189676  1
  Se  Se232  1  0.58422083  0.41694577  0.70081367  1
  Se  Se233  1  0.58209078  0.75654912  0.18719599  1
  Se  Se234  1  0.58135424  0.74441847  0.70042036  1
  Se  Se235  1  0.91733495  0.08172440  0.19716895  1
  Se  Se236  1  0.93035472  0.06855296  0.69552112  1
  Se  Se237  1  0.92317130  0.41523087  0.19774041  1
  Se  Se238  1  0.91824809  0.41646863  0.69464469  1
  Se  Se239  1  0.90953020  0.74678480  0.19829386  1
  Se  Se240  1  0.91504601  0.74770170  0.70502793  1
  Se  Se241  1  0.08762992  0.25160750  0.20230858  1
  Se  Se242  1  0.09113694  0.25028694  0.70248644  1
  Se  Se243  1  0.07914821  0.58730153  0.19312773  1
  Se  Se244  1  0.07853033  0.58499054  0.69418242  1
  Se  Se245  1  0.07757763  0.91441101  0.19772665  1
  Se  Se246  1  0.09209233  0.91390511  0.69821856  1
  Se  Se247  1  0.42069606  0.25320114  0.20273109  1
  Se  Se248  1  0.42164806  0.24347338  0.68606306  1
  Se  Se249  1  0.41320219  0.59967569  0.20061176  1
  Se  Se250  1  0.41819356  0.57676884  0.69351434  1
  Se  Se251  1  0.41692299  0.91432046  0.19114510  1
  Se  Se252  1  0.41897075  0.91283547  0.70181533  1
  Se  Se253  1  0.76232384  0.24260286  0.18569747  1
  Se  Se254  1  0.75753577  0.24784106  0.70142013  1
  Se  Se255  1  0.75402264  0.57127174  0.18782728  1
  Se  Se256  1  0.74720839  0.58311501  0.70027438  1
  Se  Se257  1  0.74679029  0.92139423  0.19604742  1
  Se  Se258  1  0.75481045  0.90947401  0.68171422  1
