# generated using pymatgen
data_In86Cu29Se144
_symmetry_space_group_name_H-M   'P 1'
_cell_length_a   17.57494517
_cell_length_b   17.57788825
_cell_length_c   23.43736579
_cell_angle_alpha   90.00144021
_cell_angle_beta   90.01650908
_cell_angle_gamma   89.99264190
_symmetry_Int_Tables_number   1
_chemical_formula_structural   In86Cu29Se144
_chemical_formula_sum   'In86 Cu29 Se144'
_cell_volume   7240.51494482
_cell_formula_units_Z   1
loop_
 _symmetry_equiv_pos_site_id
 _symmetry_equiv_pos_as_xyz
  1  'x, y, z'
loop_
 _atom_site_type_symbol
 _atom_site_label
 _atom_site_symmetry_multiplicity
 _atom_site_fract_x
 _atom_site_fract_y
 _atom_site_fract_z
 _atom_site_occupancy
  In  In0  1  -0.01656236  0.18239412  0.12856343  1
  In  In1  1  -0.00639493  0.15306354  0.61825258  1
  In  In2  1  0.00476495  0.49966073  0.11685735  1
  In  In3  1  -0.00493604  0.49639192  0.62339332  1
  In  In4  1  0.00548311  0.82708837  0.13701851  1
  In  In5  1  0.02383828  0.83880393  0.61819275  1
  In  In6  1  0.35457735  0.16485963  0.11821180  1
  In  In7  1  0.33242960  0.17371902  0.62825864  1
  In  In8  1  0.33542682  0.50190654  0.13126110  1
  In  In9  1  0.34371370  0.48808017  0.63191750  1
  In  In10  1  0.32333402  0.82978649  0.10998474  1
  In  In11  1  0.31905284  0.84605502  0.63983767  1
  In  In12  1  0.66877407  0.16727161  0.12752077  1
  In  In13  1  0.67466938  0.15933761  0.61814129  1
  In  In14  1  0.64665848  0.47980098  0.12524783  1
  In  In15  1  0.65849538  0.51574020  0.62304027  1
  In  In16  1  0.67038901  0.84841976  0.13168697  1
  In  In17  1  0.65777741  0.83551970  0.62195859  1
  In  In18  1  0.16200547  0.01297675  0.38392452  1
  In  In19  1  0.15758465  -0.00206457  0.87454912  1
  In  In20  1  0.15891529  0.32570041  0.36347201  1
  In  In21  1  0.18000268  0.33008796  0.88051728  1
  In  In22  1  0.17382267  0.67480667  0.36977426  1
  In  In23  1  0.17831841  0.65971342  0.88298591  1
  In  In24  1  0.50152352  -0.00745266  0.37180136  1
  In  In25  1  0.46840749  0.01894445  0.90454319  1
  In  In26  1  0.50966135  0.34410428  0.36080093  1
  In  In27  1  0.49418924  0.33206403  0.88146190  1
  In  In28  1  0.48046946  0.66790970  0.36794546  1
  In  In29  1  0.48754970  0.67877394  0.88927131  1
  In  In30  1  0.84271221  0.00449015  0.36730369  1
  In  In31  1  0.84995664  0.00176150  0.87499412  1
  In  In32  1  0.82794541  0.31983603  0.36517933  1
  In  In33  1  0.84178514  0.32711705  0.90031938  1
  In  In34  1  0.83899065  0.65034433  0.36633900  1
  In  In35  1  0.82591512  0.66200147  0.88414168  1
  In  In36  1  0.00308619  0.16070450  0.36887306  1
  In  In37  1  0.00587292  0.15591036  0.88130353  1
  In  In38  1  -0.00232187  0.49641869  0.35838705  1
  In  In39  1  0.00795145  0.49047976  0.90141166  1
  In  In40  1  0.01405791  0.85447928  0.35340074  1
  In  In41  1  0.00343885  0.85487891  0.87783688  1
  In  In42  1  0.31767019  0.16844840  0.37343771  1
  In  In43  1  0.33743995  0.17438532  0.86618860  1
  In  In44  1  0.34154121  0.50472464  0.36208104  1
  In  In45  1  0.33611914  0.50086048  0.87986535  1
  In  In46  1  0.33563863  0.82510262  0.37457712  1
  In  In47  1  0.33396078  0.83526713  0.87867927  1
  In  In48  1  0.67251530  0.17188876  0.37248517  1
  In  In49  1  0.65779343  0.16856930  0.88350322  1
  In  In50  1  0.66625947  0.48866708  0.36724010  1
  In  In51  1  0.66515706  0.49473926  0.89253362  1
  In  In52  1  0.66157658  0.84401167  0.36384477  1
  In  In53  1  0.66351549  0.82617592  0.87929056  1
  In  In54  1  0.17316786  -0.01531501  0.11736637  1
  In  In55  1  0.16994636  -0.00200521  0.62376443  1
  In  In56  1  0.15208378  0.34892683  0.12800955  1
  In  In57  1  0.18472982  0.33189680  0.62741696  1
  In  In58  1  0.16978516  0.66726833  0.12454237  1
  In  In59  1  0.17184247  0.68333836  0.62282696  1
  In  In60  1  0.50456520  0.00861914  0.11167833  1
  In  In61  1  0.49962410  -0.00316768  0.62624776  1
  In  In62  1  0.50278404  0.33586906  0.13402637  1
  In  In63  1  0.48018916  0.33267246  0.62352912  1
  In  In64  1  0.47906360  0.64621527  0.12227076  1
  In  In65  1  0.49653024  0.65402400  0.62452622  1
  In  In66  1  0.82259506  0.00589982  0.13827664  1
  In  In67  1  0.83312416  0.01841284  0.62069265  1
  In  In68  1  0.83414622  0.32944936  0.11907857  1
  In  In69  1  0.84512631  0.32316004  0.62105914  1
  In  In70  1  0.85216133  0.67137368  0.13201314  1
  In  In71  1  0.82264130  0.66467249  0.62260285  1
  In  In72  1  0.65917820  0.33596745  0.76162899  1
  In  In73  1  0.49143561  0.83710621  0.50511026  1
  In  In74  1  0.83662418  0.83598715  0.00378638  1
  In  In75  1  0.16201675  0.17684990  0.00373855  1
  In  In76  1  0.65865413  -0.00062634  0.74729920  1
  In  In77  1  0.00663567  0.66904992  0.75037253  1
  In  In78  1  0.49879150  0.16972384  0.49987782  1
  In  In79  1  0.66141166  0.66696987  0.76235204  1
  In  In80  1  0.00903271  0.32434195  0.76278286  1
  In  In81  1  0.66447515  0.66380175  0.24201929  1
  In  In82  1  0.33369978  0.00107954  0.24562942  1
  In  In83  1  0.83996932  0.83852069  0.48002473  1
  In  In84  1  0.82852678  0.49055309  0.48570240  1
  In  In85  1  0.17031265  0.49358699  0.50075711  1
  Cu  Cu86  1  0.83613336  0.16878955  0.24859583  1
  Cu  Cu87  1  0.00451230  0.31549923  0.49440077  1
  Cu  Cu88  1  0.84614738  0.84025347  0.74596304  1
  Cu  Cu89  1  0.00879875  0.67439681  0.00767555  1
  Cu  Cu90  1  0.50917957  0.16632425  0.24600031  1
  Cu  Cu91  1  0.84214853  0.49867178  0.76378809  1
  Cu  Cu92  1  0.65106812  0.67388636  0.49762152  1
  Cu  Cu93  1  0.16278998  0.16267998  0.24495993  1
  Cu  Cu94  1  -0.00210716  0.00428007  0.00520249  1
  Cu  Cu95  1  0.16527030  0.50426444  0.24482636  1
  Cu  Cu96  1  0.49408703  0.49762280  0.75592079  1
  Cu  Cu97  1  0.17613975  0.50550143  0.75471447  1
  Cu  Cu98  1  0.65997529  0.32422058  0.00713661  1
  Cu  Cu99  1  0.83986486  0.49738755  0.23901718  1
  Cu  Cu100  1  0.66811846  0.66059159  0.01245246  1
  Cu  Cu101  1  0.33414722  0.33483091  0.49728961  1
  Cu  Cu102  1  0.00122714  -0.00176315  0.49328813  1
  Cu  Cu103  1  0.49754574  0.83498263  0.24262801  1
  Cu  Cu104  1  0.33328075  0.66427145  0.49617952  1
  Cu  Cu105  1  0.67007328  0.00357235  0.00606348  1
  Cu  Cu106  1  0.49228044  0.83343550  0.75970655  1
  Cu  Cu107  1  0.17104278  0.83786061  0.75129755  1
  Cu  Cu108  1  0.17138199  0.83268584  0.24640782  1
  Cu  Cu109  1  0.00374718  0.66363233  0.49254644  1
  Cu  Cu110  1  0.82966150  0.16394928  0.74941100  1
  Cu  Cu111  1  0.66495382  0.33812131  0.49141002  1
  Cu  Cu112  1  0.33655979  0.33968087  0.00426282  1
  Cu  Cu113  1  0.16564333  0.15914256  0.75000192  1
  Cu  Cu114  1  0.33207376  0.66338094  0.00212868  1
  Se  Se115  1  0.07740614  0.08394207  0.06602370  1
  Se  Se116  1  0.08384811  0.07681568  0.55240238  1
  Se  Se117  1  0.08528693  0.41871753  0.04565839  1
  Se  Se118  1  0.07441141  0.40105789  0.55836168  1
  Se  Se119  1  0.08810956  0.76106501  0.05960558  1
  Se  Se120  1  0.08652347  0.74633924  0.54570688  1
  Se  Se121  1  0.40604965  0.07076250  0.04374566  1
  Se  Se122  1  0.41082103  0.07811533  0.55902994  1
  Se  Se123  1  0.41948929  0.41731213  0.06259191  1
  Se  Se124  1  0.41633332  0.42104712  0.54895057  1
  Se  Se125  1  0.41935889  0.74576517  0.05289856  1
  Se  Se126  1  0.40496733  0.74402679  0.56389435  1
  Se  Se127  1  0.75558784  0.08425707  0.05905732  1
  Se  Se128  1  0.75276317  0.08541936  0.54499269  1
  Se  Se129  1  0.74198075  0.41345852  0.05607435  1
  Se  Se130  1  0.74488257  0.41400911  0.56216540  1
  Se  Se131  1  0.74906179  0.74669981  0.06599973  1
  Se  Se132  1  0.74344703  0.75145050  0.55012133  1
  Se  Se133  1  0.25640467  0.25952980  0.06579286  1
  Se  Se134  1  0.25305008  0.25050375  0.55136766  1
  Se  Se135  1  0.25160922  0.58006692  0.05812290  1
  Se  Se136  1  0.25728468  0.58484073  0.56213360  1
  Se  Se137  1  0.26035595  0.92698799  0.04143520  1
  Se  Se138  1  0.24219085  0.90198394  0.55794912  1
  Se  Se139  1  0.57517551  0.24513867  0.06273533  1
  Se  Se140  1  0.58989388  0.26297573  0.55998934  1
  Se  Se141  1  0.57883193  0.57702038  0.05782175  1
  Se  Se142  1  0.57442219  0.58203661  0.54699639  1
  Se  Se143  1  0.58950400  0.91307752  0.05333937  1
  Se  Se144  1  0.59415612  0.93163411  0.55111140  1
  Se  Se145  1  0.91341258  0.24902932  0.04657751  1
  Se  Se146  1  0.91463460  0.23918625  0.54789159  1
  Se  Se147  1  0.91900854  0.59206321  0.05422980  1
  Se  Se148  1  0.91706967  0.58648384  0.55108578  1
  Se  Se149  1  0.92011414  0.92388922  0.06765311  1
  Se  Se150  1  0.92004090  0.91833002  0.55732799  1
  Se  Se151  1  0.09170709  0.24010955  0.43922546  1
  Se  Se152  1  0.06998185  0.26510937  0.94229611  1
  Se  Se153  1  0.08078970  0.57761341  0.43489719  1
  Se  Se154  1  0.09092093  0.58823018  0.95511170  1
  Se  Se155  1  0.08184410  0.91163231  0.44109265  1
  Se  Se156  1  0.08465449  0.92189380  0.95460569  1
  Se  Se157  1  0.41527675  0.25810607  0.43422563  1
  Se  Se158  1  0.40802154  0.24897887  0.94754505  1
  Se  Se159  1  0.41396143  0.58094919  0.44231491  1
  Se  Se160  1  0.41904212  0.57874617  0.95229219  1
  Se  Se161  1  0.40463063  0.92674682  0.44248933  1
  Se  Se162  1  0.44404611  0.88559824  0.94330922  1
  Se  Se163  1  0.75212633  0.25292278  0.44599479  1
  Se  Se164  1  0.74517877  0.24237327  0.95374391  1
  Se  Se165  1  0.73568163  0.59315890  0.43876865  1
  Se  Se166  1  0.75158435  0.58071264  0.95639953  1
  Se  Se167  1  0.73941952  0.92961501  0.43538955  1
  Se  Se168  1  0.74749969  0.92655469  0.94033349  1
  Se  Se169  1  0.25738723  0.08263194  0.44902160  1
  Se  Se170  1  0.24434716  0.09220126  0.93576205  1
  Se  Se171  1  0.25406581  0.41077306  0.43286176  1
  Se  Se172  1  0.25075009  0.41928140  0.94984227  1
  Se  Se173  1  0.25004305  0.75030375  0.44655863  1
  Se  Se174  1  0.25173733  0.75209583  0.94996657  1
  Se  Se175  1  0.58671219  0.07993481  0.43846462  1
  Se  Se176  1  0.58180890  0.08557352  0.95548990  1
  Se  Se177  1  0.57995955  0.42054202  0.44147743  1
  Se  Se178  1  0.57752083  0.40935001  0.95341213  1
  Se  Se179  1  0.57791160  0.75261666  0.43400093  1
  Se  Se180  1  0.59268205  0.74283716  0.95219816  1
  Se  Se181  1  0.91911303  0.08258453  0.44160241  1
  Se  Se182  1  0.91424267  0.08618735  0.95176245  1
  Se  Se183  1  0.92930409  0.40351534  0.43476459  1
  Se  Se184  1  0.89839050  0.43526622  0.95911678  1
  Se  Se185  1  0.92830679  0.74095221  0.42780900  1
  Se  Se186  1  0.92863132  0.74825141  0.94077556  1
  Se  Se187  1  0.24851938  0.24687046  0.29575964  1
  Se  Se188  1  0.24293073  0.25018207  0.80100215  1
  Se  Se189  1  0.24810763  0.58618423  0.30079616  1
  Se  Se190  1  0.25871746  0.58769943  0.80749697  1
  Se  Se191  1  0.24595268  0.91542535  0.31049025  1
  Se  Se192  1  0.24998940  0.91925097  0.81028494  1
  Se  Se193  1  0.59125344  0.25040791  0.30048763  1
  Se  Se194  1  0.56832580  0.23626703  0.80850099  1
  Se  Se195  1  0.57584235  0.58070596  0.30748698  1
  Se  Se196  1  0.57506700  0.57460004  0.82022249  1
  Se  Se197  1  0.57816196  0.92226755  0.29325161  1
  Se  Se198  1  0.57796929  0.91276086  0.81458560  1
  Se  Se199  1  0.92437574  0.24943842  0.30091666  1
  Se  Se200  1  0.90454690  0.24221558  0.81582150  1
  Se  Se201  1  0.92167196  0.58475117  0.28976313  1
  Se  Se202  1  0.92336359  0.58056911  0.81946899  1
  Se  Se203  1  0.90262744  0.90797834  0.29635173  1
  Se  Se204  1  0.92567818  0.92484457  0.79904199  1
  Se  Se205  1  0.08695343  0.07528872  0.30100854  1
  Se  Se206  1  0.07758048  0.08201955  0.80297195  1
  Se  Se207  1  0.08345264  0.41398048  0.29403804  1
  Se  Se208  1  0.09052282  0.42998010  0.81478780  1
  Se  Se209  1  0.08632717  0.74797698  0.29831227  1
  Se  Se210  1  0.08957596  0.75885178  0.81514862  1
  Se  Se211  1  0.42303578  0.09196266  0.30775826  1
  Se  Se212  1  0.41661884  0.07319024  0.81124774  1
  Se  Se213  1  0.40466392  0.40368559  0.29937789  1
  Se  Se214  1  0.41388009  0.41282993  0.80971628  1
  Se  Se215  1  0.41100187  0.75503531  0.29533019  1
  Se  Se216  1  0.41180207  0.74411887  0.80795198  1
  Se  Se217  1  0.75246081  0.08721329  0.30365637  1
  Se  Se218  1  0.75058514  0.08579716  0.81179363  1
  Se  Se219  1  0.76000114  0.41950903  0.30042174  1
  Se  Se220  1  0.75881644  0.41811239  0.82022893  1
  Se  Se221  1  0.75154857  0.74856334  0.30881968  1
  Se  Se222  1  0.76683613  0.76086267  0.80764800  1
  Se  Se223  1  0.24657994  0.09007105  0.18220759  1
  Se  Se224  1  0.25106031  0.08334506  0.69260846  1
  Se  Se225  1  0.24770767  0.41588289  0.19612384  1
  Se  Se226  1  0.25315578  0.41586347  0.70193213  1
  Se  Se227  1  0.25567123  0.75416465  0.19056582  1
  Se  Se228  1  0.25049708  0.74463803  0.70412872  1
  Se  Se229  1  0.58327211  0.07671917  0.19107291  1
  Se  Se230  1  0.57545306  0.09868988  0.68944852  1
  Se  Se231  1  0.58004632  0.41454372  0.20904371  1
  Se  Se232  1  0.57802908  0.42560041  0.69229345  1
  Se  Se233  1  0.57249491  0.75146477  0.18197471  1
  Se  Se234  1  0.57462908  0.75506881  0.69626921  1
  Se  Se235  1  0.92120915  0.08404416  0.19745715  1
  Se  Se236  1  0.91669348  0.08321552  0.69797676  1
  Se  Se237  1  0.92129680  0.41453560  0.18534001  1
  Se  Se238  1  0.91385501  0.41609674  0.69946384  1
  Se  Se239  1  0.91134594  0.76058902  0.20577423  1
  Se  Se240  1  0.91594280  0.75304270  0.68302077  1
  Se  Se241  1  0.08214579  0.25110852  0.19395590  1
  Se  Se242  1  0.08590215  0.24341542  0.68785367  1
  Se  Se243  1  0.08072976  0.58526248  0.18993364  1
  Se  Se244  1  0.09330957  0.57436756  0.68748485  1
  Se  Se245  1  0.09061748  0.92133862  0.19607153  1
  Se  Se246  1  0.08573216  0.91858467  0.69772596  1
  Se  Se247  1  0.41744922  0.24543377  0.19784080  1
  Se  Se248  1  0.41175320  0.25548624  0.69903323  1
  Se  Se249  1  0.41206532  0.58207368  0.20580325  1
  Se  Se250  1  0.41570751  0.58331539  0.69968076  1
  Se  Se251  1  0.41838540  0.91445600  0.18045681  1
  Se  Se252  1  0.42052203  0.91935725  0.69910250  1
  Se  Se253  1  0.75333971  0.25195768  0.19419218  1
  Se  Se254  1  0.75190730  0.24949290  0.69389221  1
  Se  Se255  1  0.75298988  0.57368114  0.18123116  1
  Se  Se256  1  0.75721513  0.57450074  0.70147419  1
  Se  Se257  1  0.75302659  0.91295703  0.20699037  1
  Se  Se258  1  0.75626109  0.91081394  0.68734907  1
