# generated using pymatgen
data_In86Cu29Se144
_symmetry_space_group_name_H-M   'P 1'
_cell_length_a   17.58412672
_cell_length_b   17.57708690
_cell_length_c   23.44366181
_cell_angle_alpha   89.99827476
_cell_angle_beta   90.00090107
_cell_angle_gamma   90.00171813
_symmetry_Int_Tables_number   1
_chemical_formula_structural   In86Cu29Se144
_chemical_formula_sum   'In86 Cu29 Se144'
_cell_volume   7245.91361041
_cell_formula_units_Z   1
loop_
 _symmetry_equiv_pos_site_id
 _symmetry_equiv_pos_as_xyz
  1  'x, y, z'
loop_
 _atom_site_type_symbol
 _atom_site_label
 _atom_site_symmetry_multiplicity
 _atom_site_fract_x
 _atom_site_fract_y
 _atom_site_fract_z
 _atom_site_occupancy
  In  In0  1  0.00437184  0.15765856  0.12144924  1
  In  In1  1  -0.00290189  0.18727804  0.62588294  1
  In  In2  1  0.01370028  0.51227253  0.11629719  1
  In  In3  1  0.01151227  0.49928152  0.64080888  1
  In  In4  1  -0.00729746  0.83210442  0.12052560  1
  In  In5  1  -0.00323091  0.82555309  0.62459632  1
  In  In6  1  0.33507466  0.16957321  0.11972612  1
  In  In7  1  0.33977298  0.15669841  0.62098294  1
  In  In8  1  0.34256549  0.51092028  0.11643518  1
  In  In9  1  0.33563222  0.50599845  0.62557322  1
  In  In10  1  0.32913499  0.81026858  0.12185391  1
  In  In11  1  0.32182538  0.82328124  0.62042545  1
  In  In12  1  0.66693952  0.18434667  0.12518066  1
  In  In13  1  0.66698911  0.17048419  0.62894813  1
  In  In14  1  0.65546737  0.48985458  0.11504228  1
  In  In15  1  0.65566272  0.50488053  0.64005876  1
  In  In16  1  0.66819311  0.83230907  0.11295752  1
  In  In17  1  0.67737592  0.82189960  0.63376120  1
  In  In18  1  0.15173047  -0.00489641  0.37637520  1
  In  In19  1  0.17988232  -0.00021453  0.87482180  1
  In  In20  1  0.18401711  0.34491275  0.37845131  1
  In  In21  1  0.15424069  0.34844537  0.88066823  1
  In  In22  1  0.16380776  0.66663855  0.37877790  1
  In  In23  1  0.15322626  0.63745945  0.84484838  1
  In  In24  1  0.51076625  0.00357065  0.37656515  1
  In  In25  1  0.50424684  -0.00981096  0.88098143  1
  In  In26  1  0.49731794  0.33230885  0.38804494  1
  In  In27  1  0.50413987  0.32815107  0.87829712  1
  In  In28  1  0.48416643  0.66233990  0.37275643  1
  In  In29  1  0.50506590  0.66311549  0.87269301  1
  In  In30  1  0.84086616  -0.00354523  0.38677890  1
  In  In31  1  0.81951583  -0.00083766  0.87265948  1
  In  In32  1  0.81740649  0.33704250  0.37716038  1
  In  In33  1  0.84199365  0.34671243  0.86921566  1
  In  In34  1  0.84863924  0.66496666  0.37706940  1
  In  In35  1  0.83010498  0.66454479  0.87585571  1
  In  In36  1  -0.00193788  0.15586223  0.37950273  1
  In  In37  1  -0.00085949  0.18477017  0.87478287  1
  In  In38  1  0.00498786  0.52096646  0.37196387  1
  In  In39  1  -0.00192492  0.49918790  0.87324003  1
  In  In40  1  0.01401253  0.81719429  0.39409953  1
  In  In41  1  0.00626304  0.80541484  0.86822520  1
  In  In42  1  0.33925277  0.18385733  0.37665669  1
  In  In43  1  0.33203426  0.16989829  0.88264537  1
  In  In44  1  0.32318656  0.50109326  0.38970247  1
  In  In45  1  0.33097382  0.50519590  0.87358404  1
  In  In46  1  0.32543801  0.81119328  0.36772616  1
  In  In47  1  0.33682400  0.82844525  0.87401536  1
  In  In48  1  0.65449218  0.17843585  0.38702953  1
  In  In49  1  0.66042284  0.15791445  0.86953237  1
  In  In50  1  0.66393061  0.48652985  0.37437427  1
  In  In51  1  0.66376937  0.50472425  0.87247741  1
  In  In52  1  0.67013933  0.84157435  0.37981855  1
  In  In53  1  0.66539015  0.83156040  0.87529643  1
  In  In54  1  0.15850876  0.00180651  0.12294737  1
  In  In55  1  0.18030718  -0.00528040  0.62233642  1
  In  In56  1  0.16628412  0.33595648  0.11815552  1
  In  In57  1  0.15879957  0.33731827  0.62863457  1
  In  In58  1  0.18130249  0.66010767  0.13412493  1
  In  In59  1  0.16870653  0.66771330  0.63188081  1
  In  In60  1  0.50563875  0.00421460  0.11547352  1
  In  In61  1  0.50386036  0.01253388  0.62568665  1
  In  In62  1  0.51345345  0.34830860  0.11378640  1
  In  In63  1  0.51071954  0.35361154  0.61505727  1
  In  In64  1  0.48434116  0.65170064  0.11158598  1
  In  In65  1  0.50256916  0.64946628  0.64114997  1
  In  In66  1  0.84325704  -0.00727438  0.11971288  1
  In  In67  1  0.82388633  -0.00761293  0.62412587  1
  In  In68  1  0.81497715  0.33392534  0.12650126  1
  In  In69  1  0.83795764  0.33240086  0.62933116  1
  In  In70  1  0.83956720  0.67046605  0.11444734  1
  In  In71  1  0.82865065  0.66918450  0.63037680  1
  In  In72  1  0.66895163  0.00229540  0.25439772  1
  In  In73  1  0.17049044  0.82752435  -0.00530558  1
  In  In74  1  -0.00082767  -0.00099151  0.74226160  1
  In  In75  1  0.33994373  -0.00910407  0.75244208  1
  In  In76  1  0.83356503  0.16703777  0.00193828  1
  In  In77  1  0.16514031  0.16613116  0.49797016  1
  In  In78  1  0.33553092  0.33762586  0.25372845  1
  In  In79  1  0.66302138  0.66173103  0.24649932  1
  In  In80  1  0.32999325  -0.00570902  0.24955888  1
  In  In81  1  0.33711140  0.33886315  0.74494181  1
  In  In82  1  0.83300225  0.50070934  0.49989255  1
  In  In83  1  0.50132044  0.83354761  0.49725498  1
  In  In84  1  -0.00171535  0.33464223  0.24051139  1
  In  In85  1  -0.00052356  -0.00626279  0.24700351  1
  Cu  Cu86  1  0.33057138  0.66374579  0.50236503  1
  Cu  Cu87  1  0.83850912  0.82596308  0.24794165  1
  Cu  Cu88  1  0.16991018  0.50502562  0.25237520  1
  Cu  Cu89  1  0.00212952  -0.00375117  -0.00175077  1
  Cu  Cu90  1  -0.00604835  -0.00096360  0.50685362  1
  Cu  Cu91  1  0.16436362  0.17399649  0.75359358  1
  Cu  Cu92  1  0.82738064  0.17504858  0.75153545  1
  Cu  Cu93  1  0.66500960  0.33194575  0.50433195  1
  Cu  Cu94  1  0.66826773  0.33519574  -0.00544798  1
  Cu  Cu95  1  0.50877808  0.83563892  0.75278662  1
  Cu  Cu96  1  0.00455827  0.66061998  -0.00724888  1
  Cu  Cu97  1  0.83088992  0.50201214  0.75241732  1
  Cu  Cu98  1  0.83243783  0.50521283  0.25047019  1
  Cu  Cu99  1  0.33292361  0.33481528  -0.00222130  1
  Cu  Cu100  1  0.00359605  0.33804448  -0.00244387  1
  Cu  Cu101  1  0.00029268  0.34207778  0.50380947  1
  Cu  Cu102  1  0.83081524  0.83404652  0.75248326  1
  Cu  Cu103  1  0.33614874  -0.00353025  0.49749714  1
  Cu  Cu104  1  0.49322644  0.82363065  0.24121015  1
  Cu  Cu105  1  0.00499624  0.66560464  0.50485635  1
  Cu  Cu106  1  0.32932689  0.66250777  -0.00811599  1
  Cu  Cu107  1  0.66301819  -0.00192832  -0.00563598  1
  Cu  Cu108  1  0.50657784  0.16891858  0.75080894  1
  Cu  Cu109  1  0.66154646  0.66049389  0.51053569  1
  Cu  Cu110  1  0.67165284  0.00254728  0.50404062  1
  Cu  Cu111  1  0.66779299  0.66705139  -0.00569340  1
  Cu  Cu112  1  0.33612131  0.00403724  -0.00071775  1
  Cu  Cu113  1  0.82550887  0.17266649  0.25580880  1
  Cu  Cu114  1  0.50271443  0.17946257  0.25433171  1
  Se  Se115  1  0.08489124  0.08233294  0.04794827  1
  Se  Se116  1  0.07677682  0.08021308  0.56548142  1
  Se  Se117  1  0.08916979  0.42160007  0.04917420  1
  Se  Se118  1  0.08018887  0.42294090  0.55943694  1
  Se  Se119  1  0.08209257  0.74044689  0.05768553  1
  Se  Se120  1  0.08823174  0.75001596  0.55803630  1
  Se  Se121  1  0.41933662  0.08835446  0.05179429  1
  Se  Se122  1  0.42036796  0.07908526  0.54853434  1
  Se  Se123  1  0.41726976  0.41977700  0.04923891  1
  Se  Se124  1  0.40127410  0.41041498  0.55662319  1
  Se  Se125  1  0.41298369  0.74779742  0.04446191  1
  Se  Se126  1  0.42011302  0.74020882  0.56024322  1
  Se  Se127  1  0.74036300  0.07580498  0.06147227  1
  Se  Se128  1  0.75141688  0.08792574  0.55881416  1
  Se  Se129  1  0.75225199  0.41701409  0.04878492  1
  Se  Se130  1  0.74275945  0.41749472  0.56373687  1
  Se  Se131  1  0.75337661  0.75109933  0.04708635  1
  Se  Se132  1  0.74917013  0.74629329  0.55492326  1
  Se  Se133  1  0.25024779  0.25121067  0.05245961  1
  Se  Se134  1  0.25034215  0.25084235  0.56333283  1
  Se  Se135  1  0.24619675  0.58499256  0.05202351  1
  Se  Se136  1  0.24615808  0.58486238  0.55862271  1
  Se  Se137  1  0.25638763  0.92030430  0.05931012  1
  Se  Se138  1  0.25236780  0.91286959  0.54818123  1
  Se  Se139  1  0.58512624  0.25010176  0.04829093  1
  Se  Se140  1  0.58108201  0.24806087  0.55754578  1
  Se  Se141  1  0.58368182  0.58310648  0.04783001  1
  Se  Se142  1  0.57849517  0.57811580  0.56173954  1
  Se  Se143  1  0.58006167  0.91384633  0.04842696  1
  Se  Se144  1  0.59113103  0.91777077  0.56215333  1
  Se  Se145  1  0.92350677  0.26022224  0.06207645  1
  Se  Se146  1  0.91383302  0.25692224  0.55090479  1
  Se  Se147  1  0.91909462  0.58105593  0.04827158  1
  Se  Se148  1  0.92306967  0.58460974  0.56375017  1
  Se  Se149  1  0.91575506  0.91157670  0.04591601  1
  Se  Se150  1  0.91336713  0.91254858  0.55901847  1
  Se  Se151  1  0.07676803  0.26141232  0.43845293  1
  Se  Se152  1  0.08667180  0.24983594  0.94884804  1
  Se  Se153  1  0.08663194  0.58059077  0.45125503  1
  Se  Se154  1  0.09032024  0.58323380  0.93646996  1
  Se  Se155  1  0.08363287  0.91938466  0.45553824  1
  Se  Se156  1  0.07726765  0.91650678  0.93334950  1
  Se  Se157  1  0.41972930  0.24301099  0.45447384  1
  Se  Se158  1  0.41881268  0.24975482  0.94859499  1
  Se  Se159  1  0.41861135  0.58298856  0.45104424  1
  Se  Se160  1  0.41946654  0.58187324  0.94254120  1
  Se  Se161  1  0.40923163  0.91671578  0.43144676  1
  Se  Se162  1  0.41085533  0.91430449  0.94548145  1
  Se  Se163  1  0.75171919  0.25091046  0.45191048  1
  Se  Se164  1  0.74950388  0.25280417  0.93581059  1
  Se  Se165  1  0.74150809  0.59044150  0.43966868  1
  Se  Se166  1  0.75097026  0.57933384  0.94548026  1
  Se  Se167  1  0.75227947  0.91478066  0.45207576  1
  Se  Se168  1  0.75025842  0.91476167  0.94619420  1
  Se  Se169  1  0.25605537  0.07649608  0.43554880  1
  Se  Se170  1  0.24764647  0.08445231  0.94884002  1
  Se  Se171  1  0.25660364  0.40700289  0.45943740  1
  Se  Se172  1  0.25219931  0.42030314  0.94375398  1
  Se  Se173  1  0.24891093  0.74905704  0.44904450  1
  Se  Se174  1  0.24425921  0.73277502  0.92875494  1
  Se  Se175  1  0.58259173  0.08161184  0.45212517  1
  Se  Se176  1  0.58040178  0.08580821  0.94563984  1
  Se  Se177  1  0.58418586  0.41974937  0.45228405  1
  Se  Se178  1  0.58376157  0.41924014  0.94332987  1
  Se  Se179  1  0.59039037  0.73803276  0.43922416  1
  Se  Se180  1  0.58106037  0.75107091  0.94463389  1
  Se  Se181  1  0.91510301  0.08775955  0.45481477  1
  Se  Se182  1  0.92243391  0.07863486  0.93742655  1
  Se  Se183  1  0.92446576  0.41615734  0.43493338  1
  Se  Se184  1  0.91655851  0.41962037  0.94717265  1
  Se  Se185  1  0.91249220  0.74672426  0.45571869  1
  Se  Se186  1  0.91888438  0.74673302  0.94451779  1
  Se  Se187  1  0.23847861  0.24278172  0.30551491  1
  Se  Se188  1  0.24771439  0.25202306  0.81157915  1
  Se  Se189  1  0.25079892  0.58101930  0.31331229  1
  Se  Se190  1  0.27701037  0.59449900  0.79369978  1
  Se  Se191  1  0.23684153  0.90784155  0.30852859  1
  Se  Se192  1  0.23989019  0.90212676  0.80309539  1
  Se  Se193  1  0.58222001  0.25931746  0.31218917  1
  Se  Se194  1  0.58721938  0.25328226  0.80453692  1
  Se  Se195  1  0.57553108  0.57458312  0.30866379  1
  Se  Se196  1  0.59521106  0.59500467  0.80125435  1
  Se  Se197  1  0.57254072  0.90248244  0.30324609  1
  Se  Se198  1  0.58782290  0.92206268  0.80558591  1
  Se  Se199  1  0.91404898  0.24869872  0.31164535  1
  Se  Se200  1  0.91717509  0.25514923  0.80075342  1
  Se  Se201  1  0.91866316  0.58942911  0.29800897  1
  Se  Se202  1  0.91454790  0.58478350  0.80593983  1
  Se  Se203  1  0.91180405  0.90848830  0.31148750  1
  Se  Se204  1  0.91612221  0.91239022  0.81093639  1
  Se  Se205  1  0.08875946  0.09191664  0.30309291  1
  Se  Se206  1  0.08642709  0.08704116  0.81024920  1
  Se  Se207  1  0.08774974  0.41990787  0.30798072  1
  Se  Se208  1  0.07908637  0.41624792  0.80311388  1
  Se  Se209  1  0.07355483  0.74488893  0.31212589  1
  Se  Se210  1  0.08185037  0.74223529  0.78813370  1
  Se  Se211  1  0.42356228  0.08983949  0.30736431  1
  Se  Se212  1  0.42257141  0.08969813  0.81039354  1
  Se  Se213  1  0.41896715  0.42454117  0.31815406  1
  Se  Se214  1  0.42624935  0.42122001  0.80958941  1
  Se  Se215  1  0.41262264  0.74103597  0.29565407  1
  Se  Se216  1  0.42439215  0.75391632  0.80548488  1
  Se  Se217  1  0.75462139  0.08911442  0.31889729  1
  Se  Se218  1  0.74914808  0.08327291  0.79961990  1
  Se  Se219  1  0.75049360  0.41848689  0.30005892  1
  Se  Se220  1  0.74640474  0.41752466  0.80406853  1
  Se  Se221  1  0.75293928  0.75336433  0.30933060  1
  Se  Se222  1  0.74893345  0.74976591  0.80640296  1
  Se  Se223  1  0.24484616  0.08913490  0.19046191  1
  Se  Se224  1  0.24610607  0.09021011  0.69760484  1
  Se  Se225  1  0.24602132  0.42404285  0.19008136  1
  Se  Se226  1  0.23812184  0.42861253  0.69550480  1
  Se  Se227  1  0.24926011  0.75387851  0.20172978  1
  Se  Se228  1  0.25729410  0.74814846  0.69921680  1
  Se  Se229  1  0.57829994  0.09286931  0.19402009  1
  Se  Se230  1  0.58846105  0.08188332  0.69921594  1
  Se  Se231  1  0.58520987  0.41645038  0.19401091  1
  Se  Se232  1  0.57250411  0.41544599  0.70186010  1
  Se  Se233  1  0.57853035  0.75044502  0.18116525  1
  Se  Se234  1  0.58537823  0.74571126  0.69889880  1
  Se  Se235  1  0.90357234  0.09254836  0.19421118  1
  Se  Se236  1  0.90786947  0.09513619  0.68933410  1
  Se  Se237  1  0.90980836  0.42798467  0.18387537  1
  Se  Se238  1  0.91516008  0.41834940  0.69901251  1
  Se  Se239  1  0.91859580  0.74543908  0.19138168  1
  Se  Se240  1  0.91345049  0.75205227  0.69797678  1
  Se  Se241  1  0.09235762  0.24030253  0.19003579  1
  Se  Se242  1  0.08017394  0.25572725  0.70110469  1
  Se  Se243  1  0.08400845  0.58389701  0.19735673  1
  Se  Se244  1  0.07435791  0.60196048  0.70419484  1
  Se  Se245  1  0.09202725  0.90230698  0.19070290  1
  Se  Se246  1  0.09519612  0.91021350  0.68951247  1
  Se  Se247  1  0.42456653  0.25255516  0.18871664  1
  Se  Se248  1  0.42356838  0.24118619  0.68887526  1
  Se  Se249  1  0.41619271  0.58367410  0.19389412  1
  Se  Se250  1  0.39762228  0.59002577  0.70499692  1
  Se  Se251  1  0.42150480  0.91308558  0.18356427  1
  Se  Se252  1  0.42710950  0.90644780  0.68541172  1
  Se  Se253  1  0.74259491  0.25555947  0.20353107  1
  Se  Se254  1  0.74566047  0.25890993  0.69710662  1
  Se  Se255  1  0.75436010  0.57880673  0.18319537  1
  Se  Se256  1  0.74808812  0.58709494  0.70033824  1
  Se  Se257  1  0.75649457  0.90961184  0.19176541  1
  Se  Se258  1  0.74701319  0.91848979  0.70088966  1
