# generated using pymatgen
data_In86Cu29Se144
_symmetry_space_group_name_H-M   'P 1'
_cell_length_a   17.58276167
_cell_length_b   17.57899154
_cell_length_c   23.42980911
_cell_angle_alpha   90.00204780
_cell_angle_beta   89.97600152
_cell_angle_gamma   89.99201967
_symmetry_Int_Tables_number   1
_chemical_formula_structural   In86Cu29Se144
_chemical_formula_sum   'In86 Cu29 Se144'
_cell_volume   7241.85382177
_cell_formula_units_Z   1
loop_
 _symmetry_equiv_pos_site_id
 _symmetry_equiv_pos_as_xyz
  1  'x, y, z'
loop_
 _atom_site_type_symbol
 _atom_site_label
 _atom_site_symmetry_multiplicity
 _atom_site_fract_x
 _atom_site_fract_y
 _atom_site_fract_z
 _atom_site_occupancy
  In  In0  1  0.01295393  0.16173362  0.12467082  1
  In  In1  1  -0.00297727  0.19408790  0.63168773  1
  In  In2  1  -0.01203831  0.49818544  0.13221595  1
  In  In3  1  0.00470875  0.50014223  0.62278306  1
  In  In4  1  0.00071870  0.84344373  0.12009511  1
  In  In5  1  -0.00713814  0.82532922  0.62101046  1
  In  In6  1  0.32874483  0.16369052  0.11833068  1
  In  In7  1  0.34519158  0.17038211  0.63367394  1
  In  In8  1  0.35187223  0.49875253  0.12602931  1
  In  In9  1  0.33085332  0.50536351  0.62474363  1
  In  In10  1  0.35835611  0.81772267  0.14526350  1
  In  In11  1  0.31651043  0.82151123  0.62187333  1
  In  In12  1  0.66204301  0.17996607  0.12132143  1
  In  In13  1  0.66825852  0.18040378  0.61432640  1
  In  In14  1  0.66101535  0.51145791  0.12907252  1
  In  In15  1  0.65945127  0.50595011  0.61452160  1
  In  In16  1  0.64853194  0.81643223  0.11423818  1
  In  In17  1  0.66647556  0.81140858  0.61793428  1
  In  In18  1  0.16797977  -0.01394938  0.37760423  1
  In  In19  1  0.18105186  0.00062187  0.87569491  1
  In  In20  1  0.16778893  0.35561797  0.37967508  1
  In  In21  1  0.16773270  0.31885635  0.86097592  1
  In  In22  1  0.18351380  0.66258487  0.38931845  1
  In  In23  1  0.16769479  0.67762817  0.85379519  1
  In  In24  1  0.50461459  0.00497706  0.36691384  1
  In  In25  1  0.49371830  -0.00198191  0.88487697  1
  In  In26  1  0.50133655  0.34431710  0.39485789  1
  In  In27  1  0.49968326  0.33379936  0.86853450  1
  In  In28  1  0.49976911  0.66320456  0.37388494  1
  In  In29  1  0.49891501  0.66435963  0.87248576  1
  In  In30  1  0.83377374  0.00255140  0.38276842  1
  In  In31  1  0.81773892  -0.00165144  0.87598304  1
  In  In32  1  0.83572254  0.33166146  0.38636686  1
  In  In33  1  0.83605040  0.34215181  0.86054575  1
  In  In34  1  0.81140391  0.67453573  0.40033100  1
  In  In35  1  0.83143451  0.66474845  0.86563247  1
  In  In36  1  -0.01278782  0.17128074  0.37934681  1
  In  In37  1  0.00329973  0.18062086  0.86840815  1
  In  In38  1  0.00642591  0.50122284  0.38016823  1
  In  In39  1  0.00107180  0.49980417  0.86264967  1
  In  In40  1  0.00375378  0.83361093  0.38394949  1
  In  In41  1  -0.00492280  0.81536150  0.86833643  1
  In  In42  1  0.34552596  0.17134340  0.37623886  1
  In  In43  1  0.33247181  0.16822032  0.87387435  1
  In  In44  1  0.33480858  0.51816940  0.39528966  1
  In  In45  1  0.34357327  0.51048539  0.86687925  1
  In  In46  1  0.33056307  0.82105528  0.36840452  1
  In  In47  1  0.34113234  0.83509765  0.87219524  1
  In  In48  1  0.65902495  0.17952924  0.39183588  1
  In  In49  1  0.65271721  0.17003917  0.86961647  1
  In  In50  1  0.64478722  0.51082185  0.40714422  1
  In  In51  1  0.65461523  0.48815025  0.86164638  1
  In  In52  1  0.67060324  0.83884845  0.37126785  1
  In  In53  1  0.67038079  0.82628413  0.87830523  1
  In  In54  1  0.16966535  0.01157024  0.12236920  1
  In  In55  1  0.17454954  -0.00746646  0.62309376  1
  In  In56  1  0.17227499  0.32349554  0.12547831  1
  In  In57  1  0.15530595  0.34141264  0.63983107  1
  In  In58  1  0.17524700  0.68127148  0.12433115  1
  In  In59  1  0.17129912  0.66161014  0.62678313  1
  In  In60  1  0.48951003  -0.00802542  0.12034716  1
  In  In61  1  0.49647739  0.01269440  0.62462096  1
  In  In62  1  0.50291646  0.33504311  0.11181651  1
  In  In63  1  0.49582468  0.33073350  0.62809477  1
  In  In64  1  0.50302572  0.66285949  0.12727264  1
  In  In65  1  0.50331012  0.65791452  0.62546247  1
  In  In66  1  0.84668145  -0.00843865  0.12611038  1
  In  In67  1  0.82728765  -0.00471442  0.61569559  1
  In  In68  1  0.83458977  0.34612148  0.13076213  1
  In  In69  1  0.82974012  0.34972332  0.61470438  1
  In  In70  1  0.81541864  0.66229691  0.12517619  1
  In  In71  1  0.83191224  0.66464398  0.61578784  1
  In  In72  1  0.82976426  0.16431290  -0.00009825  1
  In  In73  1  0.66690022  0.34124924  0.26842273  1
  In  In74  1  0.66719206  -0.00470635  0.25107508  1
  In  In75  1  0.16806003  0.49574002  -0.00820041  1
  In  In76  1  0.82645654  0.50053111  -0.00094622  1
  In  In77  1  0.00008880  -0.00111618  0.74824566  1
  In  In78  1  0.33367905  0.33748845  0.25425916  1
  In  In79  1  0.17418693  0.84234653  -0.00334722  1
  In  In80  1  0.33435949  -0.00259004  0.75178522  1
  In  In81  1  0.49382658  0.82960975  0.50181097  1
  In  In82  1  0.66141209  0.00273301  0.74767420  1
  In  In83  1  0.00595864  -0.00019519  0.24908370  1
  In  In84  1  0.16664937  0.16603451  0.51291562  1
  In  In85  1  0.00221021  0.66237924  0.25425814  1
  Cu  Cu86  1  0.82841451  0.82142129  0.74677751  1
  Cu  Cu87  1  0.65754758  0.33349080  -0.01031755  1
  Cu  Cu88  1  0.00285040  0.33461382  0.50442809  1
  Cu  Cu89  1  0.83587510  0.50046958  0.26027308  1
  Cu  Cu90  1  -0.00514690  0.66861696  -0.01162321  1
  Cu  Cu91  1  0.49746312  0.82655899  0.74758944  1
  Cu  Cu92  1  0.33725240  -0.00023283  0.00307682  1
  Cu  Cu93  1  0.17105191  0.50689361  0.26073243  1
  Cu  Cu94  1  0.49496982  0.16512561  0.24840666  1
  Cu  Cu95  1  0.50360730  0.50256385  0.25765249  1
  Cu  Cu96  1  0.83173780  0.82343476  0.25284489  1
  Cu  Cu97  1  0.66282839  -0.00457994  0.00002163  1
  Cu  Cu98  1  0.16191016  0.17321851  0.24762203  1
  Cu  Cu99  1  0.00673416  0.66498095  0.50252759  1
  Cu  Cu100  1  0.33528932  -0.00001459  0.50120192  1
  Cu  Cu101  1  0.65766762  0.66537223  -0.00117147  1
  Cu  Cu102  1  0.50003670  0.50027657  0.74396974  1
  Cu  Cu103  1  0.18074329  0.82759835  0.25561099  1
  Cu  Cu104  1  0.16778041  0.49686006  0.74675438  1
  Cu  Cu105  1  0.66133195  0.00034580  0.49441591  1
  Cu  Cu106  1  0.33482537  0.34021315  0.50713433  1
  Cu  Cu107  1  -0.00055779  -0.00053199  -0.00107272  1
  Cu  Cu108  1  0.83123156  0.50465322  0.73685074  1
  Cu  Cu109  1  0.33900456  0.66576002  0.00036149  1
  Cu  Cu110  1  0.83222467  0.17443124  0.26137995  1
  Cu  Cu111  1  0.33620735  0.32835741  -0.00643788  1
  Cu  Cu112  1  0.83113996  0.17992596  0.73826859  1
  Cu  Cu113  1  -0.00184723  -0.00189278  0.50420626  1
  Cu  Cu114  1  0.00541136  0.32964126  -0.00280763  1
  Se  Se115  1  0.08531594  0.08369928  0.04832366  1
  Se  Se116  1  0.06926576  0.07887871  0.56941547  1
  Se  Se117  1  0.07593436  0.41531254  0.06021153  1
  Se  Se118  1  0.09052744  0.41389040  0.55651819  1
  Se  Se119  1  0.07717996  0.74548072  0.05074750  1
  Se  Se120  1  0.08739556  0.74831890  0.55779557  1
  Se  Se121  1  0.42102561  0.08802098  0.05263601  1
  Se  Se122  1  0.41114655  0.08818975  0.55449824  1
  Se  Se123  1  0.41428468  0.41640838  0.04747982  1
  Se  Se124  1  0.42020365  0.42228372  0.55882565  1
  Se  Se125  1  0.41763251  0.74748961  0.05894949  1
  Se  Se126  1  0.40488674  0.73619167  0.55669074  1
  Se  Se127  1  0.74287744  0.07262174  0.06382990  1
  Se  Se128  1  0.74336936  0.08133402  0.55203870  1
  Se  Se129  1  0.73540879  0.40738651  0.05820218  1
  Se  Se130  1  0.74474494  0.42684420  0.54259372  1
  Se  Se131  1  0.74836823  0.74585612  0.04991663  1
  Se  Se132  1  0.75334797  0.74876091  0.54459212  1
  Se  Se133  1  0.24921832  0.25107309  0.04965558  1
  Se  Se134  1  0.25530950  0.26028237  0.56762737  1
  Se  Se135  1  0.25443350  0.58602596  0.05790743  1
  Se  Se136  1  0.24171992  0.57541753  0.55325824  1
  Se  Se137  1  0.26223849  0.91710240  0.06688150  1
  Se  Se138  1  0.25073814  0.91408315  0.54938099  1
  Se  Se139  1  0.58021296  0.24536066  0.04438465  1
  Se  Se140  1  0.56290733  0.24120841  0.55360543  1
  Se  Se141  1  0.57888717  0.57802913  0.05314165  1
  Se  Se142  1  0.56997542  0.58264793  0.54401209  1
  Se  Se143  1  0.57626177  0.91377877  0.05184043  1
  Se  Se144  1  0.58645854  0.92239822  0.56149249  1
  Se  Se145  1  0.91978889  0.25756860  0.06035233  1
  Se  Se146  1  0.91376293  0.25332973  0.55336296  1
  Se  Se147  1  0.92243700  0.59152970  0.05651575  1
  Se  Se148  1  0.92180966  0.58020709  0.55237532  1
  Se  Se149  1  0.91496699  0.91369897  0.04722734  1
  Se  Se150  1  0.91258144  0.91069663  0.55165414  1
  Se  Se151  1  0.08494105  0.25434554  0.44367810  1
  Se  Se152  1  0.08876049  0.25009217  0.94232779  1
  Se  Se153  1  0.09047208  0.58079550  0.44963013  1
  Se  Se154  1  0.08137229  0.59221674  0.93288414  1
  Se  Se155  1  0.08505271  0.91740737  0.45251427  1
  Se  Se156  1  0.07442516  0.91953412  0.93369573  1
  Se  Se157  1  0.41256661  0.25354162  0.45204076  1
  Se  Se158  1  0.42175951  0.24754645  0.94007937  1
  Se  Se159  1  0.44977363  0.56928281  0.45304899  1
  Se  Se160  1  0.41922142  0.58153318  0.94570508  1
  Se  Se161  1  0.41357408  0.92336693  0.43731851  1
  Se  Se162  1  0.41415326  0.90891812  0.95071268  1
  Se  Se163  1  0.77034543  0.23010696  0.44993882  1
  Se  Se164  1  0.75113597  0.25987130  0.93645592  1
  Se  Se165  1  0.76268289  0.56185368  0.46203483  1
  Se  Se166  1  0.73694028  0.58478253  0.93648080  1
  Se  Se167  1  0.74812234  0.91659802  0.44568873  1
  Se  Se168  1  0.74848435  0.91324249  0.94866960  1
  Se  Se169  1  0.25267713  0.08278627  0.44270123  1
  Se  Se170  1  0.25577022  0.08256118  0.94731104  1
  Se  Se171  1  0.25144131  0.42324106  0.45381820  1
  Se  Se172  1  0.25723769  0.40836394  0.93137382  1
  Se  Se173  1  0.24826724  0.76619488  0.44948376  1
  Se  Se174  1  0.25342581  0.73967521  0.93909154  1
  Se  Se175  1  0.57348323  0.08242439  0.44558344  1
  Se  Se176  1  0.58719762  0.08225702  0.94411716  1
  Se  Se177  1  0.61657497  0.38108466  0.45684207  1
  Se  Se178  1  0.57626254  0.42189547  0.94135212  1
  Se  Se179  1  0.59024067  0.75003074  0.44097555  1
  Se  Se180  1  0.57737443  0.75065219  0.94366734  1
  Se  Se181  1  0.91765969  0.08387565  0.45100830  1
  Se  Se182  1  0.92214358  0.07967081  0.93560843  1
  Se  Se183  1  0.92341241  0.41851862  0.44874545  1
  Se  Se184  1  0.92436650  0.41290723  0.94089342  1
  Se  Se185  1  0.92145529  0.74863466  0.45003896  1
  Se  Se186  1  0.90516325  0.74898385  0.94066471  1
  Se  Se187  1  0.24018962  0.24844879  0.31390867  1
  Se  Se188  1  0.26694262  0.25096162  0.79674899  1
  Se  Se189  1  0.25846988  0.58416916  0.31307341  1
  Se  Se190  1  0.25098005  0.58231123  0.79854360  1
  Se  Se191  1  0.25626956  0.92105595  0.30470866  1
  Se  Se192  1  0.23881743  0.90190144  0.80348049  1
  Se  Se193  1  0.56728714  0.24637236  0.31390389  1
  Se  Se194  1  0.59996872  0.26915356  0.80157954  1
  Se  Se195  1  0.59268116  0.57405185  0.31500512  1
  Se  Se196  1  0.58097740  0.58588224  0.79964533  1
  Se  Se197  1  0.57047052  0.90184400  0.30011762  1
  Se  Se198  1  0.57335838  0.91126223  0.80889389  1
  Se  Se199  1  0.91807060  0.25985001  0.30782554  1
  Se  Se200  1  0.91844051  0.25332428  0.79665327  1
  Se  Se201  1  0.90823496  0.58861247  0.32017834  1
  Se  Se202  1  0.91393873  0.58173767  0.79785251  1
  Se  Se203  1  0.91222880  0.91010841  0.30832137  1
  Se  Se204  1  0.90075596  0.91158207  0.80559006  1
  Se  Se205  1  0.08890870  0.09104329  0.31344025  1
  Se  Se206  1  0.09214030  0.08571679  0.80859869  1
  Se  Se207  1  0.08257576  0.42108054  0.30380845  1
  Se  Se208  1  0.08436344  0.41192910  0.79994647  1
  Se  Se209  1  0.09228926  0.75289536  0.31300521  1
  Se  Se210  1  0.07107582  0.74788800  0.79114564  1
  Se  Se211  1  0.41177123  0.08399976  0.30218410  1
  Se  Se212  1  0.42960609  0.08533342  0.80720608  1
  Se  Se213  1  0.42092284  0.42439276  0.31806220  1
  Se  Se214  1  0.41748590  0.41885919  0.79992277  1
  Se  Se215  1  0.42033784  0.74376009  0.30411192  1
  Se  Se216  1  0.41323833  0.74645360  0.80274995  1
  Se  Se217  1  0.74851645  0.09137359  0.31395632  1
  Se  Se218  1  0.75815651  0.09692967  0.80257083  1
  Se  Se219  1  0.75305265  0.43292628  0.32617788  1
  Se  Se220  1  0.75061625  0.42074985  0.79379731  1
  Se  Se221  1  0.75292896  0.74363460  0.31113873  1
  Se  Se222  1  0.73980793  0.74528711  0.80126223  1
  Se  Se223  1  0.24763530  0.09186021  0.19508090  1
  Se  Se224  1  0.24233216  0.08757774  0.69289313  1
  Se  Se225  1  0.24438545  0.42775558  0.19172559  1
  Se  Se226  1  0.25719117  0.41652529  0.69706658  1
  Se  Se227  1  0.25844602  0.73880456  0.20324951  1
  Se  Se228  1  0.24819880  0.74602301  0.69933770  1
  Se  Se229  1  0.58116719  0.09105159  0.18958399  1
  Se  Se230  1  0.57803287  0.09985343  0.69214541  1
  Se  Se231  1  0.57611455  0.41637330  0.19527383  1
  Se  Se232  1  0.58478112  0.42160715  0.68784221  1
  Se  Se233  1  0.59621526  0.73523015  0.19489222  1
  Se  Se234  1  0.58277763  0.74592896  0.69427099  1
  Se  Se235  1  0.90859106  0.09513095  0.19603925  1
  Se  Se236  1  0.90770245  0.08687233  0.68632817  1
  Se  Se237  1  0.91640482  0.41619432  0.20639573  1
  Se  Se238  1  0.91729999  0.41696089  0.68990372  1
  Se  Se239  1  0.91618954  0.75289587  0.18825460  1
  Se  Se240  1  0.91257635  0.74332594  0.69133117  1
  Se  Se241  1  0.07858980  0.25530863  0.19512010  1
  Se  Se242  1  0.09117364  0.24150953  0.70586091  1
  Se  Se243  1  0.09528337  0.57838729  0.18864071  1
  Se  Se244  1  0.08272245  0.58126090  0.69574608  1
  Se  Se245  1  0.09973802  0.90561252  0.19264471  1
  Se  Se246  1  0.08742869  0.90748397  0.68955073  1
  Se  Se247  1  0.42228940  0.25231580  0.18844680  1
  Se  Se248  1  0.41400741  0.25684969  0.70462555  1
  Se  Se249  1  0.42041059  0.58157194  0.20032170  1
  Se  Se250  1  0.41377531  0.58682442  0.69627030  1
  Se  Se251  1  0.41149929  0.93156870  0.20077965  1
  Se  Se252  1  0.42113713  0.90801656  0.68584880  1
  Se  Se253  1  0.75141016  0.25083134  0.19828215  1
  Se  Se254  1  0.74957376  0.26104227  0.68407345  1
  Se  Se255  1  0.75208127  0.57724173  0.20134217  1
  Se  Se256  1  0.74483224  0.58587758  0.68512709  1
  Se  Se257  1  0.75762001  0.90638657  0.18985382  1
  Se  Se258  1  0.74941806  0.90744703  0.68966731  1
