# generated using pymatgen
data_In86Cu29Se144
_symmetry_space_group_name_H-M   'P 1'
_cell_length_a   17.57987123
_cell_length_b   17.58339377
_cell_length_c   23.44065512
_cell_angle_alpha   89.96240753
_cell_angle_beta   89.99819227
_cell_angle_gamma   89.99216016
_symmetry_Int_Tables_number   1
_chemical_formula_structural   In86Cu29Se144
_chemical_formula_sum   'In86 Cu29 Se144'
_cell_volume   7245.82830776
_cell_formula_units_Z   1
loop_
 _symmetry_equiv_pos_site_id
 _symmetry_equiv_pos_as_xyz
  1  'x, y, z'
loop_
 _atom_site_type_symbol
 _atom_site_label
 _atom_site_symmetry_multiplicity
 _atom_site_fract_x
 _atom_site_fract_y
 _atom_site_fract_z
 _atom_site_occupancy
  In  In0  1  0.01503876  0.18670762  0.10493420  1
  In  In1  1  -0.00546410  0.16402650  0.63071267  1
  In  In2  1  0.00303840  0.49824536  0.13595944  1
  In  In3  1  0.00016690  0.49838407  0.62467117  1
  In  In4  1  0.00169972  0.82051663  0.12540961  1
  In  In5  1  -0.00975298  0.84337377  0.62796784  1
  In  In6  1  0.32660298  0.17186594  0.11000029  1
  In  In7  1  0.31512573  0.17168406  0.63027509  1
  In  In8  1  0.34662403  0.50099301  0.12867237  1
  In  In9  1  0.33973594  0.51253324  0.61810877  1
  In  In10  1  0.31985038  0.83621811  0.12399203  1
  In  In11  1  0.34202366  0.82507972  0.63248250  1
  In  In12  1  0.65970965  0.16520864  0.11710252  1
  In  In13  1  0.67563982  0.15920660  0.62607784  1
  In  In14  1  0.65651506  0.50604066  0.12302607  1
  In  In15  1  0.66921313  0.50560291  0.62202847  1
  In  In16  1  0.68274266  0.83462936  0.12994352  1
  In  In17  1  0.65545251  0.82442399  0.61600710  1
  In  In18  1  0.17656748  0.00704310  0.37958989  1
  In  In19  1  0.16345280  -0.00262780  0.87566706  1
  In  In20  1  0.16332499  0.33884913  0.37782329  1
  In  In21  1  0.15098653  0.32869459  0.87739125  1
  In  In22  1  0.15611685  0.65602830  0.37039065  1
  In  In23  1  0.17154120  0.66831536  0.86619949  1
  In  In24  1  0.49968200  -0.01418761  0.37507549  1
  In  In25  1  0.50005772  0.01484826  0.87338329  1
  In  In26  1  0.51018347  0.33930524  0.37640172  1
  In  In27  1  0.49402896  0.33936153  0.89337535  1
  In  In28  1  0.50037903  0.66700584  0.37706551  1
  In  In29  1  0.48821488  0.65206597  0.85836740  1
  In  In30  1  0.82838325  0.00989588  0.38372144  1
  In  In31  1  0.84650665  0.01321314  0.86572197  1
  In  In32  1  0.84347668  0.32283386  0.38411070  1
  In  In33  1  0.84132246  0.32030428  0.87714025  1
  In  In34  1  0.84252969  0.65381298  0.38760292  1
  In  In35  1  0.83604321  0.66965491  0.85932848  1
  In  In36  1  0.00175661  0.17168891  0.37788567  1
  In  In37  1  0.00135814  0.17235082  0.87809430  1
  In  In38  1  0.00121197  0.49767716  0.37849701  1
  In  In39  1  -0.00198666  0.49623414  0.86362314  1
  In  In40  1  0.00558780  0.81796116  0.38097522  1
  In  In41  1  0.00428341  0.83965018  0.86694797  1
  In  In42  1  0.32672900  0.15998320  0.37728814  1
  In  In43  1  0.33992309  0.16347663  0.88358564  1
  In  In44  1  0.32940625  0.50449444  0.37907408  1
  In  In45  1  0.33446195  0.50799085  0.87113386  1
  In  In46  1  0.34943194  0.83155901  0.37934268  1
  In  In47  1  0.32099285  0.82332794  0.86669320  1
  In  In48  1  0.68099334  0.17380962  0.37283744  1
  In  In49  1  0.66454827  0.17843165  0.89177133  1
  In  In50  1  0.66492796  0.50508092  0.38422706  1
  In  In51  1  0.65040960  0.49666207  0.86905709  1
  In  In52  1  0.66311980  0.83791411  0.38110346  1
  In  In53  1  0.67877360  0.82706826  0.87098685  1
  In  In54  1  0.17170886  0.00407382  0.11639346  1
  In  In55  1  0.15246221  0.00761354  0.63440092  1
  In  In56  1  0.15790341  0.32199824  0.12415836  1
  In  In57  1  0.15335806  0.32354487  0.62026383  1
  In  In58  1  0.16273542  0.67144508  0.12974807  1
  In  In59  1  0.17714507  0.65693879  0.63017534  1
  In  In60  1  0.49937933  0.01325867  0.12410429  1
  In  In61  1  0.50565911  -0.01207753  0.62765113  1
  In  In62  1  0.50168902  0.33783460  0.10861893  1
  In  In63  1  0.49160760  0.34896295  0.62550719  1
  In  In64  1  0.49020406  0.64729439  0.12217013  1
  In  In65  1  0.49445080  0.66394795  0.62637132  1
  In  In66  1  0.82387932  0.00391344  0.13192956  1
  In  In67  1  0.84537086  0.01032684  0.61554499  1
  In  In68  1  0.85027217  0.33095338  0.12482074  1
  In  In69  1  0.83928241  0.33728473  0.62313100  1
  In  In70  1  0.83827819  0.67266063  0.12842708  1
  In  In71  1  0.83252799  0.66627991  0.62213121  1
  In  In72  1  0.66926321  0.33762156  0.24192540  1
  In  In73  1  0.00109211  0.00094847  0.25326025  1
  In  In74  1  0.66918080  0.66685074  0.25312286  1
  In  In75  1  0.17249086  0.49043818  0.00160708  1
  In  In76  1  0.50032205  0.83499964  -0.00342590  1
  In  In77  1  0.16816006  0.83318962  0.50824898  1
  In  In78  1  0.33270091  0.00099881  0.24058488  1
  In  In79  1  0.82870817  0.49143277  -0.00330063  1
  In  In80  1  0.50079917  0.16981487  0.50091383  1
  In  In81  1  0.66957242  -0.00207733  0.75256886  1
  In  In82  1  0.33046591  0.33437137  0.24637250  1
  In  In83  1  0.83938794  0.83613618  -0.00177526  1
  In  In84  1  0.32840774  0.33834788  0.75680575  1
  In  In85  1  0.67156993  0.33574316  0.74813406  1
  Cu  Cu86  1  0.50227986  0.16198012  0.23975522  1
  Cu  Cu87  1  0.32753390  -0.00373648  -0.00263414  1
  Cu  Cu88  1  0.16127495  0.83368764  0.74807814  1
  Cu  Cu89  1  0.66431437  0.66939665  0.50212888  1
  Cu  Cu90  1  0.16624409  0.49606606  0.74630984  1
  Cu  Cu91  1  0.83910413  0.49642634  0.25947752  1
  Cu  Cu92  1  0.00050731  0.00004605  -0.00754491  1
  Cu  Cu93  1  0.66979966  0.00432585  0.00052219  1
  Cu  Cu94  1  0.66057911  0.65900687  -0.00654911  1
  Cu  Cu95  1  0.66946801  -0.00087719  0.50151487  1
  Cu  Cu96  1  0.00675612  0.66077658  0.00015187  1
  Cu  Cu97  1  0.32774274  0.34101602  0.50293579  1
  Cu  Cu98  1  -0.00181346  0.66212687  0.50309336  1
  Cu  Cu99  1  0.82786556  0.83139457  0.74033109  1
  Cu  Cu100  1  0.33150765  0.00464075  0.50395584  1
  Cu  Cu101  1  -0.00024983  0.00625388  0.50495102  1
  Cu  Cu102  1  0.15714165  0.15810917  0.75227187  1
  Cu  Cu103  1  0.83946962  0.83132935  0.25412863  1
  Cu  Cu104  1  0.16478928  0.50439897  0.25562881  1
  Cu  Cu105  1  0.49617515  0.17194334  0.75999208  1
  Cu  Cu106  1  0.50684599  0.82692830  0.25412691  1
  Cu  Cu107  1  0.17027996  0.82852064  0.25078345  1
  Cu  Cu108  1  0.33409671  0.66819026  0.50086138  1
  Cu  Cu109  1  0.84000936  0.16286209  0.25500913  1
  Cu  Cu110  1  0.83650550  0.50138820  0.74305146  1
  Cu  Cu111  1  0.33157850  0.66550112  -0.00926026  1
  Cu  Cu112  1  0.49482357  0.83077162  0.74604906  1
  Cu  Cu113  1  0.00051239  0.33530371  0.50164299  1
  Cu  Cu114  1  0.66892728  0.33775030  0.50159180  1
  Se  Se115  1  0.08523086  0.08119039  0.04783832  1
  Se  Se116  1  0.08327407  0.08851257  0.55803609  1
  Se  Se117  1  0.06911086  0.41279653  0.05769384  1
  Se  Se118  1  0.08499741  0.41967638  0.55312589  1
  Se  Se119  1  0.08588370  0.74815267  0.05265307  1
  Se  Se120  1  0.07704096  0.74285329  0.56527013  1
  Se  Se121  1  0.41174905  0.07831346  0.05127581  1
  Se  Se122  1  0.41318309  0.08356786  0.56555246  1
  Se  Se123  1  0.40745552  0.42001925  0.05090961  1
  Se  Se124  1  0.41756949  0.42343017  0.54895622  1
  Se  Se125  1  0.40870588  0.74558234  0.05593524  1
  Se  Se126  1  0.41667364  0.75160831  0.55467365  1
  Se  Se127  1  0.75422143  0.08341583  0.05536420  1
  Se  Se128  1  0.75213207  0.08730580  0.54936533  1
  Se  Se129  1  0.74374050  0.41059379  0.06632526  1
  Se  Se130  1  0.75216133  0.41867137  0.55670472  1
  Se  Se131  1  0.74286175  0.73904762  0.05268532  1
  Se  Se132  1  0.75194965  0.75191180  0.55207183  1
  Se  Se133  1  0.24485590  0.26098000  0.04904711  1
  Se  Se134  1  0.24831038  0.25101935  0.55232090  1
  Se  Se135  1  0.25487525  0.59069506  0.05865741  1
  Se  Se136  1  0.24656215  0.58388883  0.54913065  1
  Se  Se137  1  0.24425243  0.91119453  0.04843895  1
  Se  Se138  1  0.25508030  0.92489766  0.56798205  1
  Se  Se139  1  0.58255238  0.24788714  0.04822207  1
  Se  Se140  1  0.58922038  0.25873705  0.56462193  1
  Se  Se141  1  0.57680841  0.57937910  0.04774948  1
  Se  Se142  1  0.58070115  0.58546613  0.55548963  1
  Se  Se143  1  0.59442861  0.91886143  0.06004115  1
  Se  Se144  1  0.57946610  0.91731394  0.54883293  1
  Se  Se145  1  0.90386418  0.24329882  0.04690158  1
  Se  Se146  1  0.91973005  0.24966738  0.55656561  1
  Se  Se147  1  0.92043346  0.58570283  0.05837689  1
  Se  Se148  1  0.91403748  0.57836101  0.55535813  1
  Se  Se149  1  0.92531296  0.92502118  0.06246616  1
  Se  Se150  1  0.91564853  0.91463601  0.54820038  1
  Se  Se151  1  0.08514997  0.25241302  0.44730024  1
  Se  Se152  1  0.08811870  0.24254367  0.95188519  1
  Se  Se153  1  0.08369037  0.58196645  0.44862009  1
  Se  Se154  1  0.08285683  0.58080818  0.93789195  1
  Se  Se155  1  0.08047639  0.92470841  0.44394537  1
  Se  Se156  1  0.08154280  0.90996385  0.94494055  1
  Se  Se157  1  0.40814463  0.25978393  0.44066054  1
  Se  Se158  1  0.41754830  0.24547127  0.95350119  1
  Se  Se159  1  0.41743711  0.58483688  0.44607382  1
  Se  Se160  1  0.41986710  0.58375686  0.94264376  1
  Se  Se161  1  0.41569647  0.92093358  0.45217313  1
  Se  Se162  1  0.40909265  0.92028691  0.93463525  1
  Se  Se163  1  0.74996669  0.24897849  0.45152564  1
  Se  Se164  1  0.75378205  0.25986964  0.95294825  1
  Se  Se165  1  0.74963414  0.58104319  0.45418912  1
  Se  Se166  1  0.75065897  0.58981042  0.93452212  1
  Se  Se167  1  0.75279030  0.91548347  0.44800631  1
  Se  Se168  1  0.74858147  0.92718798  0.93808394  1
  Se  Se169  1  0.24749370  0.08924742  0.45445288  1
  Se  Se170  1  0.24614400  0.08151102  0.94442418  1
  Se  Se171  1  0.24531555  0.42194114  0.44648545  1
  Se  Se172  1  0.25822787  0.40788485  0.93411305  1
  Se  Se173  1  0.25136461  0.74667985  0.44004482  1
  Se  Se174  1  0.24382885  0.74846238  0.94324863  1
  Se  Se175  1  0.58896903  0.08015635  0.43857922  1
  Se  Se176  1  0.58016939  0.08355764  0.94992684  1
  Se  Se177  1  0.58147171  0.41934990  0.45123219  1
  Se  Se178  1  0.59706691  0.41374703  0.94913732  1
  Se  Se179  1  0.58071538  0.75105259  0.44615376  1
  Se  Se180  1  0.58545596  0.74426418  0.93450767  1
  Se  Se181  1  0.91942731  0.08928972  0.44718990  1
  Se  Se182  1  0.91436265  0.08576771  0.94596793  1
  Se  Se183  1  0.91545794  0.41864266  0.44859614  1
  Se  Se184  1  0.93074629  0.41117251  0.94226546  1
  Se  Se185  1  0.91687167  0.74999309  0.45246099  1
  Se  Se186  1  0.92324844  0.73972676  0.93923628  1
  Se  Se187  1  0.24409422  0.24366466  0.30757419  1
  Se  Se188  1  0.24113709  0.23979076  0.81051481  1
  Se  Se189  1  0.25307855  0.58550349  0.30494189  1
  Se  Se190  1  0.25046384  0.58039227  0.79831667  1
  Se  Se191  1  0.24977494  0.91047567  0.30942840  1
  Se  Se192  1  0.24471320  0.91683627  0.80268081  1
  Se  Se193  1  0.57781448  0.24324028  0.30349218  1
  Se  Se194  1  0.57793768  0.25384076  0.81453377  1
  Se  Se195  1  0.57862352  0.57256720  0.30654098  1
  Se  Se196  1  0.59958594  0.59760903  0.80005420  1
  Se  Se197  1  0.58732598  0.91520024  0.30342340  1
  Se  Se198  1  0.57407152  0.90752457  0.81078671  1
  Se  Se199  1  0.91963340  0.25120196  0.30590499  1
  Se  Se200  1  0.92183492  0.25002705  0.80368221  1
  Se  Se201  1  0.92011826  0.58522348  0.30883682  1
  Se  Se202  1  0.92224758  0.58510064  0.79577687  1
  Se  Se203  1  0.91585491  0.91125576  0.31729026  1
  Se  Se204  1  0.90629780  0.90992330  0.80185348  1
  Se  Se205  1  0.09607858  0.08985910  0.30853471  1
  Se  Se206  1  0.07513762  0.07796736  0.80918292  1
  Se  Se207  1  0.08229892  0.41738638  0.30562736  1
  Se  Se208  1  0.08479634  0.41132058  0.79967190  1
  Se  Se209  1  0.08226687  0.74905438  0.30264359  1
  Se  Se210  1  0.07984015  0.74684169  0.80119151  1
  Se  Se211  1  0.42410954  0.08774185  0.30640374  1
  Se  Se212  1  0.40897140  0.08458045  0.80361846  1
  Se  Se213  1  0.42049670  0.41972744  0.30916000  1
  Se  Se214  1  0.43044170  0.42156646  0.80918580  1
  Se  Se215  1  0.41891829  0.74788348  0.30490282  1
  Se  Se216  1  0.40962930  0.74747183  0.79833850  1
  Se  Se217  1  0.75171246  0.08150556  0.30434323  1
  Se  Se218  1  0.74519644  0.09908619  0.81187184  1
  Se  Se219  1  0.75273814  0.41809654  0.31473194  1
  Se  Se220  1  0.76201033  0.42405372  0.81097012  1
  Se  Se221  1  0.75959194  0.75133755  0.31606040  1
  Se  Se222  1  0.74491958  0.74749831  0.79316696  1
  Se  Se223  1  0.24220915  0.09709765  0.18917192  1
  Se  Se224  1  0.24800731  0.08107069  0.70073472  1
  Se  Se225  1  0.23769830  0.42575213  0.18812239  1
  Se  Se226  1  0.24650965  0.41769974  0.68398347  1
  Se  Se227  1  0.25522573  0.74735277  0.19747478  1
  Se  Se228  1  0.24832811  0.75058797  0.69758434  1
  Se  Se229  1  0.59250133  0.07935748  0.19424375  1
  Se  Se230  1  0.57472959  0.09312262  0.69607574  1
  Se  Se231  1  0.56759602  0.42324702  0.19130760  1
  Se  Se232  1  0.57678017  0.42826084  0.69578845  1
  Se  Se233  1  0.58009050  0.75059523  0.18541554  1
  Se  Se234  1  0.58038295  0.75029134  0.69287398  1
  Se  Se235  1  0.92014124  0.09120437  0.18849038  1
  Se  Se236  1  0.91548509  0.07460230  0.69731715  1
  Se  Se237  1  0.91814039  0.41374701  0.20161711  1
  Se  Se238  1  0.92070060  0.41364890  0.69613777  1
  Se  Se239  1  0.92054270  0.74742131  0.20077649  1
  Se  Se240  1  0.91631876  0.74786251  0.69257675  1
  Se  Se241  1  0.07330474  0.24814322  0.19419253  1
  Se  Se242  1  0.08117083  0.24780976  0.69809706  1
  Se  Se243  1  0.08198417  0.58851985  0.19974622  1
  Se  Se244  1  0.08290805  0.58174830  0.69479539  1
  Se  Se245  1  0.09282838  0.91183478  0.19029923  1
  Se  Se246  1  0.07441511  0.91846225  0.70021508  1
  Se  Se247  1  0.42126229  0.24480475  0.18443478  1
  Se  Se248  1  0.42089744  0.24808543  0.69311937  1
  Se  Se249  1  0.41325539  0.58718501  0.20258341  1
  Se  Se250  1  0.41029722  0.58441303  0.69625722  1
  Se  Se251  1  0.42863382  0.90588815  0.18837164  1
  Se  Se252  1  0.41425089  0.92203856  0.69866023  1
  Se  Se253  1  0.75933367  0.24031402  0.19065216  1
  Se  Se254  1  0.76143010  0.24092390  0.69431427  1
  Se  Se255  1  0.75984336  0.57201955  0.19336712  1
  Se  Se256  1  0.75026540  0.58452795  0.69378144  1
  Se  Se257  1  0.75394942  0.91548703  0.20460412  1
  Se  Se258  1  0.74923979  0.91478366  0.68137201  1
