# generated using pymatgen
data_In86Cu29Se144
_symmetry_space_group_name_H-M   'P 1'
_cell_length_a   17.59975499
_cell_length_b   17.59375985
_cell_length_c   23.46122560
_cell_angle_alpha   90.00528959
_cell_angle_beta   89.98830030
_cell_angle_gamma   90.00099711
_symmetry_Int_Tables_number   1
_chemical_formula_structural   In86Cu29Se144
_chemical_formula_sum   'In86 Cu29 Se144'
_cell_volume   7264.67125419
_cell_formula_units_Z   1
loop_
 _symmetry_equiv_pos_site_id
 _symmetry_equiv_pos_as_xyz
  1  'x, y, z'
loop_
 _atom_site_type_symbol
 _atom_site_label
 _atom_site_symmetry_multiplicity
 _atom_site_fract_x
 _atom_site_fract_y
 _atom_site_fract_z
 _atom_site_occupancy
  In  In0  1  -0.00658749  0.17105107  0.11948371  1
  In  In1  1  -0.00154674  0.15982528  0.62130048  1
  In  In2  1  0.00827415  0.48983581  0.13595963  1
  In  In3  1  -0.02153548  0.50046432  0.61907783  1
  In  In4  1  -0.01623812  0.84994807  0.13102684  1
  In  In5  1  0.00478043  0.84018779  0.62207493  1
  In  In6  1  0.32365441  0.17397838  0.13313364  1
  In  In7  1  0.34033899  0.16244914  0.61294450  1
  In  In8  1  0.33944643  0.49183890  0.13187338  1
  In  In9  1  0.33486932  0.48576706  0.61760099  1
  In  In10  1  0.34686250  0.83850806  0.12035955  1
  In  In11  1  0.32642775  0.84783074  0.62216123  1
  In  In12  1  0.67819702  0.15586628  0.13401092  1
  In  In13  1  0.66661777  0.16550371  0.61977915  1
  In  In14  1  0.65628426  0.49789994  0.12646614  1
  In  In15  1  0.67189235  0.49586413  0.62161748  1
  In  In16  1  0.68179379  0.84445601  0.11440849  1
  In  In17  1  0.67221022  0.83220099  0.64365891  1
  In  In18  1  0.16536794  0.00445131  0.37401766  1
  In  In19  1  0.15416526  0.03988374  0.89460810  1
  In  In20  1  0.14882260  0.31533690  0.36784151  1
  In  In21  1  0.14762085  0.31697363  0.88059958  1
  In  In22  1  0.16392733  0.68404950  0.37526245  1
  In  In23  1  0.16036908  0.66353168  0.87523282  1
  In  In24  1  0.51114759  0.01324116  0.36088917  1
  In  In25  1  0.49589276  -0.01384988  0.88363188  1
  In  In26  1  0.49966416  0.33452349  0.36710234  1
  In  In27  1  0.51500190  0.33548683  0.88132024  1
  In  In28  1  0.49286091  0.65714720  0.37554994  1
  In  In29  1  0.51520649  0.66310892  0.87846077  1
  In  In30  1  0.84852868  0.01701790  0.36810911  1
  In  In31  1  0.83132871  0.00291187  0.86396271  1
  In  In32  1  0.83583025  0.33167960  0.38040596  1
  In  In33  1  0.85242084  0.30858787  0.88795468  1
  In  In34  1  0.83180557  0.65122013  0.37790525  1
  In  In35  1  0.82679687  0.69012381  0.87259316  1
  In  In36  1  0.00439637  0.17313312  0.38114907  1
  In  In37  1  -0.00488345  0.16132300  0.86793978  1
  In  In38  1  -0.01955629  0.48297538  0.36657193  1
  In  In39  1  0.00226163  0.49424769  0.87408456  1
  In  In40  1  0.00863302  0.84954278  0.36530663  1
  In  In41  1  -0.02538902  0.85889334  0.89049523  1
  In  In42  1  0.33178342  0.16801124  0.36738474  1
  In  In43  1  0.32012160  0.15504350  0.88085335  1
  In  In44  1  0.34982707  0.49234826  0.37554291  1
  In  In45  1  0.33808935  0.50723077  0.88023987  1
  In  In46  1  0.31759900  0.83496508  0.37268913  1
  In  In47  1  0.33827964  0.85885346  0.88446174  1
  In  In48  1  0.66601519  0.16600220  0.37397728  1
  In  In49  1  0.69630354  0.15785999  0.87466019  1
  In  In50  1  0.67354493  0.49148757  0.37922481  1
  In  In51  1  0.65709924  0.49390592  0.87509291  1
  In  In52  1  0.66038826  0.84030823  0.37527827  1
  In  In53  1  0.67082242  0.83423062  0.86987537  1
  In  In54  1  0.14977480  0.01933976  0.12586815  1
  In  In55  1  0.16093203  -0.00110522  0.61613450  1
  In  In56  1  0.17052098  0.32090148  0.13056158  1
  In  In57  1  0.15378535  0.31069391  0.61014665  1
  In  In58  1  0.16477112  0.65590794  0.12930567  1
  In  In59  1  0.14763830  0.67241954  0.62235006  1
  In  In60  1  0.50928385  -0.00495880  0.13017397  1
  In  In61  1  0.50670891  0.00631057  0.62158220  1
  In  In62  1  0.49497114  0.34445021  0.13835486  1
  In  In63  1  0.50588248  0.33142404  0.60961150  1
  In  In64  1  0.50178382  0.66902266  0.11807605  1
  In  In65  1  0.51201007  0.66330089  0.62434974  1
  In  In66  1  0.83571592  0.00254925  0.11998652  1
  In  In67  1  0.82197194  0.01189825  0.64240270  1
  In  In68  1  0.85043927  0.30873142  0.13713047  1
  In  In69  1  0.84205522  0.32848210  0.62025003  1
  In  In70  1  0.83231052  0.68124390  0.12335162  1
  In  In71  1  0.82601827  0.65644876  0.62728105  1
  In  In72  1  0.33040909  0.66641094  0.75690796  1
  In  In73  1  0.82975101  0.49599912  0.00000247  1
  In  In74  1  0.17768501  0.48834621  0.01375146  1
  In  In75  1  0.50203278  0.17227753  0.00770114  1
  In  In76  1  0.83566968  0.83389567  0.50377061  1
  In  In77  1  0.33251388  0.66931309  0.24959049  1
  In  In78  1  0.67145889  0.66960700  0.25335570  1
  In  In79  1  0.16637260  0.50393726  0.49243750  1
  In  In80  1  0.67751440  0.33319282  0.74820043  1
  In  In81  1  0.49471319  0.83795119  0.50051980  1
  In  In82  1  0.33275903  0.33080005  0.73988213  1
  In  In83  1  0.33022580  0.00119487  0.75513304  1
  In  In84  1  0.16584832  0.83074496  -0.00119464  1
  In  In85  1  -0.01144276  0.67278827  0.74876536  1
  Cu  Cu86  1  0.15840732  0.16351720  0.25083442  1
  Cu  Cu87  1  0.50179681  0.82934471  0.75573908  1
  Cu  Cu88  1  0.34070952  0.33663502  0.00756727  1
  Cu  Cu89  1  0.16012883  0.16678693  0.74683889  1
  Cu  Cu90  1  0.00074218  0.66180972  0.00509550  1
  Cu  Cu91  1  0.66360148  0.65777066  0.50084750  1
  Cu  Cu92  1  0.16298827  0.83309151  0.75254500  1
  Cu  Cu93  1  0.67345859  0.00323280  0.50034666  1
  Cu  Cu94  1  0.50550932  0.83735264  0.24560914  1
  Cu  Cu95  1  -0.00017310  0.67335407  0.49688210  1
  Cu  Cu96  1  0.16127905  0.84103395  0.24782301  1
  Cu  Cu97  1  0.51046752  0.16294786  0.74875663  1
  Cu  Cu98  1  0.83369376  0.49504544  0.25296677  1
  Cu  Cu99  1  0.34972469  0.67090173  -0.00242348  1
  Cu  Cu100  1  0.82683312  0.49701695  0.74976022  1
  Cu  Cu101  1  0.66851930  0.00058730  -0.00330070  1
  Cu  Cu102  1  0.49804838  0.16985651  0.24682974  1
  Cu  Cu103  1  0.33211598  0.66660771  0.49479856  1
  Cu  Cu104  1  0.83431129  0.16652684  0.25362805  1
  Cu  Cu105  1  0.00489478  0.00641223  0.49651984  1
  Cu  Cu106  1  0.15362005  0.48388828  0.74922056  1
  Cu  Cu107  1  0.66403180  0.34126852  0.00834929  1
  Cu  Cu108  1  0.33984381  0.33008271  0.49144010  1
  Cu  Cu109  1  0.83559938  0.83855457  0.24526100  1
  Cu  Cu110  1  0.49689999  0.50066014  0.75157000  1
  Cu  Cu111  1  0.16523622  0.50206881  0.25564627  1
  Cu  Cu112  1  0.66438854  0.32604437  0.49554927  1
  Cu  Cu113  1  0.33265558  0.00246052  0.49189857  1
  Cu  Cu114  1  0.66614496  0.67348211  -0.00162156  1
  Se  Se115  1  0.09095298  0.10652086  0.04816702  1
  Se  Se116  1  0.09167696  0.09077994  0.54787535  1
  Se  Se117  1  0.07590498  0.40036918  0.05967656  1
  Se  Se118  1  0.07598201  0.41995119  0.55572378  1
  Se  Se119  1  0.07971993  0.74356404  0.06355292  1
  Se  Se120  1  0.08251460  0.75803001  0.54820142  1
  Se  Se121  1  0.41579050  0.08503468  0.06930827  1
  Se  Se122  1  0.42280789  0.07609489  0.54739002  1
  Se  Se123  1  0.42286661  0.42072594  0.05762382  1
  Se  Se124  1  0.41997676  0.41653321  0.54523170  1
  Se  Se125  1  0.42714507  0.75841876  0.04977036  1
  Se  Se126  1  0.40799443  0.74375903  0.56256541  1
  Se  Se127  1  0.74784355  0.08541207  0.05266042  1
  Se  Se128  1  0.75721961  0.08039128  0.55711107  1
  Se  Se129  1  0.75232708  0.40916537  0.06929510  1
  Se  Se130  1  0.74579950  0.40448555  0.55615085  1
  Se  Se131  1  0.75661135  0.75391727  0.04638797  1
  Se  Se132  1  0.73634418  0.74677380  0.56006025  1
  Se  Se133  1  0.25364452  0.25203567  0.05406346  1
  Se  Se134  1  0.25849305  0.24932120  0.54828879  1
  Se  Se135  1  0.26823365  0.59365263  0.05966334  1
  Se  Se136  1  0.25226931  0.59224935  0.56187042  1
  Se  Se137  1  0.24226986  0.91978795  0.06722288  1
  Se  Se138  1  0.24967467  0.91993890  0.54701860  1
  Se  Se139  1  0.59031258  0.25834105  0.07096099  1
  Se  Se140  1  0.58154628  0.23870315  0.54632991  1
  Se  Se141  1  0.58917711  0.58622609  0.05334174  1
  Se  Se142  1  0.58087957  0.57451425  0.55414528  1
  Se  Se143  1  0.58474431  0.92016498  0.05232348  1
  Se  Se144  1  0.59798392  0.91426742  0.55857041  1
  Se  Se145  1  0.90417930  0.24461314  0.04870929  1
  Se  Se146  1  0.92024164  0.24498321  0.55203689  1
  Se  Se147  1  0.92241359  0.58035500  0.06497174  1
  Se  Se148  1  0.91258641  0.59477533  0.55017866  1
  Se  Se149  1  0.90972979  0.91219196  0.05080931  1
  Se  Se150  1  0.92016120  0.93185227  0.55845409  1
  Se  Se151  1  0.08356059  0.25437260  0.45329693  1
  Se  Se152  1  0.09490763  0.21332065  0.94630792  1
  Se  Se153  1  0.07291550  0.59036609  0.43345265  1
  Se  Se154  1  0.08391444  0.57990945  0.95007675  1
  Se  Se155  1  0.08492023  0.91813370  0.44477812  1
  Se  Se156  1  0.07476369  0.93295989  0.95209891  1
  Se  Se157  1  0.41963971  0.24727351  0.43596595  1
  Se  Se158  1  0.40965078  0.25617821  0.93842195  1
  Se  Se159  1  0.41777068  0.57982110  0.45024386  1
  Se  Se160  1  0.42762923  0.58138143  0.94591032  1
  Se  Se161  1  0.41466497  0.92361640  0.43197563  1
  Se  Se162  1  0.41625325  0.92301720  0.96242920  1
  Se  Se163  1  0.75033132  0.24372864  0.44460527  1
  Se  Se164  1  0.73986759  0.25825209  0.94870352  1
  Se  Se165  1  0.75088765  0.57720373  0.45067271  1
  Se  Se166  1  0.74483598  0.58946109  0.93806208  1
  Se  Se167  1  0.75194261  0.92384885  0.43888910  1
  Se  Se168  1  0.74909597  0.92176159  0.93769684  1
  Se  Se169  1  0.25077495  0.08771968  0.44035250  1
  Se  Se170  1  0.27435998  0.05846308  0.95454898  1
  Se  Se171  1  0.25271029  0.40864033  0.43481564  1
  Se  Se172  1  0.25558577  0.40626011  0.93787996  1
  Se  Se173  1  0.24820605  0.75473001  0.44948250  1
  Se  Se174  1  0.26021566  0.74068114  0.93767201  1
  Se  Se175  1  0.58551069  0.07729741  0.44352860  1
  Se  Se176  1  0.58764758  0.08636441  0.93911309  1
  Se  Se177  1  0.58226878  0.41103028  0.44266873  1
  Se  Se178  1  0.58080290  0.42319045  0.95478899  1
  Se  Se179  1  0.58663712  0.74103040  0.44294133  1
  Se  Se180  1  0.58530788  0.75819853  0.94416946  1
  Se  Se181  1  0.91670904  0.08919485  0.44862207  1
  Se  Se182  1  0.89382726  0.09986184  0.93364247  1
  Se  Se183  1  0.90865881  0.42356212  0.44925509  1
  Se  Se184  1  0.93185141  0.40892497  0.94984932  1
  Se  Se185  1  0.92063590  0.75222812  0.43400157  1
  Se  Se186  1  0.92259161  0.74261870  0.94690263  1
  Se  Se187  1  0.24496923  0.24994015  0.29946203  1
  Se  Se188  1  0.24528954  0.24432397  0.80594689  1
  Se  Se189  1  0.24618777  0.58141059  0.31478047  1
  Se  Se190  1  0.23533457  0.56537315  0.80636927  1
  Se  Se191  1  0.24698954  0.92092154  0.30168161  1
  Se  Se192  1  0.23615626  0.91644502  0.81476199  1
  Se  Se193  1  0.58413275  0.24714124  0.30250801  1
  Se  Se194  1  0.58606302  0.24342324  0.81052724  1
  Se  Se195  1  0.58168405  0.57723746  0.30917064  1
  Se  Se196  1  0.58435087  0.57998130  0.80271407  1
  Se  Se197  1  0.59092441  0.91816438  0.29882900  1
  Se  Se198  1  0.57818242  0.91988973  0.80726117  1
  Se  Se199  1  0.91694504  0.24872462  0.30938736  1
  Se  Se200  1  0.92258702  0.25641471  0.80153374  1
  Se  Se201  1  0.91537058  0.58586023  0.30158577  1
  Se  Se202  1  0.90576086  0.57780113  0.81266035  1
  Se  Se203  1  0.91760440  0.92371135  0.29886586  1
  Se  Se204  1  0.91401211  0.90993711  0.80102227  1
  Se  Se205  1  0.07598174  0.08416384  0.30827814  1
  Se  Se206  1  0.08604214  0.07776010  0.80236455  1
  Se  Se207  1  0.08007740  0.41461796  0.30324231  1
  Se  Se208  1  0.07675308  0.40324894  0.80727405  1
  Se  Se209  1  0.08160792  0.75247615  0.29942980  1
  Se  Se210  1  0.08019897  0.75660151  0.81303972  1
  Se  Se211  1  0.41318829  0.08330035  0.29715049  1
  Se  Se212  1  0.42531043  0.09221015  0.81223061  1
  Se  Se213  1  0.41762660  0.41827421  0.29775525  1
  Se  Se214  1  0.42019783  0.41673659  0.80944844  1
  Se  Se215  1  0.42628789  0.76058255  0.30916564  1
  Se  Se216  1  0.41580109  0.75897409  0.81719040  1
  Se  Se217  1  0.74774050  0.08164113  0.30321140  1
  Se  Se218  1  0.74435054  0.07825279  0.79159539  1
  Se  Se219  1  0.75257245  0.41222634  0.30721384  1
  Se  Se220  1  0.76206769  0.41527380  0.81871105  1
  Se  Se221  1  0.76190377  0.76112194  0.31301258  1
  Se  Se222  1  0.73766288  0.74288461  0.79734570  1
  Se  Se223  1  0.24427103  0.08255289  0.19747398  1
  Se  Se224  1  0.24863285  0.09133711  0.68855351  1
  Se  Se225  1  0.24209541  0.42221779  0.19436158  1
  Se  Se226  1  0.23340761  0.41486898  0.68341184  1
  Se  Se227  1  0.24393788  0.76019798  0.18846814  1
  Se  Se228  1  0.24249970  0.75472825  0.69171164  1
  Se  Se229  1  0.58398057  0.08252555  0.19986224  1
  Se  Se230  1  0.58955569  0.08108264  0.69311512  1
  Se  Se231  1  0.58715698  0.42103505  0.20313335  1
  Se  Se232  1  0.57285278  0.41526493  0.69174366  1
  Se  Se233  1  0.58672093  0.75725365  0.18721327  1
  Se  Se234  1  0.57916206  0.74485134  0.69994457  1
  Se  Se235  1  0.91348339  0.08788379  0.19101109  1
  Se  Se236  1  0.94587352  0.05581197  0.68993636  1
  Se  Se237  1  0.91828021  0.41089215  0.20030073  1
  Se  Se238  1  0.91145967  0.41757905  0.69513077  1
  Se  Se239  1  0.91809222  0.74928773  0.19719093  1
  Se  Se240  1  0.90408791  0.76094741  0.68476945  1
  Se  Se241  1  0.07626332  0.24737324  0.19520547  1
  Se  Se242  1  0.07881857  0.24860843  0.69201703  1
  Se  Se243  1  0.08153607  0.58407730  0.20208168  1
  Se  Se244  1  0.07982506  0.57525896  0.69251924  1
  Se  Se245  1  0.07825762  0.92516556  0.19403399  1
  Se  Se246  1  0.09015143  0.91691169  0.69220864  1
  Se  Se247  1  0.41048673  0.25499906  0.19977582  1
  Se  Se248  1  0.43047968  0.24007472  0.68737797  1
  Se  Se249  1  0.42888850  0.58283414  0.19451102  1
  Se  Se250  1  0.41402520  0.57592619  0.69050362  1
  Se  Se251  1  0.41594963  0.91812977  0.19748828  1
  Se  Se252  1  0.42411851  0.91098679  0.69413204  1
  Se  Se253  1  0.74655943  0.25036651  0.20266499  1
  Se  Se254  1  0.76185544  0.23851540  0.69102264  1
  Se  Se255  1  0.75948499  0.57941125  0.19058871  1
  Se  Se256  1  0.74223379  0.57864122  0.69771517  1
  Se  Se257  1  0.75139418  0.92147021  0.19252001  1
  Se  Se258  1  0.74426920  0.92358841  0.70810882  1
