# generated using pymatgen
data_In86Cu29Se144
_symmetry_space_group_name_H-M   'P 1'
_cell_length_a   17.63716418
_cell_length_b   17.63598430
_cell_length_c   23.49442008
_cell_angle_alpha   90.04000965
_cell_angle_beta   89.97244856
_cell_angle_gamma   90.02127349
_symmetry_Int_Tables_number   1
_chemical_formula_structural   In86Cu29Se144
_chemical_formula_sum   'In86 Cu29 Se144'
_cell_volume   7307.90688252
_cell_formula_units_Z   1
loop_
 _symmetry_equiv_pos_site_id
 _symmetry_equiv_pos_as_xyz
  1  'x, y, z'
loop_
 _atom_site_type_symbol
 _atom_site_label
 _atom_site_symmetry_multiplicity
 _atom_site_fract_x
 _atom_site_fract_y
 _atom_site_fract_z
 _atom_site_occupancy
  In  In0  1  0.00592748  0.18228824  0.10896680  1
  In  In1  1  0.01180745  0.17018657  0.62742410  1
  In  In2  1  0.01294569  0.51514386  0.10134215  1
  In  In3  1  -0.00784939  0.50466896  0.63688938  1
  In  In4  1  -0.01082922  0.82120464  0.11505587  1
  In  In5  1  -0.00239027  0.82148510  0.63013438  1
  In  In6  1  0.33751519  0.17053142  0.11201913  1
  In  In7  1  0.33194396  0.18419385  0.62926119  1
  In  In8  1  0.33693097  0.50649330  0.12078177  1
  In  In9  1  0.34538664  0.49686949  0.63594880  1
  In  In10  1  0.32138890  0.82348021  0.12275613  1
  In  In11  1  0.33636280  0.81236497  0.62995083  1
  In  In12  1  0.66946719  0.17638042  0.11461806  1
  In  In13  1  0.66300595  0.17186541  0.63819126  1
  In  In14  1  0.66324337  0.50063004  0.11815372  1
  In  In15  1  0.62233290  0.53419999  0.68075199  1
  In  In16  1  0.66450855  0.81547235  0.12386158  1
  In  In17  1  0.66609071  0.83532931  0.62940743  1
  In  In18  1  0.17963935  0.00237826  0.37684151  1
  In  In19  1  0.15582345  0.00935863  0.88400156  1
  In  In20  1  0.16142275  0.33007122  0.37763451  1
  In  In21  1  0.16627066  0.33663354  0.87728075  1
  In  In22  1  0.16265298  0.65567700  0.36316786  1
  In  In23  1  0.16440409  0.66340018  0.87978918  1
  In  In24  1  0.49258229  -0.00226161  0.37889126  1
  In  In25  1  0.51857813  -0.00271880  0.87384323  1
  In  In26  1  0.51774293  0.33004661  0.37072251  1
  In  In27  1  0.49458327  0.34402908  0.86997242  1
  In  In28  1  0.50278455  0.66611329  0.37697218  1
  In  In29  1  0.49484000  0.64581050  0.85791185  1
  In  In30  1  0.83183316  -0.00210110  0.36613001  1
  In  In31  1  0.82596745  0.00284635  0.88046382  1
  In  In32  1  0.82687317  0.34814831  0.37167367  1
  In  In33  1  0.83961628  0.33942969  0.88377907  1
  In  In34  1  0.82955590  0.66179203  0.36648385  1
  In  In35  1  0.83057264  0.66675919  0.87331437  1
  In  In36  1  0.00769104  0.18109086  0.37294736  1
  In  In37  1  -0.01343026  0.18645218  0.89776581  1
  In  In38  1  -0.00697055  0.50025162  0.37007036  1
  In  In39  1  0.00041943  0.49740090  0.88175072  1
  In  In40  1  0.00888647  0.82462491  0.37477869  1
  In  In41  1  0.00238102  0.82883890  0.88127832  1
  In  In42  1  0.33492534  0.15940086  0.37647734  1
  In  In43  1  0.31828671  0.18397898  0.88405163  1
  In  In44  1  0.34034479  0.51557473  0.37286839  1
  In  In45  1  0.33431784  0.49591690  0.87195274  1
  In  In46  1  0.34830355  0.82700821  0.38094484  1
  In  In47  1  0.33483486  0.81403075  0.87449170  1
  In  In48  1  0.66109986  0.18403393  0.37068925  1
  In  In49  1  0.66512262  0.17011797  0.87839104  1
  In  In50  1  0.66187618  0.49455922  0.36928175  1
  In  In51  1  0.66882028  0.50091750  0.87042351  1
  In  In52  1  0.67106013  0.81998851  0.37653978  1
  In  In53  1  0.67883026  0.83001912  0.86002832  1
  In  In54  1  0.17144576  -0.00348543  0.11835291  1
  In  In55  1  0.15844210  0.01033040  0.62594518  1
  In  In56  1  0.16394971  0.35103138  0.10922292  1
  In  In57  1  0.17297444  0.33451174  0.63216015  1
  In  In58  1  0.16327882  0.66096382  0.12312331  1
  In  In59  1  0.16605775  0.66453360  0.63314579  1
  In  In60  1  0.49016877  0.00485602  0.12302714  1
  In  In61  1  0.51623095  -0.00173459  0.62775807  1
  In  In62  1  0.50379783  0.34058381  0.11802575  1
  In  In63  1  0.49147675  0.35161664  0.64812757  1
  In  In64  1  0.51199995  0.65727578  0.13272534  1
  In  In65  1  0.49687884  0.66771812  0.62125824  1
  In  In66  1  0.83981737  0.00676845  0.11534768  1
  In  In67  1  0.82816846  -0.01263522  0.63364994  1
  In  In68  1  0.82777101  0.33258695  0.10978767  1
  In  In69  1  0.82067071  0.34869195  0.64174381  1
  In  In70  1  0.82883575  0.66359852  0.11713315  1
  In  In71  1  0.83225696  0.67205932  0.63636669  1
  In  In72  1  -0.00405236  0.34345468  0.23730075  1
  In  In73  1  0.16675733  0.50205780  0.49357148  1
  In  In74  1  0.82651632  0.50489619  0.50893467  1
  In  In75  1  0.67008414  -0.00323027  0.24005317  1
  In  In76  1  0.50368802  0.16657431  0.49942976  1
  In  In77  1  0.33560677  0.33730617  0.23514644  1
  In  In78  1  0.17439034  0.83567851  0.50924186  1
  In  In79  1  0.33506619  0.00139660  0.75983724  1
  In  In80  1  0.84028318  0.16513624  0.50681879  1
  In  In81  1  0.83455414  0.82761236  0.50949458  1
  In  In82  1  0.33561602  -0.00484538  0.25598294  1
  In  In83  1  -0.00390286  0.00184705  0.75619561  1
  In  In84  1  0.50560581  0.82544369  -0.00731408  1
  In  In85  1  -0.00102639  -0.00050043  0.23480653  1
  Cu  Cu86  1  0.83667893  0.16681960  0.76352322  1
  Cu  Cu87  1  0.16539832  0.18097781  0.75623193  1
  Cu  Cu88  1  0.16450075  0.82723148  0.75708615  1
  Cu  Cu89  1  0.82524333  0.17928785  0.24058096  1
  Cu  Cu90  1  0.33595238  -0.00157534  -0.00072489  1
  Cu  Cu91  1  0.66542812  0.66406747  -0.00607032  1
  Cu  Cu92  1  0.84456059  0.49521800  0.76091698  1
  Cu  Cu93  1  0.83884102  0.82061690  0.24453348  1
  Cu  Cu94  1  0.33660333  0.34222714  -0.00279666  1
  Cu  Cu95  1  0.16743755  0.16583963  0.24753415  1
  Cu  Cu96  1  0.33671336  0.66340941  0.49935530  1
  Cu  Cu97  1  0.33208086  0.00877954  0.50177182  1
  Cu  Cu98  1  0.82485934  0.50379851  0.24109305  1
  Cu  Cu99  1  0.00248247  -0.00555430  0.00083977  1
  Cu  Cu100  1  0.65917026  0.33792230  -0.00750152  1
  Cu  Cu101  1  0.49843789  0.50134211  0.24814785  1
  Cu  Cu102  1  0.33666180  0.33678431  0.51106095  1
  Cu  Cu103  1  0.66902965  -0.00497872  0.50376785  1
  Cu  Cu104  1  0.00472029  0.33121673  0.50457499  1
  Cu  Cu105  1  0.00189036  0.00798404  0.50059649  1
  Cu  Cu106  1  0.16388423  0.50260095  0.75556738  1
  Cu  Cu107  1  0.66713417  -0.00419573  -0.00322106  1
  Cu  Cu108  1  0.50144673  0.83015348  0.75129130  1
  Cu  Cu109  1  -0.00290634  0.66904283  -0.00414138  1
  Cu  Cu110  1  0.16588988  0.81799386  0.24657138  1
  Cu  Cu111  1  0.50088572  0.82547215  0.25582168  1
  Cu  Cu112  1  0.66019429  0.33670059  0.50092343  1
  Cu  Cu113  1  0.33388958  0.66060639  -0.00333305  1
  Cu  Cu114  1  0.49897054  0.16940752  0.75592835  1
  Se  Se115  1  0.08391369  0.07885508  0.05514008  1
  Se  Se116  1  0.08608507  0.09093860  0.55160503  1
  Se  Se117  1  0.05159220  0.39294844  0.04587213  1
  Se  Se118  1  0.07930537  0.41956810  0.56208795  1
  Se  Se119  1  0.08451084  0.74654416  0.05245030  1
  Se  Se120  1  0.07930548  0.74168075  0.55664273  1
  Se  Se121  1  0.42126127  0.08451209  0.04656308  1
  Se  Se122  1  0.41408409  0.08282283  0.56604931  1
  Se  Se123  1  0.41917083  0.42420951  0.05220985  1
  Se  Se124  1  0.42235260  0.41591356  0.56282248  1
  Se  Se125  1  0.41618115  0.74075613  0.05788434  1
  Se  Se126  1  0.41608013  0.75282989  0.54979365  1
  Se  Se127  1  0.74640202  0.08133161  0.05179072  1
  Se  Se128  1  0.74434087  0.07749245  0.56327367  1
  Se  Se129  1  0.74443336  0.42101629  0.04618624  1
  Se  Se130  1  0.73844404  0.41268883  0.56279650  1
  Se  Se131  1  0.74632345  0.74958997  0.04788024  1
  Se  Se132  1  0.73924791  0.73733065  0.56011285  1
  Se  Se133  1  0.25270933  0.26021065  0.05258400  1
  Se  Se134  1  0.24689136  0.25339748  0.55588922  1
  Se  Se135  1  0.24798016  0.58158792  0.05191437  1
  Se  Se136  1  0.25358462  0.58633889  0.55990748  1
  Se  Se137  1  0.25469685  0.91344634  0.05146020  1
  Se  Se138  1  0.26236369  0.92791000  0.56948703  1
  Se  Se139  1  0.57901558  0.25277083  0.04790256  1
  Se  Se140  1  0.58582434  0.25460109  0.56337997  1
  Se  Se141  1  0.57877781  0.58633147  0.05029114  1
  Se  Se142  1  0.58617712  0.56693063  0.57662327  1
  Se  Se143  1  0.58653486  0.91871067  0.06036964  1
  Se  Se144  1  0.58496362  0.91293449  0.55459964  1
  Se  Se145  1  0.89836966  0.23279269  0.04763895  1
  Se  Se146  1  0.91860987  0.26233387  0.56686270  1
  Se  Se147  1  0.90844295  0.58388366  0.04423403  1
  Se  Se148  1  0.92364618  0.59407890  0.56136594  1
  Se  Se149  1  0.91307019  0.91328279  0.05039597  1
  Se  Se150  1  0.92893823  0.92626015  0.56100884  1
  Se  Se151  1  0.08603388  0.24809006  0.45090783  1
  Se  Se152  1  0.11265326  0.22769591  0.94169758  1
  Se  Se153  1  0.07042904  0.59149170  0.44018087  1
  Se  Se154  1  0.08375884  0.58167913  0.95032590  1
  Se  Se155  1  0.08133905  0.92401356  0.44288695  1
  Se  Se156  1  0.08685038  0.91213974  0.94864060  1
  Se  Se157  1  0.41216794  0.25835072  0.44214428  1
  Se  Se158  1  0.41813721  0.25831218  0.94302009  1
  Se  Se159  1  0.42277900  0.58103440  0.44889491  1
  Se  Se160  1  0.41803510  0.58380854  0.93980911  1
  Se  Se161  1  0.41315905  0.92135595  0.45148338  1
  Se  Se162  1  0.41310549  0.91923496  0.93623548  1
  Se  Se163  1  0.74912105  0.25760161  0.44638338  1
  Se  Se164  1  0.74842939  0.25377745  0.94558305  1
  Se  Se165  1  0.74214732  0.58686849  0.43934906  1
  Se  Se166  1  0.75078559  0.57979751  0.94276422  1
  Se  Se167  1  0.75311972  0.92229140  0.44286381  1
  Se  Se168  1  0.74291054  0.90893385  0.94134216  1
  Se  Se169  1  0.24801795  0.08942388  0.44948497  1
  Se  Se170  1  0.25165027  0.08285501  0.94792092  1
  Se  Se171  1  0.26194100  0.40956069  0.44018843  1
  Se  Se172  1  0.24934061  0.42211996  0.94520083  1
  Se  Se173  1  0.25032843  0.74153748  0.44149071  1
  Se  Se174  1  0.24953049  0.74784003  0.94841507  1
  Se  Se175  1  0.59851728  0.07762243  0.43872976  1
  Se  Se176  1  0.58413281  0.08284249  0.94823084  1
  Se  Se177  1  0.58122349  0.41823600  0.44432389  1
  Se  Se178  1  0.57996266  0.42497892  0.93978194  1
  Se  Se179  1  0.57381670  0.76175355  0.44303946  1
  Se  Se180  1  0.58581367  0.73672523  0.92721285  1
  Se  Se181  1  0.92332428  0.07846298  0.43474231  1
  Se  Se182  1  0.91611118  0.07675302  0.94942128  1
  Se  Se183  1  0.92233356  0.40982635  0.44546402  1
  Se  Se184  1  0.93879180  0.40044462  0.95245521  1
  Se  Se185  1  0.91729658  0.74372162  0.43984090  1
  Se  Se186  1  0.91026094  0.75038043  0.94531637  1
  Se  Se187  1  0.24962343  0.24605021  0.30605944  1
  Se  Se188  1  0.25496255  0.26205098  0.80389548  1
  Se  Se189  1  0.25000427  0.57537883  0.30098893  1
  Se  Se190  1  0.24769846  0.58484234  0.80884586  1
  Se  Se191  1  0.24193603  0.89894295  0.30999648  1
  Se  Se192  1  0.23989923  0.91236388  0.81584691  1
  Se  Se193  1  0.58500549  0.25153219  0.29414688  1
  Se  Se194  1  0.58198480  0.25221257  0.80942222  1
  Se  Se195  1  0.58099800  0.58348971  0.30474399  1
  Se  Se196  1  0.59009853  0.57504014  0.79144914  1
  Se  Se197  1  0.58028315  0.91499039  0.30844419  1
  Se  Se198  1  0.58692185  0.91488616  0.79930277  1
  Se  Se199  1  0.90965190  0.25082182  0.30517599  1
  Se  Se200  1  0.91998944  0.25180537  0.81339578  1
  Se  Se201  1  0.91226506  0.57790577  0.29938736  1
  Se  Se202  1  0.92362084  0.58295005  0.81138643  1
  Se  Se203  1  0.91546771  0.90658614  0.30278064  1
  Se  Se204  1  0.90917796  0.91021833  0.81298146  1
  Se  Se205  1  0.08782362  0.08423649  0.30509850  1
  Se  Se206  1  0.08263156  0.09818171  0.81176078  1
  Se  Se207  1  0.09002395  0.41981871  0.30605797  1
  Se  Se208  1  0.08257747  0.41773673  0.80858737  1
  Se  Se209  1  0.07668362  0.74261558  0.30016968  1
  Se  Se210  1  0.08057512  0.74644745  0.81009812  1
  Se  Se211  1  0.43036546  0.09341575  0.30466110  1
  Se  Se212  1  0.42105045  0.09214723  0.81956602  1
  Se  Se213  1  0.42164003  0.41667621  0.30752383  1
  Se  Se214  1  0.42119915  0.42797151  0.79786108  1
  Se  Se215  1  0.41424069  0.74341419  0.30599038  1
  Se  Se216  1  0.41683813  0.74552637  0.79994085  1
  Se  Se217  1  0.75532132  0.09515113  0.30342353  1
  Se  Se218  1  0.74721851  0.08393230  0.80924063  1
  Se  Se219  1  0.74652946  0.41757857  0.29710747  1
  Se  Se220  1  0.75680677  0.41310230  0.81028447  1
  Se  Se221  1  0.74920010  0.74931413  0.30031083  1
  Se  Se222  1  0.74151430  0.72793545  0.79762944  1
  Se  Se223  1  0.25121099  0.08621084  0.19052464  1
  Se  Se224  1  0.24314159  0.09228456  0.69890555  1
  Se  Se225  1  0.23756330  0.42775761  0.18803982  1
  Se  Se226  1  0.24955276  0.42187690  0.69938913  1
  Se  Se227  1  0.25147798  0.73814754  0.19466392  1
  Se  Se228  1  0.24778798  0.74709812  0.70238071  1
  Se  Se229  1  0.57979505  0.08889821  0.18692504  1
  Se  Se230  1  0.58025314  0.08448487  0.70264568  1
  Se  Se231  1  0.58084787  0.42091390  0.19114471  1
  Se  Se232  1  0.61679202  0.38684553  0.69485051  1
  Se  Se233  1  0.58720311  0.74687009  0.20180380  1
  Se  Se234  1  0.58019204  0.74969585  0.69253135  1
  Se  Se235  1  0.91267817  0.10228474  0.18703356  1
  Se  Se236  1  0.90925712  0.09277804  0.69160980  1
  Se  Se237  1  0.90678516  0.42939976  0.17778562  1
  Se  Se238  1  0.92549571  0.40923645  0.70490541  1
  Se  Se239  1  0.91823970  0.73842203  0.18909091  1
  Se  Se240  1  0.90771014  0.76283216  0.70190577  1
  Se  Se241  1  0.09513293  0.25008043  0.18709224  1
  Se  Se242  1  0.08141837  0.25726061  0.69842405  1
  Se  Se243  1  0.07751240  0.57493934  0.18678642  1
  Se  Se244  1  0.08004367  0.58652413  0.70155587  1
  Se  Se245  1  0.09171904  0.90292289  0.18653079  1
  Se  Se246  1  0.09097765  0.91128912  0.69481825  1
  Se  Se247  1  0.42576518  0.24049952  0.18600122  1
  Se  Se248  1  0.41237657  0.25197598  0.70504405  1
  Se  Se249  1  0.41449113  0.58435803  0.19591229  1
  Se  Se250  1  0.40107027  0.60729191  0.69315380  1
  Se  Se251  1  0.42221940  0.90323143  0.19228050  1
  Se  Se252  1  0.41946587  0.91374333  0.69273878  1
  Se  Se253  1  0.74546227  0.26053495  0.18661255  1
  Se  Se254  1  0.75534921  0.24476998  0.70381551  1
  Se  Se255  1  0.74162849  0.58766147  0.18803948  1
  Se  Se256  1  0.77145156  0.55565029  0.68597776  1
  Se  Se257  1  0.76485585  0.90779579  0.18529667  1
  Se  Se258  1  0.74377530  0.91540215  0.70192297  1
