# generated using pymatgen
data_In86Cu29Se144
_symmetry_space_group_name_H-M   'P 1'
_cell_length_a   17.59442130
_cell_length_b   17.59338524
_cell_length_c   23.45355962
_cell_angle_alpha   89.98580035
_cell_angle_beta   89.97896138
_cell_angle_gamma   89.99690342
_symmetry_Int_Tables_number   1
_chemical_formula_structural   In86Cu29Se144
_chemical_formula_sum   'In86 Cu29 Se144'
_cell_volume   7259.94152400
_cell_formula_units_Z   1
loop_
 _symmetry_equiv_pos_site_id
 _symmetry_equiv_pos_as_xyz
  1  'x, y, z'
loop_
 _atom_site_type_symbol
 _atom_site_label
 _atom_site_symmetry_multiplicity
 _atom_site_fract_x
 _atom_site_fract_y
 _atom_site_fract_z
 _atom_site_occupancy
  In  In0  1  -0.00361880  0.17447626  0.13259681  1
  In  In1  1  0.00634461  0.17729111  0.61359855  1
  In  In2  1  -0.00143763  0.49926301  0.12692197  1
  In  In3  1  -0.00560893  0.49075073  0.62843227  1
  In  In4  1  0.00371309  0.82699684  0.14301401  1
  In  In5  1  0.00511132  0.83973362  0.61360429  1
  In  In6  1  0.33091673  0.17314587  0.14274962  1
  In  In7  1  0.32178633  0.16227366  0.60253595  1
  In  In8  1  0.33244854  0.50343053  0.12459402  1
  In  In9  1  0.32219181  0.50704298  0.61685907  1
  In  In10  1  0.34274163  0.82396692  0.13863402  1
  In  In11  1  0.33546512  0.81654337  0.60545763  1
  In  In12  1  0.66944994  0.15156851  0.12826243  1
  In  In13  1  0.66208134  0.15903628  0.61204574  1
  In  In14  1  0.67467127  0.51051884  0.11883752  1
  In  In15  1  0.68059076  0.51214767  0.62971927  1
  In  In16  1  0.66226152  0.84730322  0.13853394  1
  In  In17  1  0.65895890  0.82331785  0.61735143  1
  In  In18  1  0.16541635  -0.00027242  0.37398527  1
  In  In19  1  0.17998695  0.00331259  0.87626650  1
  In  In20  1  0.16791859  0.33580519  0.37702701  1
  In  In21  1  0.16356194  0.35101443  0.87614340  1
  In  In22  1  0.17091532  0.66800141  0.37932808  1
  In  In23  1  0.15748753  0.65634501  0.87501566  1
  In  In24  1  0.49898785  -0.00296636  0.37438426  1
  In  In25  1  0.48887947  0.00049594  0.88005156  1
  In  In26  1  0.48088885  0.32966118  0.37270430  1
  In  In27  1  0.50867962  0.33590464  0.87916603  1
  In  In28  1  0.50698768  0.67853612  0.36862331  1
  In  In29  1  0.50561440  0.65954255  0.88441335  1
  In  In30  1  0.83932425  -0.00666321  0.36415225  1
  In  In31  1  0.84460367  0.00267967  0.87842953  1
  In  In32  1  0.83886414  0.31797444  0.37666614  1
  In  In33  1  0.84244336  0.32580433  0.88440355  1
  In  In34  1  0.85245617  0.69211502  0.34973879  1
  In  In35  1  0.82656989  0.67226144  0.87781712  1
  In  In36  1  0.00045141  0.16636630  0.36965088  1
  In  In37  1  -0.01410101  0.16470136  0.87604839  1
  In  In38  1  0.01657165  0.51347589  0.36376167  1
  In  In39  1  0.01248731  0.49678969  0.88444558  1
  In  In40  1  -0.00027685  0.83724725  0.37190203  1
  In  In41  1  -0.00146143  0.82346830  0.87492089  1
  In  In42  1  0.33388353  0.17051512  0.38058293  1
  In  In43  1  0.33762986  0.16489433  0.87632581  1
  In  In44  1  0.32068819  0.48955102  0.36801006  1
  In  In45  1  0.32525098  0.50264822  0.89147192  1
  In  In46  1  0.32972089  0.82803861  0.37694659  1
  In  In47  1  0.34365489  0.84465805  0.88101003  1
  In  In48  1  0.68043257  0.14950342  0.38194316  1
  In  In49  1  0.66868996  0.18097659  0.87745696  1
  In  In50  1  0.66161377  0.51448419  0.37029332  1
  In  In51  1  0.65802134  0.51023680  0.88741370  1
  In  In52  1  0.66976145  0.83273391  0.36860031  1
  In  In53  1  0.66938245  0.81886005  0.87643573  1
  In  In54  1  0.17118168  -0.00115741  0.14254719  1
  In  In55  1  0.16115476  -0.00126328  0.61278488  1
  In  In56  1  0.16710655  0.33855505  0.13254300  1
  In  In57  1  0.15645056  0.32408252  0.61463938  1
  In  In58  1  0.16738618  0.66423563  0.13305660  1
  In  In59  1  0.17358711  0.66728887  0.60321342  1
  In  In60  1  0.50624752  -0.00702173  0.13783851  1
  In  In61  1  0.49045839  -0.00941815  0.60892714  1
  In  In62  1  0.48575790  0.34215638  0.12741796  1
  In  In63  1  0.50567898  0.32735046  0.62024369  1
  In  In64  1  0.49546174  0.66830486  0.12567908  1
  In  In65  1  0.50679956  0.67222305  0.61796023  1
  In  In66  1  0.82681581  -0.00116775  0.13581587  1
  In  In67  1  0.83696678  0.00143832  0.61153181  1
  In  In68  1  0.84325203  0.34532732  0.11709119  1
  In  In69  1  0.84612543  0.33929133  0.62175038  1
  In  In70  1  0.84151047  0.66302377  0.14429970  1
  In  In71  1  0.82056443  0.65972702  0.62595395  1
  In  In72  1  0.83206166  0.82680935  0.00737858  1
  In  In73  1  0.33521219  0.66910525  0.73784988  1
  In  In74  1  0.33229436  0.33427814  0.75221077  1
  In  In75  1  0.50391735  0.17070523  0.00230289  1
  In  In76  1  0.16394733  0.17381132  0.01791204  1
  In  In77  1  0.83306747  0.49949703  0.50003081  1
  In  In78  1  0.00022537  0.00459004  0.73378855  1
  In  In79  1  0.16529835  0.82828720  0.00831082  1
  In  In80  1  0.66708191  0.33222524  0.25172955  1
  In  In81  1  0.32457366  -0.01113142  0.73103407  1
  In  In82  1  0.66688516  -0.00520730  0.74944607  1
  In  In83  1  -0.00120608  0.66263129  0.75031129  1
  In  In84  1  0.49334870  0.49649325  0.49547277  1
  In  In85  1  0.67393216  0.34242473  0.75323469  1
  Cu  Cu86  1  -0.00134305  -0.00627336  0.00253609  1
  Cu  Cu87  1  0.50825383  0.81888803  0.74745199  1
  Cu  Cu88  1  0.49278453  0.16189811  0.74071858  1
  Cu  Cu89  1  0.16311886  0.50116633  0.74939421  1
  Cu  Cu90  1  0.83832695  0.49356206  0.24756173  1
  Cu  Cu91  1  0.00494624  0.33139457  0.00590415  1
  Cu  Cu92  1  0.16498444  0.50168666  0.24969162  1
  Cu  Cu93  1  0.50259354  0.16564892  0.25582297  1
  Cu  Cu94  1  0.34084473  -0.00001109  0.01092949  1
  Cu  Cu95  1  0.33342376  -0.00187218  0.48943578  1
  Cu  Cu96  1  -0.00547154  0.00144811  0.49025690  1
  Cu  Cu97  1  0.49361309  0.83612610  0.25362844  1
  Cu  Cu98  1  0.83275545  0.83034044  0.74688953  1
  Cu  Cu99  1  0.83674111  0.16579430  0.25006326  1
  Cu  Cu100  1  0.49351610  0.50457549  0.24941385  1
  Cu  Cu101  1  0.67459301  0.67307157  0.49260570  1
  Cu  Cu102  1  0.33107388  0.67224729  0.00807195  1
  Cu  Cu103  1  0.66195891  0.32711638  0.49444060  1
  Cu  Cu104  1  0.16917634  0.16552739  0.25854159  1
  Cu  Cu105  1  0.66883506  -0.00521103  0.49239435  1
  Cu  Cu106  1  0.16694816  0.83055929  0.25951463  1
  Cu  Cu107  1  0.82939621  0.17917559  0.75108400  1
  Cu  Cu108  1  -0.00264481  0.67007120  0.48797067  1
  Cu  Cu109  1  0.67096740  -0.00190288  0.00911738  1
  Cu  Cu110  1  0.66118953  0.67458575  0.00601168  1
  Cu  Cu111  1  0.00163547  0.33611344  0.49464270  1
  Cu  Cu112  1  0.15179853  0.17446858  0.74600910  1
  Cu  Cu113  1  0.50550423  0.50515822  0.75727106  1
  Cu  Cu114  1  0.67018928  0.33466891  0.00188465  1
  Se  Se115  1  0.07883334  0.06944196  0.06609578  1
  Se  Se116  1  0.07786133  0.08291077  0.54737784  1
  Se  Se117  1  0.08535641  0.41517642  0.05994646  1
  Se  Se118  1  0.07667546  0.42042862  0.55406126  1
  Se  Se119  1  0.07007991  0.74218264  0.06419572  1
  Se  Se120  1  0.08082356  0.75173473  0.54509766  1
  Se  Se121  1  0.41651254  0.08658745  0.06905023  1
  Se  Se122  1  0.41731900  0.08319568  0.54320846  1
  Se  Se123  1  0.41737973  0.42425818  0.05423565  1
  Se  Se124  1  0.40789126  0.40748827  0.55975573  1
  Se  Se125  1  0.41588910  0.75745479  0.05652503  1
  Se  Se126  1  0.42534814  0.73829689  0.54294351  1
  Se  Se127  1  0.75785980  0.08028077  0.05723917  1
  Se  Se128  1  0.75034789  0.08182036  0.54577783  1
  Se  Se129  1  0.75267008  0.42179729  0.05144153  1
  Se  Se130  1  0.73700681  0.40882759  0.55713319  1
  Se  Se131  1  0.74093828  0.74724631  0.07138921  1
  Se  Se132  1  0.75602894  0.75023854  0.55329224  1
  Se  Se133  1  0.26586762  0.26054142  0.06426777  1
  Se  Se134  1  0.24283513  0.25468317  0.54353386  1
  Se  Se135  1  0.24583617  0.58882907  0.05790242  1
  Se  Se136  1  0.26077840  0.58731199  0.53911402  1
  Se  Se137  1  0.25567919  0.92062845  0.06620126  1
  Se  Se138  1  0.25566316  0.91930040  0.55190980  1
  Se  Se139  1  0.59238819  0.25678220  0.06632344  1
  Se  Se140  1  0.57767737  0.24468979  0.54718927  1
  Se  Se141  1  0.57913661  0.58591882  0.05571347  1
  Se  Se142  1  0.59805426  0.58235186  0.54995009  1
  Se  Se143  1  0.58356209  0.91918738  0.06026438  1
  Se  Se144  1  0.58594051  0.91271570  0.54862041  1
  Se  Se145  1  0.91893402  0.24615889  0.05486562  1
  Se  Se146  1  0.91453385  0.25460777  0.54744740  1
  Se  Se147  1  0.90511225  0.58276123  0.06710923  1
  Se  Se148  1  0.92444270  0.59262504  0.55772532  1
  Se  Se149  1  0.92434062  0.91455080  0.06632985  1
  Se  Se150  1  0.91586017  0.91445516  0.54573396  1
  Se  Se151  1  0.07982226  0.24884989  0.44130864  1
  Se  Se152  1  0.07975858  0.24849112  0.94157571  1
  Se  Se153  1  0.08455930  0.58141259  0.44658325  1
  Se  Se154  1  0.08933466  0.58383804  0.95277988  1
  Se  Se155  1  0.08177439  0.91645997  0.44328665  1
  Se  Se156  1  0.08048796  0.92256156  0.93975082  1
  Se  Se157  1  0.41485653  0.25362870  0.45055718  1
  Se  Se158  1  0.40893012  0.25882201  0.94417107  1
  Se  Se159  1  0.41622608  0.58292754  0.42766120  1
  Se  Se160  1  0.41325236  0.58818682  0.95213966  1
  Se  Se161  1  0.41885735  0.91086360  0.44360615  1
  Se  Se162  1  0.42319685  0.91812120  0.95660319  1
  Se  Se163  1  0.75283893  0.24616206  0.44775014  1
  Se  Se164  1  0.75253485  0.24672686  0.95230113  1
  Se  Se165  1  0.75545294  0.59235939  0.43482506  1
  Se  Se166  1  0.74678093  0.59434034  0.95065122  1
  Se  Se167  1  0.75353478  0.91635210  0.43680262  1
  Se  Se168  1  0.74622703  0.92116444  0.94137708  1
  Se  Se169  1  0.24574106  0.08373027  0.44441662  1
  Se  Se170  1  0.25896641  0.08183052  0.95402549  1
  Se  Se171  1  0.24833868  0.41793950  0.44705033  1
  Se  Se172  1  0.24884193  0.40885820  0.95188654  1
  Se  Se173  1  0.24092260  0.75916838  0.44907280  1
  Se  Se174  1  0.25520193  0.74741714  0.93911220  1
  Se  Se175  1  0.58132385  0.08016458  0.44558799  1
  Se  Se176  1  0.59458498  0.07607087  0.94135691  1
  Se  Se177  1  0.58959501  0.41068268  0.43362662  1
  Se  Se178  1  0.58123075  0.41657525  0.95270996  1
  Se  Se179  1  0.58638751  0.75412409  0.44329390  1
  Se  Se180  1  0.57964256  0.75606695  0.94966242  1
  Se  Se181  1  0.91225941  0.08280348  0.43549197  1
  Se  Se182  1  0.91708256  0.08213822  0.95285324  1
  Se  Se183  1  0.92316691  0.41881004  0.43430234  1
  Se  Se184  1  0.92333136  0.41416593  0.94944885  1
  Se  Se185  1  0.91094539  0.75357793  0.43948404  1
  Se  Se186  1  0.92741639  0.73927055  0.94888955  1
  Se  Se187  1  0.25242934  0.25171879  0.30821312  1
  Se  Se188  1  0.23968294  0.24105268  0.81019794  1
  Se  Se189  1  0.24670954  0.58571725  0.30429298  1
  Se  Se190  1  0.25153640  0.57691660  0.80507516  1
  Se  Se191  1  0.25185690  0.91669865  0.30730130  1
  Se  Se192  1  0.24550997  0.90598572  0.80626593  1
  Se  Se193  1  0.58518891  0.24294589  0.31698902  1
  Se  Se194  1  0.57235026  0.24180453  0.80120849  1
  Se  Se195  1  0.58043575  0.58777029  0.29756367  1
  Se  Se196  1  0.58736980  0.58919420  0.80832840  1
  Se  Se197  1  0.58204624  0.91802000  0.30311724  1
  Se  Se198  1  0.57252333  0.91000922  0.81041815  1
  Se  Se199  1  0.91951480  0.25227154  0.29915050  1
  Se  Se200  1  0.91864443  0.25433940  0.80386500  1
  Se  Se201  1  0.92044591  0.58183008  0.29662095  1
  Se  Se202  1  0.91619636  0.57980302  0.81797968  1
  Se  Se203  1  0.90269869  0.89261571  0.29613108  1
  Se  Se204  1  0.91468349  0.91189925  0.80332697  1
  Se  Se205  1  0.08109861  0.07892764  0.30236955  1
  Se  Se206  1  0.08720305  0.08444784  0.80815238  1
  Se  Se207  1  0.08496511  0.41218916  0.30191866  1
  Se  Se208  1  0.07889446  0.41904661  0.80202812  1
  Se  Se209  1  0.08255526  0.74530389  0.30897150  1
  Se  Se210  1  0.09461334  0.75706254  0.80429204  1
  Se  Se211  1  0.41630389  0.08725731  0.30994191  1
  Se  Se212  1  0.41369135  0.08037629  0.79929406  1
  Se  Se213  1  0.41349111  0.41571866  0.29912804  1
  Se  Se214  1  0.42175567  0.42628460  0.81335296  1
  Se  Se215  1  0.41034817  0.74881019  0.30262296  1
  Se  Se216  1  0.41987762  0.75183038  0.80965280  1
  Se  Se217  1  0.75183503  0.08150419  0.29996362  1
  Se  Se218  1  0.75611501  0.09118776  0.80870436  1
  Se  Se219  1  0.75777630  0.42073128  0.31357814  1
  Se  Se220  1  0.75300822  0.42232474  0.82455633  1
  Se  Se221  1  0.72396185  0.72391383  0.30456812  1
  Se  Se222  1  0.75077465  0.74882837  0.80125629  1
  Se  Se223  1  0.25634961  0.08135450  0.20811993  1
  Se  Se224  1  0.23533625  0.09578927  0.68621691  1
  Se  Se225  1  0.25342979  0.42095040  0.19794376  1
  Se  Se226  1  0.24243763  0.41972789  0.68876099  1
  Se  Se227  1  0.24739751  0.74917878  0.20144851  1
  Se  Se228  1  0.24022278  0.75681679  0.68283605  1
  Se  Se229  1  0.58692592  0.08273774  0.20317327  1
  Se  Se230  1  0.57358045  0.07872214  0.68571611  1
  Se  Se231  1  0.58121489  0.42531178  0.19144444  1
  Se  Se232  1  0.57754902  0.42562785  0.69079184  1
  Se  Se233  1  0.57400262  0.75541961  0.19550777  1
  Se  Se234  1  0.59212056  0.73835033  0.69432451  1
  Se  Se235  1  0.92012159  0.08119969  0.19747297  1
  Se  Se236  1  0.90371266  0.09884928  0.68561128  1
  Se  Se237  1  0.92182863  0.40862055  0.19746385  1
  Se  Se238  1  0.89765150  0.43050634  0.69713165  1
  Se  Se239  1  0.90126857  0.76799871  0.20925376  1
  Se  Se240  1  0.91716608  0.75693806  0.68578063  1
  Se  Se241  1  0.09100154  0.24591988  0.19800052  1
  Se  Se242  1  0.07257545  0.25851663  0.69256641  1
  Se  Se243  1  0.07803413  0.58396306  0.19846355  1
  Se  Se244  1  0.09356800  0.58359154  0.68431616  1
  Se  Se245  1  0.08433538  0.91615478  0.20664669  1
  Se  Se246  1  0.09645727  0.90726502  0.69058257  1
  Se  Se247  1  0.42396304  0.25447453  0.20368196  1
  Se  Se248  1  0.41096419  0.24128147  0.68399766  1
  Se  Se249  1  0.41133786  0.58829210  0.19571622  1
  Se  Se250  1  0.42733131  0.57172785  0.68602517  1
  Se  Se251  1  0.40888453  0.92451518  0.20364510  1
  Se  Se252  1  0.42672152  0.89551976  0.68564105  1
  Se  Se253  1  0.75789026  0.24799412  0.18811990  1
  Se  Se254  1  0.74646699  0.24677727  0.68516851  1
  Se  Se255  1  0.74741695  0.57635298  0.20149144  1
  Se  Se256  1  0.75928028  0.57990784  0.70517366  1
  Se  Se257  1  0.75507106  0.91447678  0.20786856  1
  Se  Se258  1  0.75718069  0.91234272  0.68567872  1
