# generated using pymatgen
data_In86Cu29Se144
_symmetry_space_group_name_H-M   'P 1'
_cell_length_a   17.57102138
_cell_length_b   17.57685125
_cell_length_c   23.43165064
_cell_angle_alpha   90.00284585
_cell_angle_beta   90.00660080
_cell_angle_gamma   90.02635426
_symmetry_Int_Tables_number   1
_chemical_formula_structural   In86Cu29Se144
_chemical_formula_sum   'In86 Cu29 Se144'
_cell_volume   7236.70582253
_cell_formula_units_Z   1
loop_
 _symmetry_equiv_pos_site_id
 _symmetry_equiv_pos_as_xyz
  1  'x, y, z'
loop_
 _atom_site_type_symbol
 _atom_site_label
 _atom_site_symmetry_multiplicity
 _atom_site_fract_x
 _atom_site_fract_y
 _atom_site_fract_z
 _atom_site_occupancy
  In  In0  1  -0.00468945  0.16765736  0.12454272  1
  In  In1  1  -0.01562208  0.16858923  0.62413704  1
  In  In2  1  0.00529034  0.49664008  0.12312160  1
  In  In3  1  0.01423350  0.49790360  0.62054365  1
  In  In4  1  -0.00327760  0.83481612  0.13227656  1
  In  In5  1  -0.00924900  0.84357931  0.62974537  1
  In  In6  1  0.32391795  0.16563314  0.11657113  1
  In  In7  1  0.34958761  0.15500045  0.62582782  1
  In  In8  1  0.32201256  0.51061179  0.12052222  1
  In  In9  1  0.32982353  0.51105250  0.62481894  1
  In  In10  1  0.33677339  0.82873727  0.13280054  1
  In  In11  1  0.32138885  0.82755041  0.62352358  1
  In  In12  1  0.66618063  0.16215815  0.12121361  1
  In  In13  1  0.66468894  0.16168789  0.62749648  1
  In  In14  1  0.67803105  0.49394080  0.12920837  1
  In  In15  1  0.66747599  0.49985285  0.63557868  1
  In  In16  1  0.67385670  0.82734151  0.13095759  1
  In  In17  1  0.67674000  0.82628957  0.62755158  1
  In  In18  1  0.16668357  0.00451664  0.36480808  1
  In  In19  1  0.16328100  0.01105018  0.87815331  1
  In  In20  1  0.16199718  0.34584343  0.37553308  1
  In  In21  1  0.14895692  0.34621869  0.90283719  1
  In  In22  1  0.16005489  0.65796970  0.36691161  1
  In  In23  1  0.16389540  0.66490234  0.87185970  1
  In  In24  1  0.50529745  0.00635394  0.37212494  1
  In  In25  1  0.50808976  0.00151915  0.87394374  1
  In  In26  1  0.49114995  0.32859093  0.37347280  1
  In  In27  1  0.49927343  0.31976835  0.87940228  1
  In  In28  1  0.50199235  0.66788472  0.36033142  1
  In  In29  1  0.50579255  0.66580269  0.86784084  1
  In  In30  1  0.82837651  0.00156289  0.37560704  1
  In  In31  1  0.83837127  0.00652478  0.86888766  1
  In  In32  1  0.83038674  0.31683935  0.36582428  1
  In  In33  1  0.83128755  0.34130419  0.88574673  1
  In  In34  1  0.84301925  0.67640925  0.36559542  1
  In  In35  1  0.83201596  0.66292360  0.87178774  1
  In  In36  1  -0.02695806  0.14769768  0.34951738  1
  In  In37  1  0.00232586  0.16390264  0.88336311  1
  In  In38  1  0.00255926  0.51258482  0.36038739  1
  In  In39  1  -0.00894178  0.50610372  0.88657327  1
  In  In40  1  -0.00457320  0.82799204  0.37071968  1
  In  In41  1  0.00197026  0.83266480  0.86744699  1
  In  In42  1  0.34407359  0.16473270  0.37716817  1
  In  In43  1  0.32413081  0.18211609  0.89638894  1
  In  In44  1  0.31973721  0.49391509  0.37139914  1
  In  In45  1  0.31788981  0.50700631  0.88369109  1
  In  In46  1  0.33543464  0.83490691  0.36705270  1
  In  In47  1  0.34696173  0.83124201  0.87197469  1
  In  In48  1  0.68209349  0.15348098  0.38165265  1
  In  In49  1  0.66772982  0.16675176  0.87497871  1
  In  In50  1  0.66083047  0.50400935  0.36499163  1
  In  In51  1  0.67890588  0.50679497  0.87041882  1
  In  In52  1  0.67302644  0.84643774  0.37359972  1
  In  In53  1  0.66557897  0.83335177  0.86518035  1
  In  In54  1  0.15488431  0.00970359  0.13651331  1
  In  In55  1  0.16814864  -0.00902830  0.62746157  1
  In  In56  1  0.14612260  0.31658256  0.10076015  1
  In  In57  1  0.15275991  0.33690525  0.62219567  1
  In  In58  1  0.17761612  0.65060275  0.12541609  1
  In  In59  1  0.16977313  0.66219303  0.62866808  1
  In  In60  1  0.49716822  0.00526429  0.13388877  1
  In  In61  1  0.49623627  0.01927297  0.62131492  1
  In  In62  1  0.50987619  0.32687214  0.12088569  1
  In  In63  1  0.51376559  0.32952097  0.62974563  1
  In  In64  1  0.49296676  0.65986664  0.13278970  1
  In  In65  1  0.50056285  0.66568570  0.62946884  1
  In  In66  1  0.82090192  0.01736753  0.14081862  1
  In  In67  1  0.83271338  -0.00079603  0.62461481  1
  In  In68  1  0.85023071  0.34035234  0.11555132  1
  In  In69  1  0.83117849  0.31650597  0.62439743  1
  In  In70  1  0.85427146  0.63727625  0.14944049  1
  In  In71  1  0.82782042  0.67365060  0.62858563  1
  In  In72  1  0.16346479  0.17726459  0.49546514  1
  In  In73  1  0.33759068  -0.00252859  0.75102603  1
  In  In74  1  0.33097729  0.33951690  0.24549122  1
  In  In75  1  0.17013970  0.83325145  -0.00093416  1
  In  In76  1  0.49877469  0.49507743  0.00014625  1
  In  In77  1  0.83117007  0.83298552  0.00423528  1
  In  In78  1  0.67157439  0.33183484  0.24270379  1
  In  In79  1  0.49642711  0.49672970  0.49471371  1
  In  In80  1  0.50227939  0.83180645  0.00972010  1
  In  In81  1  0.16200662  0.83635776  0.50449054  1
  In  In82  1  0.83422980  0.49626585  0.49445200  1
  In  In83  1  0.50282633  0.83839866  0.49385515  1
  In  In84  1  0.32784537  0.33646976  0.76960212  1
  In  In85  1  -0.00787745  0.33736564  0.76140501  1
  Cu  Cu86  1  0.67049328  0.00877241  -0.00063805  1
  Cu  Cu87  1  0.66727607  0.32086535  0.50137069  1
  Cu  Cu88  1  0.16933628  0.50571457  0.75146252  1
  Cu  Cu89  1  0.00027699  0.66409404  0.49141262  1
  Cu  Cu90  1  0.82466095  0.15898907  0.74842796  1
  Cu  Cu91  1  0.50563428  0.82975496  0.74640776  1
  Cu  Cu92  1  0.33226040  0.00530101  0.00847418  1
  Cu  Cu93  1  0.67072359  0.00287898  0.50073218  1
  Cu  Cu94  1  0.15839924  0.16431428  0.75842635  1
  Cu  Cu95  1  0.67272158  0.66935360  0.50242362  1
  Cu  Cu96  1  0.00034212  0.33234162  0.49281442  1
  Cu  Cu97  1  0.83900250  0.49836784  0.75441973  1
  Cu  Cu98  1  0.32365238  0.66356196  0.49843348  1
  Cu  Cu99  1  0.83015766  0.83872108  0.25334580  1
  Cu  Cu100  1  -0.00474473  0.00852124  0.00705484  1
  Cu  Cu101  1  0.16510436  0.82838090  0.25000888  1
  Cu  Cu102  1  0.67532366  0.66076976  -0.00079391  1
  Cu  Cu103  1  0.16400419  0.82714302  0.74793406  1
  Cu  Cu104  1  -0.00511774  0.00731419  0.49825561  1
  Cu  Cu105  1  0.00099464  0.66176261  0.00453586  1
  Cu  Cu106  1  0.50097009  0.16671452  0.75569293  1
  Cu  Cu107  1  0.49567793  0.83663457  0.25103701  1
  Cu  Cu108  1  0.16810001  0.17641212  0.24143589  1
  Cu  Cu109  1  0.16501244  0.50064631  0.24359979  1
  Cu  Cu110  1  0.50463841  0.50210672  0.75116156  1
  Cu  Cu111  1  0.83477892  0.83332493  0.74843907  1
  Cu  Cu112  1  0.50454928  0.16308225  0.25177268  1
  Cu  Cu113  1  0.67275660  0.32935578  0.00197397  1
  Cu  Cu114  1  0.33355412  0.32927277  0.49819637  1
  Se  Se115  1  0.08719819  0.08563045  0.05693991  1
  Se  Se116  1  0.08051065  0.08033658  0.55984979  1
  Se  Se117  1  0.10116001  0.43841485  0.05036448  1
  Se  Se118  1  0.08473450  0.41592387  0.54428442  1
  Se  Se119  1  0.07848140  0.74748242  0.06140811  1
  Se  Se120  1  0.07255184  0.74278884  0.56043079  1
  Se  Se121  1  0.42276242  0.08416363  0.05843248  1
  Se  Se122  1  0.41482838  0.08380476  0.54455495  1
  Se  Se123  1  0.41049250  0.40958598  0.06286269  1
  Se  Se124  1  0.41220410  0.40910451  0.56294739  1
  Se  Se125  1  0.40635594  0.73789982  0.05720681  1
  Se  Se126  1  0.41085056  0.74263768  0.55402023  1
  Se  Se127  1  0.75799832  0.08501115  0.05394485  1
  Se  Se128  1  0.75225774  0.08659056  0.55685521  1
  Se  Se129  1  0.75199869  0.41825183  0.05295291  1
  Se  Se130  1  0.74207014  0.41094855  0.55896250  1
  Se  Se131  1  0.75336894  0.73492548  0.06452320  1
  Se  Se132  1  0.75707633  0.75353664  0.55134640  1
  Se  Se133  1  0.25719343  0.25462888  0.04576730  1
  Se  Se134  1  0.25746614  0.25397369  0.56593964  1
  Se  Se135  1  0.24414906  0.58115292  0.04288268  1
  Se  Se136  1  0.24225642  0.58027127  0.55224585  1
  Se  Se137  1  0.25276749  0.92208847  0.06595441  1
  Se  Se138  1  0.26286524  0.92981032  0.55298565  1
  Se  Se139  1  0.58620639  0.24492756  0.04979869  1
  Se  Se140  1  0.58037977  0.24348389  0.55597343  1
  Se  Se141  1  0.58860820  0.58705644  0.05943181  1
  Se  Se142  1  0.58993824  0.58480665  0.55643636  1
  Se  Se143  1  0.59572021  0.92571817  0.06178663  1
  Se  Se144  1  0.58923578  0.92218858  0.56132646  1
  Se  Se145  1  0.92508894  0.25065035  0.04842025  1
  Se  Se146  1  0.91699450  0.25169967  0.54824353  1
  Se  Se147  1  0.91413912  0.58204874  0.05754168  1
  Se  Se148  1  0.92116871  0.58633214  0.55715835  1
  Se  Se149  1  0.91539961  0.92643689  0.06498463  1
  Se  Se150  1  0.91716452  0.91930814  0.55284944  1
  Se  Se151  1  0.06928133  0.24773392  0.42804047  1
  Se  Se152  1  0.07495277  0.24524222  0.95761741  1
  Se  Se153  1  0.08235252  0.57866287  0.44103536  1
  Se  Se154  1  0.08728114  0.58663499  0.94675034  1
  Se  Se155  1  0.07768485  0.92719174  0.44014224  1
  Se  Se156  1  0.07090190  0.92362881  0.94588469  1
  Se  Se157  1  0.42089828  0.24801110  0.44951392  1
  Se  Se158  1  0.42746442  0.24659713  0.95661180  1
  Se  Se159  1  0.40899933  0.59077948  0.43628156  1
  Se  Se160  1  0.41689201  0.59447409  0.94166953  1
  Se  Se161  1  0.40739921  0.92576241  0.43954679  1
  Se  Se162  1  0.41211349  0.92523822  0.94720392  1
  Se  Se163  1  0.75748595  0.24730979  0.44745035  1
  Se  Se164  1  0.75216725  0.24498936  0.94612443  1
  Se  Se165  1  0.74453678  0.58852296  0.43703138  1
  Se  Se166  1  0.76006630  0.57910895  0.94652508  1
  Se  Se167  1  0.75343924  0.91676802  0.44991272  1
  Se  Se168  1  0.74243593  0.91968493  0.93986523  1
  Se  Se169  1  0.25077602  0.07982822  0.44150555  1
  Se  Se170  1  0.24510725  0.08150362  0.95269899  1
  Se  Se171  1  0.24996473  0.41516035  0.44911384  1
  Se  Se172  1  0.27511537  0.39470074  0.94482543  1
  Se  Se173  1  0.24861903  0.74869589  0.43876216  1
  Se  Se174  1  0.26112320  0.74632931  0.93913698  1
  Se  Se175  1  0.58449063  0.08315865  0.44688427  1
  Se  Se176  1  0.58191813  0.08540435  0.94559590  1
  Se  Se177  1  0.59369401  0.40599840  0.43982331  1
  Se  Se178  1  0.59524403  0.41224733  0.93924146  1
  Se  Se179  1  0.58909381  0.74095224  0.43862722  1
  Se  Se180  1  0.59365737  0.74512653  0.94405223  1
  Se  Se181  1  0.91504141  0.08939341  0.44155622  1
  Se  Se182  1  0.91025457  0.08181837  0.94721321  1
  Se  Se183  1  0.92177103  0.41183089  0.43038434  1
  Se  Se184  1  0.93453234  0.40088452  0.94963621  1
  Se  Se185  1  0.91526753  0.75119574  0.44512276  1
  Se  Se186  1  0.92534393  0.74665496  0.94352965  1
  Se  Se187  1  0.24676214  0.24738339  0.31124037  1
  Se  Se188  1  0.22858739  0.24767070  0.82132302  1
  Se  Se189  1  0.25008441  0.58102264  0.29918909  1
  Se  Se190  1  0.25501224  0.58729993  0.80344203  1
  Se  Se191  1  0.24838132  0.91553758  0.30074460  1
  Se  Se192  1  0.24175953  0.90948557  0.81110720  1
  Se  Se193  1  0.58442190  0.24514022  0.31088239  1
  Se  Se194  1  0.58568560  0.25248239  0.80520278  1
  Se  Se195  1  0.58489448  0.58553582  0.29502518  1
  Se  Se196  1  0.59225819  0.58551737  0.80161329  1
  Se  Se197  1  0.58163336  0.91778606  0.30437584  1
  Se  Se198  1  0.58095245  0.91892421  0.80031726  1
  Se  Se199  1  0.92665747  0.26452454  0.29340997  1
  Se  Se200  1  0.90378618  0.23852142  0.81199837  1
  Se  Se201  1  0.90708980  0.58283397  0.29611065  1
  Se  Se202  1  0.92247462  0.58199858  0.80646340  1
  Se  Se203  1  0.91590224  0.91935362  0.30746580  1
  Se  Se204  1  0.91725245  0.91679267  0.80276100  1
  Se  Se205  1  0.08852487  0.08867933  0.29591425  1
  Se  Se206  1  0.07314453  0.07952193  0.80700508  1
  Se  Se207  1  0.08394240  0.41764034  0.29936348  1
  Se  Se208  1  0.09176635  0.42480793  0.81382956  1
  Se  Se209  1  0.07907951  0.74626578  0.30246589  1
  Se  Se210  1  0.08034926  0.74423730  0.80150855  1
  Se  Se211  1  0.41518839  0.08252868  0.30257970  1
  Se  Se212  1  0.41165101  0.09520122  0.81634636  1
  Se  Se213  1  0.42530964  0.42740606  0.30570897  1
  Se  Se214  1  0.42669970  0.42911780  0.81814847  1
  Se  Se215  1  0.41030106  0.74782713  0.29789213  1
  Se  Se216  1  0.42060357  0.74838683  0.79981262  1
  Se  Se217  1  0.75644050  0.08812386  0.30251259  1
  Se  Se218  1  0.74120850  0.07689431  0.80347365  1
  Se  Se219  1  0.75820149  0.42358384  0.30458116  1
  Se  Se220  1  0.75623192  0.41262704  0.80583799  1
  Se  Se221  1  0.74523862  0.75439665  0.30543810  1
  Se  Se222  1  0.75272724  0.74847022  0.80297464  1
  Se  Se223  1  0.25442736  0.08875830  0.19554001  1
  Se  Se224  1  0.24355181  0.09362484  0.69526716  1
  Se  Se225  1  0.23492120  0.41342074  0.18161951  1
  Se  Se226  1  0.24418202  0.41683408  0.69363652  1
  Se  Se227  1  0.24667179  0.74563329  0.19451976  1
  Se  Se228  1  0.25234953  0.74553593  0.69823786  1
  Se  Se229  1  0.59083484  0.08369273  0.19766272  1
  Se  Se230  1  0.57900636  0.08229842  0.69913387  1
  Se  Se231  1  0.57163412  0.42350047  0.19283974  1
  Se  Se232  1  0.58610508  0.41352994  0.70197853  1
  Se  Se233  1  0.57458007  0.75424096  0.19291017  1
  Se  Se234  1  0.58923778  0.74510715  0.69434587  1
  Se  Se235  1  0.93233992  0.07437187  0.19706784  1
  Se  Se236  1  0.91561604  0.08192078  0.69625090  1
  Se  Se237  1  0.91091234  0.42692475  0.19180073  1
  Se  Se238  1  0.91207908  0.42017295  0.68634078  1
  Se  Se239  1  0.91366666  0.75399363  0.20115367  1
  Se  Se240  1  0.91902017  0.74879346  0.69614621  1
  Se  Se241  1  0.08234936  0.25673731  0.18940326  1
  Se  Se242  1  0.08183377  0.24619050  0.69634485  1
  Se  Se243  1  0.08009067  0.58776958  0.19437165  1
  Se  Se244  1  0.08136642  0.58188490  0.69612567  1
  Se  Se245  1  0.08085705  0.91534284  0.20098274  1
  Se  Se246  1  0.08406472  0.91743800  0.69812486  1
  Se  Se247  1  0.42355611  0.24309131  0.19172126  1
  Se  Se248  1  0.41614234  0.25034982  0.70026304  1
  Se  Se249  1  0.40496754  0.57729657  0.19572231  1
  Se  Se250  1  0.41802176  0.58042883  0.69625713  1
  Se  Se251  1  0.41192980  0.92062773  0.19884732  1
  Se  Se252  1  0.42388179  0.90843498  0.68487776  1
  Se  Se253  1  0.76233505  0.24679622  0.18273821  1
  Se  Se254  1  0.74495903  0.24858699  0.69747339  1
  Se  Se255  1  0.72872385  0.59692367  0.19747669  1
  Se  Se256  1  0.75628998  0.58205212  0.69806011  1
  Se  Se257  1  0.74359700  0.91911863  0.20043335  1
  Se  Se258  1  0.75052540  0.91708562  0.69541174  1
