# generated using pymatgen
data_In86Cu29Se144
_symmetry_space_group_name_H-M   'P 1'
_cell_length_a   17.57940650
_cell_length_b   17.57967976
_cell_length_c   23.44168996
_cell_angle_alpha   90.01190595
_cell_angle_beta   90.02019310
_cell_angle_gamma   89.98885457
_symmetry_Int_Tables_number   1
_chemical_formula_structural   In86Cu29Se144
_chemical_formula_sum   'In86 Cu29 Se144'
_cell_volume   7244.42700945
_cell_formula_units_Z   1
loop_
 _symmetry_equiv_pos_site_id
 _symmetry_equiv_pos_as_xyz
  1  'x, y, z'
loop_
 _atom_site_type_symbol
 _atom_site_label
 _atom_site_symmetry_multiplicity
 _atom_site_fract_x
 _atom_site_fract_y
 _atom_site_fract_z
 _atom_site_occupancy
  In  In0  1  -0.00405902  0.16461346  0.12329327  1
  In  In1  1  -0.00601609  0.15899606  0.62568417  1
  In  In2  1  0.00288614  0.49125178  0.13068137  1
  In  In3  1  0.01022195  0.50667195  0.61709328  1
  In  In4  1  -0.01181179  0.84573853  0.13515823  1
  In  In5  1  -0.00510726  0.82930397  0.63694337  1
  In  In6  1  0.32240318  0.16005696  0.11390629  1
  In  In7  1  0.35213986  0.16066085  0.64122310  1
  In  In8  1  0.33374531  0.50231129  0.11523461  1
  In  In9  1  0.33050534  0.50197782  0.63187238  1
  In  In10  1  0.34892763  0.83767813  0.11782033  1
  In  In11  1  0.33210252  0.83042548  0.63857578  1
  In  In12  1  0.67468231  0.17706072  0.11889868  1
  In  In13  1  0.64069227  0.16782019  0.63083837  1
  In  In14  1  0.65567805  0.49265104  0.12412787  1
  In  In15  1  0.65780017  0.48747324  0.60781621  1
  In  In16  1  0.67284009  0.84029487  0.11206314  1
  In  In17  1  0.67804883  0.84942423  0.63575022  1
  In  In18  1  0.16796772  -0.00018720  0.36599719  1
  In  In19  1  0.17550361  0.01036503  0.86960576  1
  In  In20  1  0.16190204  0.34244395  0.37407081  1
  In  In21  1  0.17714626  0.32061755  0.88457826  1
  In  In22  1  0.16169062  0.66640012  0.37566529  1
  In  In23  1  0.16111638  0.66088453  0.87268255  1
  In  In24  1  0.50610847  0.01500764  0.37717792  1
  In  In25  1  0.49746601  0.00531205  0.87663404  1
  In  In26  1  0.50515360  0.33324866  0.38608517  1
  In  In27  1  0.49177032  0.33974152  0.87857348  1
  In  In28  1  0.49170037  0.64625300  0.37672879  1
  In  In29  1  0.49604611  0.66994874  0.87426798  1
  In  In30  1  0.84016673  -0.00422326  0.36783919  1
  In  In31  1  0.83392468  -0.00271987  0.87987336  1
  In  In32  1  0.84054757  0.33724408  0.36243352  1
  In  In33  1  0.82215379  0.32576247  0.87678383  1
  In  In34  1  0.83430550  0.66221711  0.37216817  1
  In  In35  1  0.84691151  0.67054171  0.87034901  1
  In  In36  1  -0.00814722  0.16300265  0.35643257  1
  In  In37  1  0.00523120  0.15644088  0.88492063  1
  In  In38  1  0.00100204  0.50137736  0.37095592  1
  In  In39  1  0.00166041  0.51512875  0.87185044  1
  In  In40  1  0.00075409  0.83087249  0.35681543  1
  In  In41  1  -0.01091236  0.83029950  0.87265869  1
  In  In42  1  0.34859354  0.17208910  0.37597609  1
  In  In43  1  0.33901365  0.16685261  0.87465117  1
  In  In44  1  0.33663507  0.49582653  0.39283225  1
  In  In45  1  0.33700712  0.49578218  0.86931399  1
  In  In46  1  0.32665131  0.83194953  0.37501333  1
  In  In47  1  0.34619163  0.84669243  0.86587330  1
  In  In48  1  0.65350083  0.16724389  0.37534848  1
  In  In49  1  0.67228764  0.16224174  0.88432591  1
  In  In50  1  0.68239197  0.48687988  0.39292233  1
  In  In51  1  0.65788956  0.48852922  0.87309756  1
  In  In52  1  0.67449266  0.83590109  0.37263221  1
  In  In53  1  0.65865847  0.83989943  0.88281582  1
  In  In54  1  0.15756831  0.01116307  0.12589788  1
  In  In55  1  0.16885440  -0.00230227  0.63620606  1
  In  In56  1  0.15688894  0.32450983  0.11503013  1
  In  In57  1  0.17186496  0.35135648  0.62114441  1
  In  In58  1  0.16385041  0.65405845  0.11999241  1
  In  In59  1  0.17415613  0.65262953  0.63671233  1
  In  In60  1  0.49161238  -0.00410156  0.11744004  1
  In  In61  1  0.49407879  0.01010119  0.64052014  1
  In  In62  1  0.50434899  0.33635835  0.12032044  1
  In  In63  1  0.49699685  0.32859006  0.62542411  1
  In  In64  1  0.50194477  0.66326637  0.11461264  1
  In  In65  1  0.48935271  0.65358425  0.62918625  1
  In  In66  1  0.84228514  0.00547252  0.11968693  1
  In  In67  1  0.83103806  -0.00309746  0.64196179  1
  In  In68  1  0.84311581  0.31173201  0.14566396  1
  In  In69  1  0.80816945  0.33769158  0.61656565  1
  In  In70  1  0.83902349  0.67999586  0.12355015  1
  In  In71  1  0.84436207  0.66804111  0.62346238  1
  In  In72  1  0.16805582  0.82645988  0.50278621  1
  In  In73  1  0.17262441  0.17254049  0.49286263  1
  In  In74  1  0.33147764  0.66862829  0.25419559  1
  In  In75  1  0.49989579  0.82640805  0.51116409  1
  In  In76  1  0.67468351  0.00939878  0.23797678  1
  In  In77  1  0.00375132  0.33400196  0.74455210  1
  In  In78  1  0.16701667  0.83176355  -0.00683598  1
  In  In79  1  0.82684294  0.49450002  -0.00254426  1
  In  In80  1  0.67332707  0.66928794  0.25220436  1
  In  In81  1  0.66001999  0.32796112  0.74568820  1
  In  In82  1  0.32575175  0.32968834  0.25036695  1
  In  In83  1  0.66538721  0.66772270  0.74805426  1
  In  In84  1  0.82934040  0.17240280  0.49706491  1
  In  In85  1  0.83533528  0.83175213  0.49664592  1
  Cu  Cu86  1  0.66596166  0.32800467  0.00127476  1
  Cu  Cu87  1  0.50603698  0.83849373  0.24353897  1
  Cu  Cu88  1  0.16446954  0.16145163  0.24009287  1
  Cu  Cu89  1  0.33732593  0.66231751  -0.00601788  1
  Cu  Cu90  1  0.34535744  0.00165660  0.50693893  1
  Cu  Cu91  1  0.50016311  0.83663385  0.75625743  1
  Cu  Cu92  1  0.00436727  -0.00469530  0.49991805  1
  Cu  Cu93  1  0.66468350  0.66532269  -0.00268215  1
  Cu  Cu94  1  -0.00175433  0.33654815  0.00584807  1
  Cu  Cu95  1  0.15742232  0.83061331  0.75698487  1
  Cu  Cu96  1  0.00637635  0.65690226  0.50020153  1
  Cu  Cu97  1  0.83234293  0.50375596  0.25455791  1
  Cu  Cu98  1  0.00019764  0.66858397  -0.00234391  1
  Cu  Cu99  1  0.33715535  0.33710526  -0.00288304  1
  Cu  Cu100  1  0.16740974  0.49865398  0.75099913  1
  Cu  Cu101  1  0.50020820  0.49336927  0.25036155  1
  Cu  Cu102  1  -0.00237247  0.00182151  0.00315420  1
  Cu  Cu103  1  0.66331470  0.01334226  0.50615026  1
  Cu  Cu104  1  0.66094943  0.66867714  0.49979714  1
  Cu  Cu105  1  0.33219854  0.00413098  -0.00757441  1
  Cu  Cu106  1  0.66184654  -0.00098696  -0.00009150  1
  Cu  Cu107  1  0.16241620  0.49794733  0.24851424  1
  Cu  Cu108  1  -0.00707759  0.34093835  0.49290675  1
  Cu  Cu109  1  0.83558343  0.50375419  0.74089161  1
  Cu  Cu110  1  0.17288621  0.17237942  0.75442117  1
  Cu  Cu111  1  0.83781403  0.15758275  0.75567166  1
  Cu  Cu112  1  0.33711445  0.32959860  0.50691759  1
  Cu  Cu113  1  0.17558287  0.83532738  0.24619042  1
  Cu  Cu114  1  0.49356797  0.16696172  0.25135593  1
  Se  Se115  1  0.08290507  0.08880908  0.05086106  1
  Se  Se116  1  0.08600576  0.07734837  0.55602902  1
  Se  Se117  1  0.08361050  0.42380228  0.05237134  1
  Se  Se118  1  0.08254238  0.41579836  0.54758110  1
  Se  Se119  1  0.07756508  0.75029240  0.05971065  1
  Se  Se120  1  0.07615425  0.74195068  0.56433785  1
  Se  Se121  1  0.41607244  0.08502282  0.04872912  1
  Se  Se122  1  0.42429973  0.08622730  0.56077651  1
  Se  Se123  1  0.42092588  0.41939121  0.05202023  1
  Se  Se124  1  0.41350762  0.41702808  0.56186771  1
  Se  Se125  1  0.41855017  0.74721200  0.04815289  1
  Se  Se126  1  0.39912146  0.74132134  0.56194714  1
  Se  Se127  1  0.74660381  0.07972639  0.05531704  1
  Se  Se128  1  0.75087242  0.08338860  0.56697152  1
  Se  Se129  1  0.74922720  0.40388751  0.06388748  1
  Se  Se130  1  0.75393897  0.42421332  0.53935421  1
  Se  Se131  1  0.75128483  0.74637858  0.04942595  1
  Se  Se132  1  0.73966707  0.75050009  0.56002517  1
  Se  Se133  1  0.24964923  0.25350383  0.04778289  1
  Se  Se134  1  0.25756844  0.24705329  0.56590717  1
  Se  Se135  1  0.24979981  0.58393387  0.04714654  1
  Se  Se136  1  0.23551956  0.56793637  0.56111449  1
  Se  Se137  1  0.25258297  0.92399074  0.05579056  1
  Se  Se138  1  0.25835197  0.92252530  0.56046315  1
  Se  Se139  1  0.57807606  0.24567313  0.05168170  1
  Se  Se140  1  0.60712631  0.27462554  0.56213502  1
  Se  Se141  1  0.58561660  0.57742998  0.04980046  1
  Se  Se142  1  0.57683279  0.58927837  0.55409119  1
  Se  Se143  1  0.57618005  0.91310914  0.04979794  1
  Se  Se144  1  0.58886895  0.92488527  0.56306672  1
  Se  Se145  1  0.91264251  0.25471010  0.05774984  1
  Se  Se146  1  0.92256130  0.26041753  0.55949731  1
  Se  Se147  1  0.91964435  0.58355258  0.05634284  1
  Se  Se148  1  0.91450814  0.58079895  0.55140184  1
  Se  Se149  1  0.91651990  0.91213215  0.05213528  1
  Se  Se150  1  0.92031872  0.92225161  0.56075926  1
  Se  Se151  1  0.06743415  0.25018896  0.43631734  1
  Se  Se152  1  0.07883859  0.25206370  0.94953250  1
  Se  Se153  1  0.08823758  0.57673377  0.44367316  1
  Se  Se154  1  0.08399111  0.58270601  0.94868554  1
  Se  Se155  1  0.08085358  0.91540939  0.43825205  1
  Se  Se156  1  0.07844213  0.92693616  0.93797933  1
  Se  Se157  1  0.42141569  0.24725349  0.45291652  1
  Se  Se158  1  0.41879478  0.24860002  0.94725736  1
  Se  Se159  1  0.40880201  0.59128043  0.45538897  1
  Se  Se160  1  0.42010072  0.57799733  0.94088640  1
  Se  Se161  1  0.41784101  0.91822199  0.44276655  1
  Se  Se162  1  0.41805819  0.91624888  0.94677835  1
  Se  Se163  1  0.74422047  0.26011786  0.43451966  1
  Se  Se164  1  0.75570302  0.24570418  0.95380241  1
  Se  Se165  1  0.75348490  0.59409892  0.44815013  1
  Se  Se166  1  0.74391983  0.58789641  0.93354961  1
  Se  Se167  1  0.74246093  0.93327066  0.44496113  1
  Se  Se168  1  0.74943439  0.91598337  0.95002658  1
  Se  Se169  1  0.26254500  0.07214104  0.44077699  1
  Se  Se170  1  0.24717470  0.09090731  0.94500997  1
  Se  Se171  1  0.24921187  0.40431085  0.45007990  1
  Se  Se172  1  0.25267240  0.42011744  0.94395539  1
  Se  Se173  1  0.26098271  0.73614296  0.44567407  1
  Se  Se174  1  0.26101996  0.74674928  0.93345816  1
  Se  Se175  1  0.57751402  0.09366433  0.45387433  1
  Se  Se176  1  0.57954789  0.08481430  0.94894382  1
  Se  Se177  1  0.56015081  0.44503064  0.44360853  1
  Se  Se178  1  0.58383347  0.41389713  0.94920217  1
  Se  Se179  1  0.58602472  0.74767564  0.43618410  1
  Se  Se180  1  0.57849657  0.74826582  0.94623587  1
  Se  Se181  1  0.92502569  0.07844438  0.44166021  1
  Se  Se182  1  0.91101388  0.08523184  0.95132303  1
  Se  Se183  1  0.91135723  0.42112989  0.43753355  1
  Se  Se184  1  0.92351394  0.41076913  0.93604114  1
  Se  Se185  1  0.93300683  0.74539709  0.43976131  1
  Se  Se186  1  0.91347526  0.75137858  0.94874242  1
  Se  Se187  1  0.23750422  0.23661229  0.31104408  1
  Se  Se188  1  0.25645264  0.25475735  0.80594288  1
  Se  Se189  1  0.24819622  0.56913932  0.31081597  1
  Se  Se190  1  0.24920258  0.58301898  0.80517785  1
  Se  Se191  1  0.25740141  0.91677698  0.30195345  1
  Se  Se192  1  0.24612766  0.91592497  0.80285498  1
  Se  Se193  1  0.57172059  0.25161159  0.30727142  1
  Se  Se194  1  0.58099369  0.24430933  0.81576575  1
  Se  Se195  1  0.58390937  0.57415687  0.30745949  1
  Se  Se196  1  0.57587528  0.57482876  0.80490532  1
  Se  Se197  1  0.58458682  0.91866133  0.30551570  1
  Se  Se198  1  0.58272675  0.91948893  0.80885688  1
  Se  Se199  1  0.91090232  0.24850351  0.29281807  1
  Se  Se200  1  0.91532677  0.24695068  0.80952587  1
  Se  Se201  1  0.91976998  0.58792993  0.30198192  1
  Se  Se202  1  0.91692118  0.58406599  0.79699413  1
  Se  Se203  1  0.92341892  0.92420335  0.29689220  1
  Se  Se204  1  0.92462926  0.92930324  0.80832512  1
  Se  Se205  1  0.08325149  0.07809879  0.29728779  1
  Se  Se206  1  0.08435297  0.09138892  0.80477461  1
  Se  Se207  1  0.07882651  0.41297935  0.30025441  1
  Se  Se208  1  0.08883681  0.41725650  0.81254227  1
  Se  Se209  1  0.09544191  0.74769021  0.29855301  1
  Se  Se210  1  0.07515607  0.74518071  0.80776086  1
  Se  Se211  1  0.41474416  0.07985051  0.30441871  1
  Se  Se212  1  0.40502017  0.07151459  0.80588874  1
  Se  Se213  1  0.41355385  0.42075097  0.31064759  1
  Se  Se214  1  0.41745355  0.41039327  0.80094459  1
  Se  Se215  1  0.43190522  0.75734960  0.30911608  1
  Se  Se216  1  0.41523865  0.74728493  0.80101005  1
  Se  Se217  1  0.75376379  0.09345701  0.30986667  1
  Se  Se218  1  0.75035538  0.08293307  0.81116720  1
  Se  Se219  1  0.74344492  0.42270329  0.30485064  1
  Se  Se220  1  0.75870848  0.42214423  0.80205466  1
  Se  Se221  1  0.76793053  0.76563307  0.30308735  1
  Se  Se222  1  0.74906596  0.75501527  0.81275605  1
  Se  Se223  1  0.25534884  0.08053039  0.19290754  1
  Se  Se224  1  0.25231471  0.08399918  0.70024740  1
  Se  Se225  1  0.24371201  0.42179451  0.18640274  1
  Se  Se226  1  0.25088270  0.41219306  0.70144425  1
  Se  Se227  1  0.25049907  0.75379475  0.18304415  1
  Se  Se228  1  0.24309712  0.74955603  0.70241924  1
  Se  Se229  1  0.57162444  0.09181240  0.18566567  1
  Se  Se230  1  0.60060424  0.06797324  0.70304542  1
  Se  Se231  1  0.58229123  0.40989961  0.19797150  1
  Se  Se232  1  0.57754022  0.42898895  0.69213187  1
  Se  Se233  1  0.58270867  0.75406069  0.18629245  1
  Se  Se234  1  0.57444072  0.76035976  0.68783322  1
  Se  Se235  1  0.90949887  0.08974552  0.19362286  1
  Se  Se236  1  0.92591139  0.07925683  0.70198133  1
  Se  Se237  1  0.91438883  0.41873362  0.20050336  1
  Se  Se238  1  0.90917656  0.41681829  0.68135728  1
  Se  Se239  1  0.92799510  0.74000763  0.19726152  1
  Se  Se240  1  0.90195954  0.75330716  0.70010336  1
  Se  Se241  1  0.08227165  0.24978999  0.19169805  1
  Se  Se242  1  0.09520969  0.24280698  0.68462268  1
  Se  Se243  1  0.08230457  0.58420962  0.19556664  1
  Se  Se244  1  0.07615480  0.57833317  0.70035024  1
  Se  Se245  1  0.08888442  0.91835897  0.19512158  1
  Se  Se246  1  0.08018314  0.91641930  0.69987366  1
  Se  Se247  1  0.41500538  0.24477463  0.18721734  1
  Se  Se248  1  0.42992899  0.25140988  0.70436274  1
  Se  Se249  1  0.42283713  0.57867629  0.19225348  1
  Se  Se250  1  0.40608877  0.58799402  0.70341495  1
  Se  Se251  1  0.41637386  0.91900001  0.19537212  1
  Se  Se252  1  0.41306920  0.91850719  0.70291313  1
  Se  Se253  1  0.72979951  0.25631245  0.20132086  1
  Se  Se254  1  0.75987649  0.23714772  0.69224952  1
  Se  Se255  1  0.75540888  0.57730876  0.18624380  1
  Se  Se256  1  0.74721067  0.57545181  0.68185758  1
  Se  Se257  1  0.75998497  0.90740773  0.18817079  1
  Se  Se258  1  0.75747674  0.91313814  0.71269184  1
