# generated using pymatgen
data_In86Cu29Se144
_symmetry_space_group_name_H-M   'P 1'
_cell_length_a   17.59895638
_cell_length_b   17.60074427
_cell_length_c   23.46046807
_cell_angle_alpha   90.03719852
_cell_angle_beta   89.96069176
_cell_angle_gamma   90.00908522
_symmetry_Int_Tables_number   1
_chemical_formula_structural   In86Cu29Se144
_chemical_formula_sum   'In86 Cu29 Se144'
_cell_volume   7266.98763879
_cell_formula_units_Z   1
loop_
 _symmetry_equiv_pos_site_id
 _symmetry_equiv_pos_as_xyz
  1  'x, y, z'
loop_
 _atom_site_type_symbol
 _atom_site_label
 _atom_site_symmetry_multiplicity
 _atom_site_fract_x
 _atom_site_fract_y
 _atom_site_fract_z
 _atom_site_occupancy
  In  In0  1  0.01315665  0.16536515  0.12854434  1
  In  In1  1  -0.00719514  0.17145886  0.62723679  1
  In  In2  1  -0.00156053  0.49084072  0.12277401  1
  In  In3  1  -0.01030282  0.51018548  0.63411741  1
  In  In4  1  -0.01203688  0.84257048  0.12240291  1
  In  In5  1  -0.00650423  0.82810994  0.62293991  1
  In  In6  1  0.32934445  0.16254697  0.13443229  1
  In  In7  1  0.35716348  0.14643507  0.64127876  1
  In  In8  1  0.34491639  0.50961539  0.11416930  1
  In  In9  1  0.32793868  0.49357441  0.62803139  1
  In  In10  1  0.33708883  0.82768452  0.13885229  1
  In  In11  1  0.35308814  0.84314139  0.61318325  1
  In  In12  1  0.66174500  0.16412631  0.13187911  1
  In  In13  1  0.66866802  0.15848471  0.62410132  1
  In  In14  1  0.66987471  0.50923477  0.12636680  1
  In  In15  1  0.67206400  0.49253799  0.62608294  1
  In  In16  1  0.66566696  0.82879905  0.12922172  1
  In  In17  1  0.67911290  0.83228491  0.62596280  1
  In  In18  1  0.16202968  -0.00886832  0.38045534  1
  In  In19  1  0.16709653  0.00389551  0.86297929  1
  In  In20  1  0.16356123  0.34629112  0.37711900  1
  In  In21  1  0.17153427  0.33520622  0.87245341  1
  In  In22  1  0.17153055  0.67505381  0.37352187  1
  In  In23  1  0.15512298  0.66478094  0.87777626  1
  In  In24  1  0.50091671  0.00194353  0.37444147  1
  In  In25  1  0.50393123  0.00795732  0.85780622  1
  In  In26  1  0.49751070  0.32767710  0.38006463  1
  In  In27  1  0.50941296  0.34732082  0.85991634  1
  In  In28  1  0.51755168  0.68034546  0.36073186  1
  In  In29  1  0.50261081  0.65504267  0.87414093  1
  In  In30  1  0.81555425  0.01361489  0.39609439  1
  In  In31  1  0.82142108  -0.01452158  0.85723298  1
  In  In32  1  0.83573464  0.32548438  0.38384075  1
  In  In33  1  0.83060322  0.33137380  0.86232432  1
  In  In34  1  0.80049376  0.69185323  0.40532674  1
  In  In35  1  0.83558888  0.67298478  0.86206534  1
  In  In36  1  -0.04100398  0.16300567  0.37554757  1
  In  In37  1  -0.00299138  0.16226281  0.86073715  1
  In  In38  1  -0.00882556  0.48897491  0.37107392  1
  In  In39  1  0.00309663  0.50440794  0.87414267  1
  In  In40  1  -0.01598451  0.86281418  0.40256823  1
  In  In41  1  -0.01811428  0.81715701  0.85075825  1
  In  In42  1  0.35605760  0.16311395  0.38127197  1
  In  In43  1  0.33748928  0.16880581  0.86023356  1
  In  In44  1  0.32661898  0.49959426  0.37076104  1
  In  In45  1  0.34122993  0.49241548  0.88367659  1
  In  In46  1  0.33471625  0.83995221  0.37837875  1
  In  In47  1  0.32682020  0.83911214  0.86965718  1
  In  In48  1  0.67396976  0.15700701  0.37943221  1
  In  In49  1  0.66239811  0.17324561  0.85885339  1
  In  In50  1  0.66602399  0.52725907  0.37867526  1
  In  In51  1  0.66451951  0.50232920  0.86515520  1
  In  In52  1  0.65581394  0.83316688  0.38004804  1
  In  In53  1  0.67968674  0.83834142  0.85846479  1
  In  In54  1  0.16751657  0.00760440  0.12925159  1
  In  In55  1  0.17103792  -0.01074909  0.62242007  1
  In  In56  1  0.15715740  0.33260271  0.12411704  1
  In  In57  1  0.16768838  0.33201983  0.63146607  1
  In  In58  1  0.17936900  0.67078718  0.12425405  1
  In  In59  1  0.15453377  0.66720463  0.62750813  1
  In  In60  1  0.50669409  -0.00197928  0.14196101  1
  In  In61  1  0.50997945  0.00074638  0.62876417  1
  In  In62  1  0.49212728  0.33329478  0.12349808  1
  In  In63  1  0.52207819  0.30450258  0.64612417  1
  In  In64  1  0.50738426  0.65235872  0.13846069  1
  In  In65  1  0.51320565  0.68239932  0.61328332  1
  In  In66  1  0.83673141  -0.01487615  0.12364147  1
  In  In67  1  0.83066421  -0.00807355  0.62483947  1
  In  In68  1  0.83487517  0.34782218  0.13170663  1
  In  In69  1  0.83518314  0.32871670  0.62281499  1
  In  In70  1  0.81535690  0.67523881  0.12897950  1
  In  In71  1  0.83467894  0.66978145  0.62297082  1
  In  In72  1  0.16308520  0.16959168  0.50379838  1
  In  In73  1  0.16763061  0.16401192  0.00287098  1
  In  In74  1  0.83483369  0.16617760  -0.00155508  1
  In  In75  1  0.83373115  0.50693307  -0.00185585  1
  In  In76  1  0.16554487  0.50515820  0.49746775  1
  In  In77  1  0.49379373  0.16821726  -0.00481114  1
  In  In78  1  0.33469299  0.66874971  0.74923742  1
  In  In79  1  -0.00194332  0.00391549  0.25599057  1
  In  In80  1  0.67355696  0.32898011  0.25312031  1
  In  In81  1  0.00308994  0.66638873  0.26086551  1
  In  In82  1  0.33328096  0.32931691  0.25098785  1
  In  In83  1  0.49943654  0.83091653  -0.00008184  1
  In  In84  1  0.16417080  0.83466685  -0.00199459  1
  In  In85  1  0.49876433  0.49815132  0.49710334  1
  Cu  Cu86  1  0.33458912  0.67176305  0.49443176  1
  Cu  Cu87  1  0.33454876  0.34249776  -0.00411214  1
  Cu  Cu88  1  0.16506923  0.49677425  0.75484826  1
  Cu  Cu89  1  0.83248531  0.16520243  0.74203836  1
  Cu  Cu90  1  0.65826034  0.33962445  -0.01004009  1
  Cu  Cu91  1  0.34247452  0.00148147  0.50296671  1
  Cu  Cu92  1  0.83210818  0.49565489  0.74562579  1
  Cu  Cu93  1  0.83292928  0.50704973  0.25487194  1
  Cu  Cu94  1  0.50670045  0.83624777  0.74139597  1
  Cu  Cu95  1  0.00116264  0.33541900  0.50348181  1
  Cu  Cu96  1  -0.01067609  -0.01213455  -0.01143970  1
  Cu  Cu97  1  0.82410079  0.83112983  0.25763870  1
  Cu  Cu98  1  0.16777811  0.16747100  0.25581614  1
  Cu  Cu99  1  0.34203850  0.32537577  0.51063263  1
  Cu  Cu100  1  0.66373614  0.67248846  0.00358707  1
  Cu  Cu101  1  0.00235480  0.33311853  0.00011060  1
  Cu  Cu102  1  -0.00156473  0.66607824  0.50531474  1
  Cu  Cu103  1  0.66023132  -0.00351737  0.50556326  1
  Cu  Cu104  1  0.67083876  -0.00386668  -0.00739290  1
  Cu  Cu105  1  0.66775238  0.32770018  0.50557761  1
  Cu  Cu106  1  0.50003014  0.50718219  0.74543048  1
  Cu  Cu107  1  0.16872054  0.83338357  0.25847128  1
  Cu  Cu108  1  0.33641716  0.65899211  0.00288864  1
  Cu  Cu109  1  0.33480413  -0.00090510  0.00078587  1
  Cu  Cu110  1  0.16192322  0.16543709  0.74248182  1
  Cu  Cu111  1  -0.00718210  0.67036657  -0.00695210  1
  Cu  Cu112  1  0.16837054  0.83424622  0.74449533  1
  Cu  Cu113  1  0.16775765  0.50023024  0.24785336  1
  Cu  Cu114  1  0.49558841  0.83756563  0.25671731  1
  Se  Se115  1  0.06892130  0.06546790  0.05213320  1
  Se  Se116  1  0.07678409  0.07794640  0.56181348  1
  Se  Se117  1  0.08454251  0.41764607  0.05117120  1
  Se  Se118  1  0.08012349  0.41700196  0.56165030  1
  Se  Se119  1  0.07252551  0.74517350  0.05970943  1
  Se  Se120  1  0.08588573  0.74922675  0.55320153  1
  Se  Se121  1  0.41346627  0.07630029  0.06308488  1
  Se  Se122  1  0.42608157  0.08319886  0.55660615  1
  Se  Se123  1  0.42364867  0.41784346  0.04979486  1
  Se  Se124  1  0.42171887  0.41001303  0.56680577  1
  Se  Se125  1  0.41286072  0.74268650  0.06344426  1
  Se  Se126  1  0.42415866  0.75246574  0.54316748  1
  Se  Se127  1  0.74344318  0.07654667  0.05727368  1
  Se  Se128  1  0.75092751  0.07882599  0.55344178  1
  Se  Se129  1  0.74187804  0.41036019  0.05445133  1
  Se  Se130  1  0.75202018  0.41257112  0.55429215  1
  Se  Se131  1  0.74813233  0.75758482  0.05277698  1
  Se  Se132  1  0.75043436  0.74681186  0.55234608  1
  Se  Se133  1  0.26247033  0.25760416  0.05883678  1
  Se  Se134  1  0.25861788  0.24698795  0.56728456  1
  Se  Se135  1  0.24391453  0.58069127  0.05163051  1
  Se  Se136  1  0.25799720  0.59346702  0.55807661  1
  Se  Se137  1  0.25686824  0.91984482  0.06206402  1
  Se  Se138  1  0.25608873  0.91597571  0.54962019  1
  Se  Se139  1  0.59060834  0.25473166  0.05521456  1
  Se  Se140  1  0.58270330  0.24485958  0.55646067  1
  Se  Se141  1  0.58416080  0.58662997  0.05658168  1
  Se  Se142  1  0.59403316  0.58335753  0.55436720  1
  Se  Se143  1  0.58526664  0.92741435  0.05775988  1
  Se  Se144  1  0.58338787  0.90971708  0.56020029  1
  Se  Se145  1  0.92300383  0.25624541  0.06245186  1
  Se  Se146  1  0.91686306  0.24710984  0.55053175  1
  Se  Se147  1  0.91891576  0.59672268  0.06346355  1
  Se  Se148  1  0.91643497  0.57870640  0.55431926  1
  Se  Se149  1  0.90748041  0.90829518  0.04479177  1
  Se  Se150  1  0.91099158  0.90977054  0.55441982  1
  Se  Se151  1  0.07615648  0.25630504  0.43903216  1
  Se  Se152  1  0.07435338  0.24662084  0.94015000  1
  Se  Se153  1  0.07341691  0.59093276  0.43722811  1
  Se  Se154  1  0.07954671  0.58235522  0.95008397  1
  Se  Se155  1  0.09650484  0.91636669  0.45942761  1
  Se  Se156  1  0.07962251  0.91771625  0.93100669  1
  Se  Se157  1  0.42626938  0.24677907  0.45567754  1
  Se  Se158  1  0.41027752  0.26158992  0.93370159  1
  Se  Se159  1  0.41010225  0.58684024  0.43617873  1
  Se  Se160  1  0.42290745  0.58156413  0.94848783  1
  Se  Se161  1  0.42284478  0.91739081  0.44654786  1
  Se  Se162  1  0.41511742  0.92564603  0.93755552  1
  Se  Se163  1  0.75064439  0.24372792  0.45030688  1
  Se  Se164  1  0.74133699  0.25509503  0.93787429  1
  Se  Se165  1  0.76676485  0.56408727  0.45215659  1
  Se  Se166  1  0.74297884  0.59434310  0.93891361  1
  Se  Se167  1  0.74238439  0.91075945  0.45171076  1
  Se  Se168  1  0.75083932  0.91351555  0.93856001  1
  Se  Se169  1  0.25836679  0.08113339  0.44418186  1
  Se  Se170  1  0.25814594  0.07932689  0.93959999  1
  Se  Se171  1  0.26464657  0.40643162  0.45039508  1
  Se  Se172  1  0.24244225  0.41951358  0.94680292  1
  Se  Se173  1  0.24825770  0.75496447  0.44566725  1
  Se  Se174  1  0.26053050  0.74182254  0.94214781  1
  Se  Se175  1  0.58345989  0.08171651  0.44699668  1
  Se  Se176  1  0.59008341  0.07981817  0.93744645  1
  Se  Se177  1  0.59555266  0.40951655  0.43967155  1
  Se  Se178  1  0.58042510  0.42536249  0.93801383  1
  Se  Se179  1  0.58756232  0.73496902  0.44646913  1
  Se  Se180  1  0.59088444  0.74941353  0.93630628  1
  Se  Se181  1  0.93736602  0.05841273  0.44868074  1
  Se  Se182  1  0.91496181  0.07621496  0.93267353  1
  Se  Se183  1  0.91704169  0.41655996  0.44917904  1
  Se  Se184  1  0.91590917  0.40604079  0.94088369  1
  Se  Se185  1  0.91546656  0.75399995  0.45629606  1
  Se  Se186  1  0.91479006  0.75177062  0.93640737  1
  Se  Se187  1  0.24692007  0.24465496  0.31873669  1
  Se  Se188  1  0.24174676  0.24752286  0.80069780  1
  Se  Se189  1  0.24414110  0.58390909  0.30477807  1
  Se  Se190  1  0.24814560  0.57938203  0.81268062  1
  Se  Se191  1  0.24939710  0.92224975  0.30811805  1
  Se  Se192  1  0.25159754  0.91839169  0.79728691  1
  Se  Se193  1  0.58114093  0.24168120  0.31167219  1
  Se  Se194  1  0.56068953  0.23845777  0.79811033  1
  Se  Se195  1  0.57369681  0.57062039  0.30108434  1
  Se  Se196  1  0.58500629  0.59032332  0.79707720  1
  Se  Se197  1  0.58564334  0.91835496  0.30575769  1
  Se  Se198  1  0.58895778  0.92064262  0.79586970  1
  Se  Se199  1  0.92285249  0.26651929  0.30529463  1
  Se  Se200  1  0.91536496  0.24976787  0.79645631  1
  Se  Se201  1  0.90295505  0.59013096  0.31936741  1
  Se  Se202  1  0.91483349  0.57514543  0.80384691  1
  Se  Se203  1  0.90752317  0.91358669  0.31313079  1
  Se  Se204  1  0.92857828  0.92917607  0.79484087  1
  Se  Se205  1  0.08341633  0.09503994  0.31855531  1
  Se  Se206  1  0.07978165  0.07895085  0.79419911  1
  Se  Se207  1  0.08440210  0.41852699  0.30168109  1
  Se  Se208  1  0.08022259  0.41402043  0.80746272  1
  Se  Se209  1  0.07690911  0.76972181  0.31939217  1
  Se  Se210  1  0.09258403  0.74626476  0.79952099  1
  Se  Se211  1  0.41656299  0.08171830  0.30411681  1
  Se  Se212  1  0.40294566  0.07185305  0.79591020  1
  Se  Se213  1  0.42499713  0.42021373  0.30791997  1
  Se  Se214  1  0.41388913  0.42857831  0.80015359  1
  Se  Se215  1  0.41079619  0.75243705  0.30661561  1
  Se  Se216  1  0.42858802  0.75982182  0.80820119  1
  Se  Se217  1  0.77094266  0.09209824  0.31104187  1
  Se  Se218  1  0.74769386  0.08575229  0.79763571  1
  Se  Se219  1  0.75352657  0.42427429  0.31525979  1
  Se  Se220  1  0.74475242  0.41483341  0.79869637  1
  Se  Se221  1  0.74400364  0.74788932  0.31251972  1
  Se  Se222  1  0.75134828  0.74684838  0.79210430  1
  Se  Se223  1  0.24788815  0.08071707  0.20363847  1
  Se  Se224  1  0.24528008  0.07890038  0.69240312  1
  Se  Se225  1  0.24730526  0.41953088  0.18797430  1
  Se  Se226  1  0.24878042  0.41684730  0.70046151  1
  Se  Se227  1  0.24683363  0.74737670  0.20332957  1
  Se  Se228  1  0.25280512  0.75734847  0.68383944  1
  Se  Se229  1  0.59532101  0.07847493  0.20401419  1
  Se  Se230  1  0.57114879  0.10090598  0.69612262  1
  Se  Se231  1  0.58272391  0.41584681  0.18901842  1
  Se  Se232  1  0.58473036  0.41898153  0.69795781  1
  Se  Se233  1  0.57669100  0.75532544  0.19827738  1
  Se  Se234  1  0.58869563  0.74854281  0.69321090  1
  Se  Se235  1  0.91253235  0.08751982  0.18732175  1
  Se  Se236  1  0.91552102  0.07966513  0.69237996  1
  Se  Se237  1  0.91767889  0.42581616  0.20167179  1
  Se  Se238  1  0.91693951  0.41049003  0.69523991  1
  Se  Se239  1  0.91104848  0.75645211  0.19725035  1
  Se  Se240  1  0.93583071  0.72770312  0.69150237  1
  Se  Se241  1  0.08737867  0.24974518  0.19984601  1
  Se  Se242  1  0.07753370  0.25311086  0.69568680  1
  Se  Se243  1  0.08634287  0.58164533  0.18913599  1
  Se  Se244  1  0.08585403  0.58136159  0.70042672  1
  Se  Se245  1  0.08790074  0.90871112  0.19355818  1
  Se  Se246  1  0.08234452  0.91163953  0.69006633  1
  Se  Se247  1  0.42981247  0.23721265  0.19657112  1
  Se  Se248  1  0.39319711  0.27177949  0.69088793  1
  Se  Se249  1  0.40375628  0.58307376  0.19675127  1
  Se  Se250  1  0.42464809  0.58716636  0.68226108  1
  Se  Se251  1  0.41107568  0.92090030  0.20323501  1
  Se  Se252  1  0.41759660  0.91856149  0.69455521  1
  Se  Se253  1  0.76590102  0.24149449  0.19079086  1
  Se  Se254  1  0.74814795  0.24982135  0.69165952  1
  Se  Se255  1  0.74742491  0.58657080  0.20076757  1
  Se  Se256  1  0.75313359  0.58099619  0.69119566  1
  Se  Se257  1  0.75052474  0.91389596  0.19553803  1
  Se  Se258  1  0.74189979  0.92538591  0.69840363  1
