# generated using pymatgen
data_In86Cu29Se144
_symmetry_space_group_name_H-M   'P 1'
_cell_length_a   17.56928928
_cell_length_b   17.56643338
_cell_length_c   23.42692793
_cell_angle_alpha   90.00983225
_cell_angle_beta   89.98715059
_cell_angle_gamma   90.00727250
_symmetry_Int_Tables_number   1
_chemical_formula_structural   In86Cu29Se144
_chemical_formula_sum   'In86 Cu29 Se144'
_cell_volume   7230.24655649
_cell_formula_units_Z   1
loop_
 _symmetry_equiv_pos_site_id
 _symmetry_equiv_pos_as_xyz
  1  'x, y, z'
loop_
 _atom_site_type_symbol
 _atom_site_label
 _atom_site_symmetry_multiplicity
 _atom_site_fract_x
 _atom_site_fract_y
 _atom_site_fract_z
 _atom_site_occupancy
  In  In0  1  0.00919543  0.15578882  0.13910653  1
  In  In1  1  -0.00494177  0.16365005  0.62261055  1
  In  In2  1  0.00337568  0.49632738  0.13802199  1
  In  In3  1  -0.01480719  0.49974644  0.62181804  1
  In  In4  1  -0.00493207  0.83813671  0.14300547  1
  In  In5  1  0.00872261  0.84965642  0.61252140  1
  In  In6  1  0.32222437  0.17490430  0.12493916  1
  In  In7  1  0.34399593  0.18369395  0.60610348  1
  In  In8  1  0.34988717  0.49300798  0.12610991  1
  In  In9  1  0.33728904  0.48977362  0.63249635  1
  In  In10  1  0.33027566  0.83971399  0.13995779  1
  In  In11  1  0.34117904  0.84446238  0.61368782  1
  In  In12  1  0.67815923  0.16730756  0.13010775  1
  In  In13  1  0.66890558  0.16548210  0.62145518  1
  In  In14  1  0.66072604  0.50437127  0.13144799  1
  In  In15  1  0.67693649  0.48556276  0.63880787  1
  In  In16  1  0.65270080  0.82879483  0.13003072  1
  In  In17  1  0.66715568  0.83507207  0.61518794  1
  In  In18  1  0.16433855  0.00139173  0.37546267  1
  In  In19  1  0.17616229  0.02264545  0.87359472  1
  In  In20  1  0.16265054  0.33661505  0.38037883  1
  In  In21  1  0.15257461  0.31792533  0.86369514  1
  In  In22  1  0.17406567  0.67730003  0.36732365  1
  In  In23  1  0.16116837  0.66218942  0.87728419  1
  In  In24  1  0.49972520  0.01364753  0.38845907  1
  In  In25  1  0.50514064  -0.00426121  0.86998710  1
  In  In26  1  0.50573901  0.30510560  0.37845564  1
  In  In27  1  0.50155025  0.33761232  0.86488137  1
  In  In28  1  0.50626084  0.67156909  0.37174571  1
  In  In29  1  0.49742832  0.66281187  0.87051620  1
  In  In30  1  0.83901160  -0.00684719  0.39087885  1
  In  In31  1  0.84873767  0.01965918  0.84253692  1
  In  In32  1  0.83249699  0.33435599  0.38152870  1
  In  In33  1  0.83322641  0.32457512  0.85900540  1
  In  In34  1  0.83297366  0.66589851  0.37859907  1
  In  In35  1  0.82058090  0.67875022  0.87286518  1
  In  In36  1  0.00059214  0.16944777  0.37933679  1
  In  In37  1  0.00775056  0.17053020  0.86253385  1
  In  In38  1  -0.01011444  0.48862456  0.37266765  1
  In  In39  1  0.01073166  0.48775851  0.87579339  1
  In  In40  1  -0.00089944  0.83762408  0.37679491  1
  In  In41  1  -0.01389652  0.83189099  0.87185607  1
  In  In42  1  0.35034619  0.15190317  0.38899122  1
  In  In43  1  0.31552993  0.16731863  0.87934830  1
  In  In44  1  0.32596005  0.49909580  0.37360355  1
  In  In45  1  0.35229658  0.49869064  0.87935903  1
  In  In46  1  0.32976938  0.83368379  0.37450348  1
  In  In47  1  0.34562241  0.84312812  0.87655847  1
  In  In48  1  0.66014794  0.17379022  0.38699462  1
  In  In49  1  0.67146665  0.17045970  0.85294359  1
  In  In50  1  0.67281913  0.50518238  0.37340799  1
  In  In51  1  0.64204519  0.48539991  0.85343130  1
  In  In52  1  0.67541353  0.83323650  0.39368957  1
  In  In53  1  0.67169605  0.83393716  0.85801573  1
  In  In54  1  0.16698457  0.00602004  0.13057611  1
  In  In55  1  0.16136481  0.00016606  0.61913768  1
  In  In56  1  0.17106293  0.31739668  0.12696972  1
  In  In57  1  0.17395741  0.31596041  0.62908383  1
  In  In58  1  0.16262775  0.67081695  0.14158929  1
  In  In59  1  0.15697814  0.66983401  0.61773245  1
  In  In60  1  0.50105636  -0.00779499  0.12997474  1
  In  In61  1  0.52500017  0.01659976  0.59738126  1
  In  In62  1  0.48783353  0.34769255  0.12506330  1
  In  In63  1  0.51022941  0.32899003  0.63416941  1
  In  In64  1  0.51024350  0.65869355  0.13686554  1
  In  In65  1  0.50215709  0.68085195  0.62008650  1
  In  In66  1  0.84139950  0.01246410  0.13061718  1
  In  In67  1  0.83121776  0.00506301  0.61487829  1
  In  In68  1  0.83276750  0.33318689  0.13404100  1
  In  In69  1  0.83081705  0.33041778  0.62503708  1
  In  In70  1  0.82818760  0.67037647  0.14224121  1
  In  In71  1  0.82468346  0.65740862  0.61173347  1
  In  In72  1  0.67141328  -0.00483555  0.26131002  1
  In  In73  1  0.33292630  0.33139089  0.25072101  1
  In  In74  1  -0.01142685  0.66325483  0.74663761  1
  In  In75  1  0.83793604  0.17055119  -0.01121842  1
  In  In76  1  0.82430874  0.83956568  0.00344361  1
  In  In77  1  0.18259176  0.48836574  0.00702043  1
  In  In78  1  0.50624523  0.49587140  0.50735751  1
  In  In79  1  0.33447605  0.00265052  0.74901624  1
  In  In80  1  0.33364603  0.66308583  0.74805508  1
  In  In81  1  0.16396371  0.50097230  0.49431390  1
  In  In82  1  0.49641513  0.17079631  0.00245489  1
  In  In83  1  0.17076923  0.83668613  0.00213653  1
  In  In84  1  0.49312567  0.83402646  -0.00472303  1
  In  In85  1  0.82984646  0.49810001  -0.00899365  1
  Cu  Cu86  1  0.50339452  0.49631763  0.25301737  1
  Cu  Cu87  1  0.00585197  0.31707955  -0.00000884  1
  Cu  Cu88  1  -0.00420904  0.33273797  0.50303235  1
  Cu  Cu89  1  0.16388931  0.83676328  0.73924553  1
  Cu  Cu90  1  0.82973764  0.83606932  0.26282897  1
  Cu  Cu91  1  0.49840108  0.83107721  0.25735801  1
  Cu  Cu92  1  0.32203379  -0.00508349  0.49497802  1
  Cu  Cu93  1  0.50995817  0.84190355  0.73770994  1
  Cu  Cu94  1  0.16381154  0.84175833  0.25593528  1
  Cu  Cu95  1  0.67099784  0.00039926  -0.01336989  1
  Cu  Cu96  1  0.00164499  0.00516284  0.49784922  1
  Cu  Cu97  1  0.16523334  0.16046584  0.74182878  1
  Cu  Cu98  1  0.83770943  0.17232899  0.25837943  1
  Cu  Cu99  1  0.67212770  0.66392581  0.49836488  1
  Cu  Cu100  1  0.33032409  0.66473260  0.49614566  1
  Cu  Cu101  1  0.16775082  0.16698752  0.25627600  1
  Cu  Cu102  1  0.65593422  0.65721250  0.00197984  1
  Cu  Cu103  1  0.49825540  0.16569211  0.73760362  1
  Cu  Cu104  1  0.83454422  0.49951346  0.74497505  1
  Cu  Cu105  1  0.83641926  0.83908606  0.73535849  1
  Cu  Cu106  1  -0.00266425  0.65974186  0.01477403  1
  Cu  Cu107  1  0.01180353  0.00590237  0.00087296  1
  Cu  Cu108  1  0.66887799  0.33444761  0.50728607  1
  Cu  Cu109  1  0.16136461  0.50335025  0.25618966  1
  Cu  Cu110  1  -0.00109690  0.67551783  0.49460158  1
  Cu  Cu111  1  0.16348744  0.48569532  0.74863520  1
  Cu  Cu112  1  0.33996302  0.66735286  0.00685628  1
  Cu  Cu113  1  0.83046961  0.49712324  0.25554290  1
  Cu  Cu114  1  0.65761491  0.34147637  -0.00487857  1
  Se  Se115  1  0.08754383  0.08931634  0.05858170  1
  Se  Se116  1  0.08402285  0.08864951  0.55189337  1
  Se  Se117  1  0.07498148  0.40788951  0.06031864  1
  Se  Se118  1  0.08035896  0.41357431  0.56145969  1
  Se  Se119  1  0.07560146  0.75014782  0.06599858  1
  Se  Se120  1  0.08584724  0.75562574  0.54683403  1
  Se  Se121  1  0.41379045  0.07806686  0.06469143  1
  Se  Se122  1  0.40877468  0.07768028  0.54652360  1
  Se  Se123  1  0.40789104  0.41157699  0.04672626  1
  Se  Se124  1  0.41237856  0.40469065  0.56008817  1
  Se  Se125  1  0.41496120  0.74963115  0.06837039  1
  Se  Se126  1  0.41402220  0.74890831  0.54835650  1
  Se  Se127  1  0.74830582  0.07685547  0.05200200  1
  Se  Se128  1  0.72599835  0.06554085  0.54611754  1
  Se  Se129  1  0.74579333  0.41076165  0.05778971  1
  Se  Se130  1  0.75202182  0.42149325  0.55653015  1
  Se  Se131  1  0.73840874  0.73880578  0.06096408  1
  Se  Se132  1  0.75494658  0.75436115  0.54680176  1
  Se  Se133  1  0.25991332  0.26346433  0.05095943  1
  Se  Se134  1  0.23720748  0.24662290  0.54614987  1
  Se  Se135  1  0.25355439  0.59466088  0.06737297  1
  Se  Se136  1  0.25909903  0.58427699  0.56036977  1
  Se  Se137  1  0.26071002  0.92413493  0.06154001  1
  Se  Se138  1  0.24112033  0.91255802  0.55124410  1
  Se  Se139  1  0.59218167  0.25643965  0.06178859  1
  Se  Se140  1  0.58091975  0.25104165  0.55601123  1
  Se  Se141  1  0.57520039  0.57662349  0.05757727  1
  Se  Se142  1  0.59713324  0.58635905  0.56448209  1
  Se  Se143  1  0.59376390  0.92383431  0.05157458  1
  Se  Se144  1  0.55534953  0.88740327  0.55293172  1
  Se  Se145  1  0.92066558  0.24731459  0.06393126  1
  Se  Se146  1  0.91094530  0.24791654  0.55389870  1
  Se  Se147  1  0.91001852  0.58111576  0.06763865  1
  Se  Se148  1  0.92103514  0.58545257  0.54633122  1
  Se  Se149  1  0.92737460  0.92508561  0.05984908  1
  Se  Se150  1  0.91375873  0.91922931  0.54614212  1
  Se  Se151  1  0.08261138  0.25366152  0.44961783  1
  Se  Se152  1  0.08627924  0.23670736  0.94280696  1
  Se  Se153  1  0.07761312  0.59211481  0.43337891  1
  Se  Se154  1  0.07726707  0.58219523  0.95250959  1
  Se  Se155  1  0.08365267  0.91821799  0.44620138  1
  Se  Se156  1  0.07972497  0.91912895  0.93589885  1
  Se  Se157  1  0.42369945  0.24468308  0.45574269  1
  Se  Se158  1  0.41286170  0.25651342  0.93592953  1
  Se  Se159  1  0.41491906  0.58316028  0.44170576  1
  Se  Se160  1  0.42277762  0.58963948  0.94928461  1
  Se  Se161  1  0.41309005  0.91698230  0.44362696  1
  Se  Se162  1  0.40729255  0.94106971  0.94775729  1
  Se  Se163  1  0.75274775  0.25072812  0.45256893  1
  Se  Se164  1  0.73736679  0.25867103  0.93585860  1
  Se  Se165  1  0.75446622  0.57742812  0.44802767  1
  Se  Se166  1  0.73571532  0.58624099  0.93492651  1
  Se  Se167  1  0.73540605  0.93769634  0.45910622  1
  Se  Se168  1  0.75513149  0.92507178  0.92718569  1
  Se  Se169  1  0.24243695  0.08658885  0.44642708  1
  Se  Se170  1  0.25310685  0.08068280  0.95496645  1
  Se  Se171  1  0.26415411  0.40648593  0.44842572  1
  Se  Se172  1  0.24745110  0.40903312  0.92764950  1
  Se  Se173  1  0.24701572  0.75060007  0.44599276  1
  Se  Se174  1  0.26246160  0.74189643  0.94051797  1
  Se  Se175  1  0.59926264  0.07551400  0.45793814  1
  Se  Se176  1  0.59032351  0.08820002  0.93549083  1
  Se  Se177  1  0.58962409  0.40829479  0.44030201  1
  Se  Se178  1  0.57574496  0.42234347  0.94046172  1
  Se  Se179  1  0.58150049  0.74412061  0.44957081  1
  Se  Se180  1  0.59295766  0.75167975  0.93858851  1
  Se  Se181  1  0.91580150  0.09195372  0.45081139  1
  Se  Se182  1  0.92443907  0.07151444  0.93500979  1
  Se  Se183  1  0.91407443  0.41988150  0.45182409  1
  Se  Se184  1  0.92290824  0.39756974  0.94135621  1
  Se  Se185  1  0.91155273  0.75723662  0.44453087  1
  Se  Se186  1  0.91868628  0.73982317  0.95052428  1
  Se  Se187  1  0.25086087  0.24387572  0.31743936  1
  Se  Se188  1  0.24740835  0.24208037  0.79867421  1
  Se  Se189  1  0.25288575  0.58403770  0.30263870  1
  Se  Se190  1  0.24007659  0.57261091  0.80877342  1
  Se  Se191  1  0.25167441  0.92268242  0.30651742  1
  Se  Se192  1  0.24358273  0.90743513  0.80783239  1
  Se  Se193  1  0.58704681  0.23683108  0.30405150  1
  Se  Se194  1  0.57795376  0.25224558  0.79372390  1
  Se  Se195  1  0.58479004  0.58233073  0.30551405  1
  Se  Se196  1  0.59806623  0.60816988  0.80360489  1
  Se  Se197  1  0.57854653  0.90829162  0.32009146  1
  Se  Se198  1  0.58787957  0.92459564  0.79659198  1
  Se  Se199  1  0.92039375  0.25717375  0.31101074  1
  Se  Se200  1  0.90100872  0.22420087  0.79901408  1
  Se  Se201  1  0.91387252  0.58217450  0.30787736  1
  Se  Se202  1  0.90854806  0.57322870  0.81678196  1
  Se  Se203  1  0.91356609  0.92360187  0.31008721  1
  Se  Se204  1  0.92559108  0.91249232  0.79215399  1
  Se  Se205  1  0.08042413  0.08580988  0.30805102  1
  Se  Se206  1  0.08568290  0.07601673  0.79729878  1
  Se  Se207  1  0.08311132  0.41334628  0.30654557  1
  Se  Se208  1  0.07129917  0.40606916  0.79672459  1
  Se  Se209  1  0.07921071  0.75483983  0.30504571  1
  Se  Se210  1  0.08819362  0.75320075  0.80346425  1
  Se  Se211  1  0.42771448  0.08726693  0.30977424  1
  Se  Se212  1  0.42218513  0.09557614  0.80991580  1
  Se  Se213  1  0.42687465  0.41547632  0.31516612  1
  Se  Se214  1  0.41979354  0.42686971  0.79971838  1
  Se  Se215  1  0.41210775  0.74618430  0.30697109  1
  Se  Se216  1  0.42481497  0.76591005  0.79960667  1
  Se  Se217  1  0.75934702  0.08870579  0.31829619  1
  Se  Se218  1  0.73675696  0.07364279  0.78807561  1
  Se  Se219  1  0.74854507  0.41166423  0.30834221  1
  Se  Se220  1  0.75002772  0.41560602  0.79801052  1
  Se  Se221  1  0.74524380  0.75402170  0.31479062  1
  Se  Se222  1  0.75715833  0.75255113  0.79066533  1
  Se  Se223  1  0.25171408  0.08920672  0.19830291  1
  Se  Se224  1  0.25317300  0.08935561  0.68168767  1
  Se  Se225  1  0.24133646  0.42527517  0.19140545  1
  Se  Se226  1  0.25089906  0.40734369  0.69659044  1
  Se  Se227  1  0.24894139  0.75392307  0.20594298  1
  Se  Se228  1  0.24753937  0.75525804  0.68505534  1
  Se  Se229  1  0.58647957  0.08273831  0.19389282  1
  Se  Se230  1  0.58131163  0.07949809  0.68806125  1
  Se  Se231  1  0.58160049  0.41231640  0.19577895  1
  Se  Se232  1  0.57092598  0.42878199  0.70077071  1
  Se  Se233  1  0.58556076  0.74793964  0.20653280  1
  Se  Se234  1  0.59066373  0.75086537  0.69086759  1
  Se  Se235  1  0.91851884  0.08211477  0.20784410  1
  Se  Se236  1  0.91257859  0.07858814  0.68902122  1
  Se  Se237  1  0.91647776  0.41383249  0.20230474  1
  Se  Se238  1  0.91746662  0.41388234  0.69499940  1
  Se  Se239  1  0.91456350  0.75083005  0.20842781  1
  Se  Se240  1  0.91625201  0.75376374  0.67718649  1
  Se  Se241  1  0.08522604  0.25195524  0.20247171  1
  Se  Se242  1  0.07737759  0.24616823  0.69466538  1
  Se  Se243  1  0.07517646  0.58845673  0.20582138  1
  Se  Se244  1  0.08910788  0.57460282  0.69083932  1
  Se  Se245  1  0.08272119  0.92670214  0.20110761  1
  Se  Se246  1  0.07938599  0.92285816  0.69318364  1
  Se  Se247  1  0.42568059  0.24273110  0.19199380  1
  Se  Se248  1  0.40858458  0.24999140  0.69237918  1
  Se  Se249  1  0.41696450  0.57900669  0.20041560  1
  Se  Se250  1  0.42970891  0.58126238  0.68948240  1
  Se  Se251  1  0.41999241  0.92001619  0.20467591  1
  Se  Se252  1  0.42715956  0.92533637  0.68282345  1
  Se  Se253  1  0.75120339  0.25012168  0.20307116  1
  Se  Se254  1  0.73587627  0.25962491  0.69115512  1
  Se  Se255  1  0.74426525  0.58134121  0.20329295  1
  Se  Se256  1  0.75540601  0.58870994  0.69454875  1
  Se  Se257  1  0.75794979  0.90848581  0.18940217  1
  Se  Se258  1  0.74931854  0.91839738  0.68427264  1
