# generated using pymatgen
data_In86Cu29Se144
_symmetry_space_group_name_H-M   'P 1'
_cell_length_a   17.58250494
_cell_length_b   17.58175733
_cell_length_c   23.44076957
_cell_angle_alpha   89.99070474
_cell_angle_beta   89.99115783
_cell_angle_gamma   89.98333374
_symmetry_Int_Tables_number   1
_chemical_formula_structural   In86Cu29Se144
_chemical_formula_sum   'In86 Cu29 Se144'
_cell_volume   7246.27590400
_cell_formula_units_Z   1
loop_
 _symmetry_equiv_pos_site_id
 _symmetry_equiv_pos_as_xyz
  1  'x, y, z'
loop_
 _atom_site_type_symbol
 _atom_site_label
 _atom_site_symmetry_multiplicity
 _atom_site_fract_x
 _atom_site_fract_y
 _atom_site_fract_z
 _atom_site_occupancy
  In  In0  1  0.00675776  0.15855224  0.13446296  1
  In  In1  1  -0.01322120  0.17736777  0.62487431  1
  In  In2  1  -0.01438957  0.50099067  0.12766534  1
  In  In3  1  -0.00254755  0.49189742  0.61555313  1
  In  In4  1  0.01493694  0.83309340  0.12714140  1
  In  In5  1  0.00151611  0.83678185  0.61723342  1
  In  In6  1  0.32473942  0.16970133  0.13091772  1
  In  In7  1  0.34105670  0.17153607  0.62475894  1
  In  In8  1  0.34153753  0.49001801  0.13603595  1
  In  In9  1  0.32513691  0.49894543  0.62128545  1
  In  In10  1  0.32113135  0.84350375  0.13762696  1
  In  In11  1  0.33212880  0.82783455  0.61253629  1
  In  In12  1  0.66876441  0.16546770  0.13401630  1
  In  In13  1  0.66846304  0.16322735  0.62569233  1
  In  In14  1  0.66668739  0.49907275  0.12853815  1
  In  In15  1  0.67531064  0.49124121  0.62891037  1
  In  In16  1  0.66595964  0.83339603  0.13600479  1
  In  In17  1  0.66228703  0.82807186  0.62071571  1
  In  In18  1  0.15854674  -0.00539315  0.36942470  1
  In  In19  1  0.17619011  -0.00032989  0.88975483  1
  In  In20  1  0.17645209  0.35444201  0.35588643  1
  In  In21  1  0.16356006  0.32387349  0.87930557  1
  In  In22  1  0.17690830  0.65429386  0.37519074  1
  In  In23  1  0.17560625  0.67086704  0.87801615  1
  In  In24  1  0.49663598  -0.00710806  0.37238362  1
  In  In25  1  0.50304339  -0.00831263  0.87426940  1
  In  In26  1  0.50205613  0.33591399  0.37224137  1
  In  In27  1  0.51146146  0.33997792  0.87087030  1
  In  In28  1  0.50661297  0.67455220  0.36941093  1
  In  In29  1  0.49977430  0.65893380  0.87600568  1
  In  In30  1  0.83099168  0.00031012  0.37657131  1
  In  In31  1  0.83016705  0.00683637  0.87072897  1
  In  In32  1  0.82986592  0.33123010  0.37978207  1
  In  In33  1  0.83398085  0.33964930  0.87658827  1
  In  In34  1  0.82616820  0.67703939  0.38275743  1
  In  In35  1  0.81911478  0.66263463  0.87004080  1
  In  In36  1  -0.00437946  0.16444001  0.36882597  1
  In  In37  1  0.01274033  0.17895911  0.88114077  1
  In  In38  1  0.01027641  0.49126357  0.37533565  1
  In  In39  1  -0.00960605  0.48033706  0.88535860  1
  In  In40  1  -0.01045985  0.84243535  0.38299581  1
  In  In41  1  0.00693577  0.84407733  0.87399737  1
  In  In42  1  0.34016411  0.17083544  0.36651438  1
  In  In43  1  0.31977989  0.17116254  0.88067548  1
  In  In44  1  0.31761662  0.49098578  0.35783033  1
  In  In45  1  0.35217192  0.50580266  0.87918528  1
  In  In46  1  0.33237390  0.82977866  0.37362210  1
  In  In47  1  0.33194372  0.83242410  0.87988991  1
  In  In48  1  0.67440876  0.17107961  0.37549274  1
  In  In49  1  0.66521278  0.16316131  0.86533987  1
  In  In50  1  0.66692987  0.50157041  0.37603223  1
  In  In51  1  0.66750676  0.49948747  0.87573315  1
  In  In52  1  0.67061607  0.83717705  0.37824726  1
  In  In53  1  0.66584476  0.83320391  0.86136475  1
  In  In54  1  0.17040892  -0.00276423  0.12995823  1
  In  In55  1  0.17297904  -0.00850832  0.62205384  1
  In  In56  1  0.17282494  0.32977391  0.13531078  1
  In  In57  1  0.16813669  0.34178589  0.62313823  1
  In  In58  1  0.16144394  0.68086529  0.12751039  1
  In  In59  1  0.16927603  0.66830110  0.61664108  1
  In  In60  1  0.49599059  0.00327960  0.13545542  1
  In  In61  1  0.51688642  0.00110256  0.61721138  1
  In  In62  1  0.49141676  0.34213671  0.13329064  1
  In  In63  1  0.49610005  0.34038607  0.63102588  1
  In  In64  1  0.50984824  0.65985585  0.13127887  1
  In  In65  1  0.50251197  0.68067789  0.61975606  1
  In  In66  1  0.83186376  0.00483612  0.13733474  1
  In  In67  1  0.78907454  -0.02514652  0.58326866  1
  In  In68  1  0.82346953  0.33871137  0.13498181  1
  In  In69  1  0.81326714  0.31523025  0.60004785  1
  In  In70  1  0.83486703  0.65128724  0.12802614  1
  In  In71  1  0.82409786  0.65026700  0.61522686  1
  In  In72  1  0.50462182  0.16642635  0.49149749  1
  In  In73  1  0.33908404  0.00248646  0.75671496  1
  In  In74  1  0.83981225  0.82709492  0.00000497  1
  In  In75  1  0.16046392  0.16665157  0.49633317  1
  In  In76  1  0.49354034  0.17037797  0.01292850  1
  In  In77  1  0.16745911  0.49903835  0.01023219  1
  In  In78  1  0.49808964  0.49936121  0.49169830  1
  In  In79  1  0.84008139  0.17155292  0.00053804  1
  In  In80  1  -0.00606594  0.33320099  0.75433696  1
  In  In81  1  0.34105917  0.66812917  0.74089279  1
  In  In82  1  0.49399496  0.83144299  -0.00336849  1
  In  In83  1  -0.00106536  0.66608895  0.25175419  1
  In  In84  1  -0.00620540  0.00590617  0.74271771  1
  In  In85  1  -0.00367549  0.66710468  0.75381292  1
  Cu  Cu86  1  0.50505343  0.84088188  0.74277509  1
  Cu  Cu87  1  0.51038227  0.49994835  0.75379777  1
  Cu  Cu88  1  -0.00031573  0.00184273  0.49326431  1
  Cu  Cu89  1  0.33688312  0.33844649  0.00861497  1
  Cu  Cu90  1  0.00385455  0.66726154  0.49493337  1
  Cu  Cu91  1  0.83172310  0.83633510  0.25760607  1
  Cu  Cu92  1  0.00449896  0.33919459  0.49137264  1
  Cu  Cu93  1  0.66772054  0.34471164  0.00171720  1
  Cu  Cu94  1  0.17011477  0.50208116  0.74442102  1
  Cu  Cu95  1  0.33219486  -0.00705669  0.49343058  1
  Cu  Cu96  1  0.17032601  0.16908820  0.75782406  1
  Cu  Cu97  1  0.82592535  0.83246743  0.73599892  1
  Cu  Cu98  1  0.33081327  0.66288014  0.49394155  1
  Cu  Cu99  1  0.50168352  0.17494931  0.74499937  1
  Cu  Cu100  1  0.66342006  -0.00310720  -0.00011204  1
  Cu  Cu101  1  0.50556845  0.16021827  0.25268787  1
  Cu  Cu102  1  0.16737283  0.16457826  0.25231931  1
  Cu  Cu103  1  0.50448352  0.50161771  0.25352847  1
  Cu  Cu104  1  0.50009522  0.82890639  0.25432770  1
  Cu  Cu105  1  0.82619975  0.49882091  0.25523853  1
  Cu  Cu106  1  0.82421007  0.16213747  0.74144382  1
  Cu  Cu107  1  0.01034431  0.00159333  0.00779168  1
  Cu  Cu108  1  0.16487505  0.83508922  0.25439251  1
  Cu  Cu109  1  -0.00039294  0.66360209  0.00433601  1
  Cu  Cu110  1  0.66848564  0.65624114  0.00131848  1
  Cu  Cu111  1  0.66564927  0.66736341  0.49659449  1
  Cu  Cu112  1  0.33379721  0.67278010  0.00414587  1
  Cu  Cu113  1  0.82586685  0.49205565  0.74592787  1
  Cu  Cu114  1  0.83379706  0.17093257  0.25567883  1
  Se  Se115  1  0.09012433  0.08596122  0.06063708  1
  Se  Se116  1  0.07398654  0.07781922  0.56262472  1
  Se  Se117  1  0.07687106  0.41011123  0.06675395  1
  Se  Se118  1  0.08923247  0.41657703  0.54897676  1
  Se  Se119  1  0.08295377  0.75199167  0.04976236  1
  Se  Se120  1  0.08486942  0.75172128  0.55099788  1
  Se  Se121  1  0.40429505  0.07175829  0.06202496  1
  Se  Se122  1  0.40958113  0.07546494  0.55433979  1
  Se  Se123  1  0.42177886  0.42369755  0.05639622  1
  Se  Se124  1  0.40888416  0.41040412  0.55403988  1
  Se  Se125  1  0.41404095  0.74886120  0.06761233  1
  Se  Se126  1  0.41667905  0.74696774  0.54493443  1
  Se  Se127  1  0.74623525  0.07731484  0.05711974  1
  Se  Se128  1  0.75481013  0.10762517  0.54543843  1
  Se  Se129  1  0.75385471  0.42052049  0.05789117  1
  Se  Se130  1  0.76181254  0.43480882  0.55106455  1
  Se  Se131  1  0.74354177  0.74407333  0.06027258  1
  Se  Se132  1  0.75014903  0.74711055  0.55261603  1
  Se  Se133  1  0.25162058  0.25507141  0.05811709  1
  Se  Se134  1  0.25482740  0.25356491  0.55563942  1
  Se  Se135  1  0.25805141  0.59130534  0.06688779  1
  Se  Se136  1  0.24888823  0.58112744  0.54989563  1
  Se  Se137  1  0.24054795  0.90607298  0.05929353  1
  Se  Se138  1  0.24614621  0.91261983  0.54738199  1
  Se  Se139  1  0.59292558  0.26036061  0.06335652  1
  Se  Se140  1  0.58112198  0.25617874  0.56117980  1
  Se  Se141  1  0.58281800  0.57883141  0.05617297  1
  Se  Se142  1  0.58635570  0.58518092  0.55767380  1
  Se  Se143  1  0.58505991  0.91864553  0.06067432  1
  Se  Se144  1  0.58061000  0.90815300  0.54954589  1
  Se  Se145  1  0.91912270  0.25264637  0.07072596  1
  Se  Se146  1  0.92383223  0.25156429  0.54319046  1
  Se  Se147  1  0.91251067  0.58022316  0.05065444  1
  Se  Se148  1  0.92180869  0.58269685  0.54961962  1
  Se  Se149  1  0.91976114  0.92458858  0.06195789  1
  Se  Se150  1  0.91834639  0.91860469  0.54928113  1
  Se  Se151  1  0.08462513  0.25944259  0.43053382  1
  Se  Se152  1  0.08004691  0.26090626  0.95512481  1
  Se  Se153  1  0.08598571  0.58092417  0.44391087  1
  Se  Se154  1  0.07907452  0.58447403  0.94005040  1
  Se  Se155  1  0.08730759  0.91685418  0.44720555  1
  Se  Se156  1  0.08514879  0.91412956  0.95023154  1
  Se  Se157  1  0.40753836  0.25983205  0.44272323  1
  Se  Se158  1  0.41457688  0.25971120  0.94369129  1
  Se  Se159  1  0.40889062  0.58592898  0.43038675  1
  Se  Se160  1  0.42077772  0.59031416  0.95368174  1
  Se  Se161  1  0.41827586  0.91007068  0.44372781  1
  Se  Se162  1  0.40396043  0.93250566  0.94647344  1
  Se  Se163  1  0.75540968  0.24280872  0.45082963  1
  Se  Se164  1  0.73693771  0.25196827  0.94275776  1
  Se  Se165  1  0.74924989  0.58209395  0.44659411  1
  Se  Se166  1  0.75481378  0.57850418  0.94631017  1
  Se  Se167  1  0.75891482  0.91222642  0.44834239  1
  Se  Se168  1  0.74506254  0.91805880  0.94053199  1
  Se  Se169  1  0.25573916  0.08033393  0.43711516  1
  Se  Se170  1  0.24489908  0.09501812  0.95398546  1
  Se  Se171  1  0.24946923  0.41795253  0.43841205  1
  Se  Se172  1  0.25883468  0.41735207  0.94292752  1
  Se  Se173  1  0.24658375  0.74902241  0.44334577  1
  Se  Se174  1  0.24968681  0.75350520  0.95066731  1
  Se  Se175  1  0.59344233  0.07099379  0.43943202  1
  Se  Se176  1  0.58444618  0.08261060  0.94464562  1
  Se  Se177  1  0.59514755  0.40308909  0.44639438  1
  Se  Se178  1  0.58076709  0.42204975  0.94689795  1
  Se  Se179  1  0.58313728  0.75173880  0.44443776  1
  Se  Se180  1  0.59602647  0.74582813  0.94143161  1
  Se  Se181  1  0.91717964  0.08655054  0.44278707  1
  Se  Se182  1  0.92877974  0.07347916  0.94150397  1
  Se  Se183  1  0.91543881  0.42157538  0.44308846  1
  Se  Se184  1  0.91622798  0.39820764  0.95532260  1
  Se  Se185  1  0.91465676  0.75313849  0.45130228  1
  Se  Se186  1  0.92600100  0.73918496  0.93376193  1
  Se  Se187  1  0.25345135  0.25097767  0.29983655  1
  Se  Se188  1  0.25240533  0.25752688  0.80561176  1
  Se  Se189  1  0.24782593  0.58827305  0.29332561  1
  Se  Se190  1  0.25079040  0.57974667  0.80607307  1
  Se  Se191  1  0.25223892  0.91800027  0.30516700  1
  Se  Se192  1  0.24268077  0.91204579  0.80934561  1
  Se  Se193  1  0.58320532  0.24666034  0.30768587  1
  Se  Se194  1  0.58751333  0.25367431  0.80080765  1
  Se  Se195  1  0.58870503  0.58523976  0.30515002  1
  Se  Se196  1  0.58828819  0.58807174  0.80614695  1
  Se  Se197  1  0.58510752  0.91347268  0.30532793  1
  Se  Se198  1  0.58585013  0.92487405  0.79803091  1
  Se  Se199  1  0.91603481  0.25739555  0.30602127  1
  Se  Se200  1  0.90550727  0.23282944  0.80921169  1
  Se  Se201  1  0.90782561  0.58117994  0.31424621  1
  Se  Se202  1  0.91091342  0.56538824  0.80894768  1
  Se  Se203  1  0.91817937  0.92044813  0.30577772  1
  Se  Se204  1  0.90484793  0.90662417  0.80262531  1
  Se  Se205  1  0.08043339  0.08129159  0.30181602  1
  Se  Se206  1  0.08805786  0.08478069  0.81166977  1
  Se  Se207  1  0.07467075  0.41937030  0.29306022  1
  Se  Se208  1  0.09047835  0.42624055  0.80923689  1
  Se  Se209  1  0.08336932  0.75598870  0.31544009  1
  Se  Se210  1  0.09368251  0.75696493  0.80627894  1
  Se  Se211  1  0.41758391  0.07864822  0.30275064  1
  Se  Se212  1  0.42694613  0.09864458  0.81395362  1
  Se  Se213  1  0.41970716  0.41357561  0.30097946  1
  Se  Se214  1  0.42045123  0.42094962  0.80533667  1
  Se  Se215  1  0.41179105  0.74566576  0.30234355  1
  Se  Se216  1  0.42594383  0.76141307  0.80644489  1
  Se  Se217  1  0.75043481  0.08332899  0.30543089  1
  Se  Se218  1  0.74540005  0.07636924  0.79784725  1
  Se  Se219  1  0.74558068  0.41262042  0.30873440  1
  Se  Se220  1  0.74716363  0.41160246  0.80609184  1
  Se  Se221  1  0.74800610  0.74990005  0.30618806  1
  Se  Se222  1  0.75050818  0.74870990  0.79648260  1
  Se  Se223  1  0.25195697  0.07978285  0.20051130  1
  Se  Se224  1  0.24472234  0.08921748  0.69323800  1
  Se  Se225  1  0.25221084  0.41571284  0.20206794  1
  Se  Se226  1  0.25321799  0.41513618  0.69608624  1
  Se  Se227  1  0.24625961  0.74831351  0.20262749  1
  Se  Se228  1  0.24376010  0.75898315  0.69081921  1
  Se  Se229  1  0.59022307  0.07672595  0.20016731  1
  Se  Se230  1  0.58064626  0.08522359  0.69440560  1
  Se  Se231  1  0.58569787  0.41561982  0.19867338  1
  Se  Se232  1  0.58818287  0.41417550  0.69768102  1
  Se  Se233  1  0.58600652  0.74654888  0.20147924  1
  Se  Se234  1  0.58449452  0.74796119  0.69635453  1
  Se  Se235  1  0.91716944  0.08433268  0.20386948  1
  Se  Se236  1  0.89887192  0.08177011  0.67945072  1
  Se  Se237  1  0.91265615  0.41908764  0.20192408  1
  Se  Se238  1  0.90791052  0.41367726  0.68618987  1
  Se  Se239  1  0.90857547  0.75869315  0.18992824  1
  Se  Se240  1  0.91215607  0.75040005  0.68439652  1
  Se  Se241  1  0.08312275  0.24961030  0.20120658  1
  Se  Se242  1  0.08869444  0.24395127  0.69417116  1
  Se  Se243  1  0.08723499  0.57814101  0.18977231  1
  Se  Se244  1  0.08467441  0.57901907  0.68856958  1
  Se  Se245  1  0.08153213  0.91884363  0.20073646  1
  Se  Se246  1  0.08928253  0.90983875  0.69452998  1
  Se  Se247  1  0.42226826  0.24172624  0.19553261  1
  Se  Se248  1  0.41123933  0.25539061  0.69794808  1
  Se  Se249  1  0.42029263  0.58369970  0.19928746  1
  Se  Se250  1  0.43125806  0.57337011  0.68589002  1
  Se  Se251  1  0.41751800  0.91526839  0.20190960  1
  Se  Se252  1  0.41741385  0.91492034  0.68518267  1
  Se  Se253  1  0.74554542  0.25112847  0.20297135  1
  Se  Se254  1  0.75050523  0.25573256  0.68978213  1
  Se  Se255  1  0.74670623  0.58454308  0.20003803  1
  Se  Se256  1  0.74839851  0.58507114  0.69706590  1
  Se  Se257  1  0.74831082  0.91882162  0.20157583  1
  Se  Se258  1  0.74816600  0.92069980  0.68251154  1
