# generated using pymatgen
data_In86Cu29Se144
_symmetry_space_group_name_H-M   'P 1'
_cell_length_a   17.58029710
_cell_length_b   17.58518273
_cell_length_c   23.43807219
_cell_angle_alpha   90.01063707
_cell_angle_beta   90.01112337
_cell_angle_gamma   90.00317676
_symmetry_Int_Tables_number   1
_chemical_formula_structural   In86Cu29Se144
_chemical_formula_sum   'In86 Cu29 Se144'
_cell_volume   7245.94389279
_cell_formula_units_Z   1
loop_
 _symmetry_equiv_pos_site_id
 _symmetry_equiv_pos_as_xyz
  1  'x, y, z'
loop_
 _atom_site_type_symbol
 _atom_site_label
 _atom_site_symmetry_multiplicity
 _atom_site_fract_x
 _atom_site_fract_y
 _atom_site_fract_z
 _atom_site_occupancy
  In  In0  1  -0.02612529  0.16863855  0.12279694  1
  In  In1  1  0.00153797  0.18121147  0.62301746  1
  In  In2  1  0.00196720  0.50098866  0.11497993  1
  In  In3  1  0.00688444  0.49327044  0.63308719  1
  In  In4  1  -0.00155545  0.83057897  0.12526539  1
  In  In5  1  -0.00598680  0.81802067  0.62639445  1
  In  In6  1  0.35217847  0.16764130  0.12162873  1
  In  In7  1  0.33441661  0.15673957  0.62493056  1
  In  In8  1  0.34414292  0.49763981  0.11250072  1
  In  In9  1  0.33272162  0.49793960  0.62093966  1
  In  In10  1  0.32736592  0.82647045  0.11641409  1
  In  In11  1  0.33454494  0.84914406  0.62732856  1
  In  In12  1  0.66006307  0.16236270  0.12878931  1
  In  In13  1  0.67013894  0.17174614  0.61362873  1
  In  In14  1  0.66910173  0.49505950  0.12162424  1
  In  In15  1  0.66779951  0.51029271  0.62458974  1
  In  In16  1  0.66838936  0.83218976  0.12510207  1
  In  In17  1  0.66036622  0.83014968  0.62784538  1
  In  In18  1  0.14437477  -0.00154834  0.37864149  1
  In  In19  1  0.16493786  -0.01659754  0.87273510  1
  In  In20  1  0.17677218  0.33564109  0.37697681  1
  In  In21  1  0.15973919  0.35124599  0.88317967  1
  In  In22  1  0.15824768  0.67375657  0.38199416  1
  In  In23  1  0.16110416  0.67297713  0.87762347  1
  In  In24  1  0.51411034  0.01018602  0.36393739  1
  In  In25  1  0.49461717  0.00599938  0.88063620  1
  In  In26  1  0.50586974  0.33045493  0.37793766  1
  In  In27  1  0.50057233  0.33450618  0.90801751  1
  In  In28  1  0.49966118  0.65828121  0.36906013  1
  In  In29  1  0.51486958  0.65476770  0.88466282  1
  In  In30  1  0.83877241  0.01048201  0.36589609  1
  In  In31  1  0.82359222  0.00877073  0.88742043  1
  In  In32  1  0.82043557  0.33995993  0.37165190  1
  In  In33  1  0.84612631  0.32601929  0.89427272  1
  In  In34  1  0.82955911  0.65797329  0.36131086  1
  In  In35  1  0.83572075  0.66721455  0.87851337  1
  In  In36  1  -0.00281384  0.15360251  0.37478887  1
  In  In37  1  -0.01566180  0.16389580  0.87653226  1
  In  In38  1  -0.00788648  0.50858783  0.37383082  1
  In  In39  1  -0.00412765  0.50234267  0.87890351  1
  In  In40  1  0.00136206  0.83811967  0.37053048  1
  In  In41  1  0.00946547  0.82441818  0.88166514  1
  In  In42  1  0.33860251  0.18018614  0.37350165  1
  In  In43  1  0.34562397  0.16599192  0.87367385  1
  In  In44  1  0.33186073  0.50149664  0.38315178  1
  In  In45  1  0.33464205  0.49163581  0.88961175  1
  In  In46  1  0.32604476  0.82449344  0.37883989  1
  In  In47  1  0.32888475  0.83953379  0.87858531  1
  In  In48  1  0.66540974  0.17443337  0.36959291  1
  In  In49  1  0.66629798  0.17837104  0.89302631  1
  In  In50  1  0.64819855  0.48232494  0.35077996  1
  In  In51  1  0.66283370  0.50209402  0.88613660  1
  In  In52  1  0.66730614  0.83126273  0.36103367  1
  In  In53  1  0.67864956  0.82205074  0.88788455  1
  In  In54  1  0.16573944  -0.01635454  0.12686589  1
  In  In55  1  0.18183969  0.00412542  0.62378207  1
  In  In56  1  0.15365922  0.34431605  0.11773027  1
  In  In57  1  0.14577998  0.33783394  0.62580335  1
  In  In58  1  0.15657687  0.65504757  0.11857678  1
  In  In59  1  0.15629040  0.65381565  0.61985692  1
  In  In60  1  0.52011287  0.01313908  0.11889040  1
  In  In61  1  0.49126468  0.00199724  0.62386868  1
  In  In62  1  0.52565969  0.34765359  0.10680068  1
  In  In63  1  0.50313088  0.33533866  0.61800409  1
  In  In64  1  0.50259355  0.66613660  0.12071312  1
  In  In65  1  0.51449812  0.66458977  0.62724769  1
  In  In66  1  0.83268044  -0.00432923  0.12853244  1
  In  In67  1  0.82667148  0.00461684  0.62035758  1
  In  In68  1  0.81018652  0.31126965  0.09308099  1
  In  In69  1  0.84753783  0.33397832  0.62394980  1
  In  In70  1  0.83291942  0.66695984  0.12279008  1
  In  In71  1  0.83263311  0.67012334  0.63646288  1
  In  In72  1  0.33625028  0.66333060  0.24030111  1
  In  In73  1  0.83217372  0.49693031  0.49662508  1
  In  In74  1  0.16785630  0.17022192  0.50085694  1
  In  In75  1  0.34506102  0.33722679  0.24023487  1
  In  In76  1  0.16880802  0.16338337  0.00236322  1
  In  In77  1  0.49579722  0.83641990  0.50168199  1
  In  In78  1  0.66675332  0.33688234  0.76705303  1
  In  In79  1  -0.00832684  0.33865473  0.24343025  1
  In  In80  1  0.66559514  -0.00184330  0.75258478  1
  In  In81  1  0.33237395  0.33468225  0.76031589  1
  In  In82  1  0.33270350  0.66876599  0.75479125  1
  In  In83  1  0.83885342  0.83743131  0.49930131  1
  In  In84  1  0.33518043  -0.00100864  0.25074238  1
  In  In85  1  -0.00145558  -0.00230387  0.74953410  1
  Cu  Cu86  1  0.16854180  0.83108535  0.75265182  1
  Cu  Cu87  1  0.33623610  0.33899044  0.50066726  1
  Cu  Cu88  1  -0.00108887  0.66244326  0.50012558  1
  Cu  Cu89  1  0.66266330  0.33274581  0.49085201  1
  Cu  Cu90  1  0.00039883  0.67077266  -0.00019602  1
  Cu  Cu91  1  0.50120294  0.83633046  0.23928997  1
  Cu  Cu92  1  0.83153286  0.49863428  0.23714807  1
  Cu  Cu93  1  0.83744425  0.50639194  0.75457021  1
  Cu  Cu94  1  0.33495194  -0.00690294  0.00276491  1
  Cu  Cu95  1  0.83706463  0.82946592  0.76204859  1
  Cu  Cu96  1  0.66550555  0.66032825  0.49600808  1
  Cu  Cu97  1  0.32920470  0.66506289  0.50117685  1
  Cu  Cu98  1  -0.00449009  -0.00219170  0.00259718  1
  Cu  Cu99  1  0.83192909  0.17829939  0.75336922  1
  Cu  Cu100  1  0.15958901  0.50327475  0.75365646  1
  Cu  Cu101  1  0.66994131  0.01058667  0.49027205  1
  Cu  Cu102  1  0.66634117  0.66762456  0.00643380  1
  Cu  Cu103  1  0.50415879  0.82927301  0.75247246  1
  Cu  Cu104  1  0.15185712  0.83016783  0.25251248  1
  Cu  Cu105  1  0.16635516  0.16834880  0.74512228  1
  Cu  Cu106  1  0.16391904  0.50685775  0.24715466  1
  Cu  Cu107  1  0.82617233  0.16580193  0.24483360  1
  Cu  Cu108  1  0.50411992  0.50034363  0.75872009  1
  Cu  Cu109  1  0.83373919  0.82868848  0.24363435  1
  Cu  Cu110  1  0.33596809  0.00391311  0.49886416  1
  Cu  Cu111  1  0.16172190  0.16093129  0.24605735  1
  Cu  Cu112  1  0.66759424  -0.00360583  0.00760212  1
  Cu  Cu113  1  0.49900179  0.16546150  0.75477115  1
  Cu  Cu114  1  0.33586877  0.66791982  -0.00442064  1
  Se  Se115  1  0.07595548  0.07715701  0.06424648  1
  Se  Se116  1  0.08066354  0.07906485  0.56155231  1
  Se  Se117  1  0.09078616  0.42932574  0.04367341  1
  Se  Se118  1  0.07755111  0.42175618  0.55320664  1
  Se  Se119  1  0.08533577  0.75275129  0.05433597  1
  Se  Se120  1  0.08032931  0.74727072  0.55403990  1
  Se  Se121  1  0.42064691  0.07804031  0.05107847  1
  Se  Se122  1  0.42013868  0.08750562  0.55058380  1
  Se  Se123  1  0.41328892  0.40271701  0.04793923  1
  Se  Se124  1  0.42151710  0.42252051  0.55287773  1
  Se  Se125  1  0.41808133  0.74853856  0.05224891  1
  Se  Se126  1  0.40999502  0.74295226  0.56437463  1
  Se  Se127  1  0.75030842  0.08073046  0.06109177  1
  Se  Se128  1  0.75455260  0.08772451  0.54773653  1
  Se  Se129  1  0.76058710  0.43342620  0.04615487  1
  Se  Se130  1  0.74049465  0.40755472  0.55897807  1
  Se  Se131  1  0.75249434  0.75350297  0.05408011  1
  Se  Se132  1  0.74365264  0.74264485  0.55675647  1
  Se  Se133  1  0.25370423  0.25371027  0.06487939  1
  Se  Se134  1  0.25581054  0.26117418  0.56476124  1
  Se  Se135  1  0.25547396  0.58633052  0.05374405  1
  Se  Se136  1  0.24785997  0.57881414  0.55371244  1
  Se  Se137  1  0.24433473  0.91262149  0.05005760  1
  Se  Se138  1  0.25366976  0.91845031  0.55036977  1
  Se  Se139  1  0.58512182  0.23707174  0.05079413  1
  Se  Se140  1  0.58083885  0.25038688  0.54864748  1
  Se  Se141  1  0.58202160  0.57915027  0.05335917  1
  Se  Se142  1  0.58092572  0.58030255  0.55105349  1
  Se  Se143  1  0.58080749  0.90970099  0.05431520  1
  Se  Se144  1  0.59475648  0.92933023  0.55584521  1
  Se  Se145  1  0.93902447  0.26910937  0.04933818  1
  Se  Se146  1  0.91024533  0.24404297  0.55222181  1
  Se  Se147  1  0.91626690  0.58798440  0.05160209  1
  Se  Se148  1  0.91485917  0.58836301  0.56210848  1
  Se  Se149  1  0.91402851  0.91358072  0.05698770  1
  Se  Se150  1  0.92797466  0.92480622  0.56171207  1
  Se  Se151  1  0.07828901  0.25449078  0.43700051  1
  Se  Se152  1  0.07803715  0.24851900  0.94034961  1
  Se  Se153  1  0.08071139  0.57881703  0.44546884  1
  Se  Se154  1  0.08401236  0.58639617  0.94554324  1
  Se  Se155  1  0.08447633  0.90343121  0.44747592  1
  Se  Se156  1  0.08242216  0.91758493  0.94936173  1
  Se  Se157  1  0.41731778  0.25334063  0.44796334  1
  Se  Se158  1  0.40648454  0.24199429  0.95409080  1
  Se  Se159  1  0.41702412  0.59038527  0.44547740  1
  Se  Se160  1  0.42165193  0.57923110  0.95008104  1
  Se  Se161  1  0.41435897  0.92656378  0.43397234  1
  Se  Se162  1  0.41969057  0.91293517  0.94705309  1
  Se  Se163  1  0.75127124  0.25064443  0.44277264  1
  Se  Se164  1  0.76144570  0.24305589  0.95979757  1
  Se  Se165  1  0.74111444  0.58061208  0.43359571  1
  Se  Se166  1  0.74965969  0.58947559  0.94852822  1
  Se  Se167  1  0.74330231  0.91836188  0.43660208  1
  Se  Se168  1  0.75311833  0.91496021  0.95370348  1
  Se  Se169  1  0.25513466  0.08020832  0.43508228  1
  Se  Se170  1  0.25488725  0.07177363  0.93907622  1
  Se  Se171  1  0.24717114  0.41933209  0.45058058  1
  Se  Se172  1  0.25400981  0.40695978  0.95486992  1
  Se  Se173  1  0.24545880  0.75121461  0.45209618  1
  Se  Se174  1  0.24957707  0.75123768  0.94469554  1
  Se  Se175  1  0.58104584  0.09089669  0.44085242  1
  Se  Se176  1  0.58721658  0.07796199  0.94841816  1
  Se  Se177  1  0.58517616  0.42537151  0.44142470  1
  Se  Se178  1  0.60819622  0.40407002  0.95841568  1
  Se  Se179  1  0.58816181  0.74978589  0.44062259  1
  Se  Se180  1  0.58137824  0.75114925  0.95257677  1
  Se  Se181  1  0.92282621  0.06914034  0.44465754  1
  Se  Se182  1  0.91343185  0.08656527  0.95384878  1
  Se  Se183  1  0.92398681  0.40575534  0.43951538  1
  Se  Se184  1  0.90850982  0.43298990  0.95208633  1
  Se  Se185  1  0.91491030  0.73677927  0.43814353  1
  Se  Se186  1  0.91455470  0.75478138  0.94808773  1
  Se  Se187  1  0.24367531  0.24666194  0.29911064  1
  Se  Se188  1  0.23813472  0.24451580  0.81531320  1
  Se  Se189  1  0.24595681  0.58287973  0.30881174  1
  Se  Se190  1  0.24903941  0.57219372  0.81371657  1
  Se  Se191  1  0.24040302  0.90917646  0.30872821  1
  Se  Se192  1  0.25453369  0.91568636  0.80020649  1
  Se  Se193  1  0.59181060  0.26751851  0.30332949  1
  Se  Se194  1  0.56885652  0.24647410  0.81980117  1
  Se  Se195  1  0.59309950  0.59879807  0.29887475  1
  Se  Se196  1  0.59189822  0.58178077  0.80751700  1
  Se  Se197  1  0.58298874  0.91703726  0.29628583  1
  Se  Se198  1  0.58239994  0.90849044  0.81594726  1
  Se  Se199  1  0.90925754  0.24407582  0.30718639  1
  Se  Se200  1  0.91484361  0.25784820  0.80844400  1
  Se  Se201  1  0.91627074  0.57650853  0.29450546  1
  Se  Se202  1  0.92099564  0.58998766  0.80714707  1
  Se  Se203  1  0.91159532  0.91216926  0.30294179  1
  Se  Se204  1  0.90985202  0.91867443  0.81836053  1
  Se  Se205  1  0.07935480  0.07962956  0.30020823  1
  Se  Se206  1  0.08836508  0.08868228  0.81013361  1
  Se  Se207  1  0.08919807  0.42047081  0.30700279  1
  Se  Se208  1  0.07775191  0.41886416  0.80678597  1
  Se  Se209  1  0.07524925  0.74095922  0.30553177  1
  Se  Se210  1  0.08208670  0.74964654  0.80259877  1
  Se  Se211  1  0.42305082  0.10012314  0.30126210  1
  Se  Se212  1  0.41562212  0.07706790  0.80188107  1
  Se  Se213  1  0.41951829  0.42567832  0.31101502  1
  Se  Se214  1  0.43177135  0.41631864  0.81931829  1
  Se  Se215  1  0.41976782  0.76102838  0.30331287  1
  Se  Se216  1  0.42722690  0.75061574  0.81601086  1
  Se  Se217  1  0.74465655  0.08445516  0.30174843  1
  Se  Se218  1  0.74925766  0.09728071  0.81098594  1
  Se  Se219  1  0.75159497  0.41217510  0.29131202  1
  Se  Se220  1  0.76363943  0.42491255  0.81893752  1
  Se  Se221  1  0.74848021  0.74504841  0.29569468  1
  Se  Se222  1  0.74729977  0.74659384  0.80795426  1
  Se  Se223  1  0.24761893  0.08861634  0.18577899  1
  Se  Se224  1  0.25411545  0.08355306  0.70002717  1
  Se  Se225  1  0.24384543  0.42674780  0.18800164  1
  Se  Se226  1  0.24370140  0.42201305  0.69556553  1
  Se  Se227  1  0.23638257  0.75473460  0.19156061  1
  Se  Se228  1  0.24618924  0.75269265  0.68767206  1
  Se  Se229  1  0.58715900  0.07722251  0.20224899  1
  Se  Se230  1  0.58139502  0.09334636  0.69060739  1
  Se  Se231  1  0.58666092  0.41455194  0.19232997  1
  Se  Se232  1  0.58074220  0.41992657  0.69515648  1
  Se  Se233  1  0.58286909  0.74684024  0.19210935  1
  Se  Se234  1  0.58879438  0.74633662  0.70107173  1
  Se  Se235  1  0.91541889  0.08075339  0.19906775  1
  Se  Se236  1  0.90632397  0.09165794  0.69373436  1
  Se  Se237  1  0.90424782  0.41532837  0.17521227  1
  Se  Se238  1  0.91389759  0.41824219  0.69926160  1
  Se  Se239  1  0.91927678  0.74459138  0.19438809  1
  Se  Se240  1  0.91909639  0.74848797  0.70532106  1
  Se  Se241  1  0.08436831  0.24401438  0.18691875  1
  Se  Se242  1  0.07807222  0.25317222  0.70094283  1
  Se  Se243  1  0.07537670  0.58180138  0.19328054  1
  Se  Se244  1  0.07861812  0.58832530  0.70020071  1
  Se  Se245  1  0.07520864  0.91784489  0.19834825  1
  Se  Se246  1  0.09064559  0.91082283  0.68832566  1
  Se  Se247  1  0.43903437  0.24980869  0.18678407  1
  Se  Se248  1  0.42191868  0.24888006  0.69349308  1
  Se  Se249  1  0.42841216  0.56792151  0.19115012  1
  Se  Se250  1  0.42329914  0.57556610  0.69547407  1
  Se  Se251  1  0.41694610  0.91378387  0.18217044  1
  Se  Se252  1  0.42511632  0.91603433  0.69915918  1
  Se  Se253  1  0.75466941  0.25262538  0.18567271  1
  Se  Se254  1  0.74701907  0.25258350  0.69327604  1
  Se  Se255  1  0.74615751  0.58604834  0.19055860  1
  Se  Se256  1  0.74845852  0.58191680  0.69959238  1
  Se  Se257  1  0.74713369  0.91509518  0.19719576  1
  Se  Se258  1  0.76161361  0.90677491  0.69477700  1
