# generated using pymatgen
data_In86Cu29Se144
_symmetry_space_group_name_H-M   'P 1'
_cell_length_a   17.58296796
_cell_length_b   17.58256414
_cell_length_c   23.43970852
_cell_angle_alpha   89.99451147
_cell_angle_beta   89.96507448
_cell_angle_gamma   90.00902084
_symmetry_Int_Tables_number   1
_chemical_formula_structural   In86Cu29Se144
_chemical_formula_sum   'In86 Cu29 Se144'
_cell_volume   7246.47025323
_cell_formula_units_Z   1
loop_
 _symmetry_equiv_pos_site_id
 _symmetry_equiv_pos_as_xyz
  1  'x, y, z'
loop_
 _atom_site_type_symbol
 _atom_site_label
 _atom_site_symmetry_multiplicity
 _atom_site_fract_x
 _atom_site_fract_y
 _atom_site_fract_z
 _atom_site_occupancy
  In  In0  1  0.01229753  0.18387507  0.12099117  1
  In  In1  1  0.01134338  0.17470469  0.62815965  1
  In  In2  1  -0.00891379  0.50748022  0.13297053  1
  In  In3  1  0.01613166  0.48851535  0.63832768  1
  In  In4  1  -0.01164985  0.82744223  0.13544899  1
  In  In5  1  -0.00914801  0.81787782  0.61736803  1
  In  In6  1  0.32251503  0.15271896  0.12009167  1
  In  In7  1  0.34377272  0.16210438  0.62657907  1
  In  In8  1  0.32287799  0.50718090  0.12293802  1
  In  In9  1  0.33090557  0.50071660  0.62194704  1
  In  In10  1  0.35839310  0.83277778  0.12183904  1
  In  In11  1  0.32554299  0.81837237  0.60630053  1
  In  In12  1  0.66665730  0.16711445  0.12214274  1
  In  In13  1  0.65071186  0.16519484  0.62502980  1
  In  In14  1  0.67260437  0.48766639  0.13248539  1
  In  In15  1  0.66767156  0.51400110  0.61918499  1
  In  In16  1  0.66080104  0.84757155  0.14242980  1
  In  In17  1  0.66940680  0.83860469  0.61591991  1
  In  In18  1  0.16198837  -0.01881519  0.37276978  1
  In  In19  1  0.17975108  0.00263771  0.87722881  1
  In  In20  1  0.16731435  0.34288277  0.37879893  1
  In  In21  1  0.16056685  0.33530464  0.86979396  1
  In  In22  1  0.16450745  0.67194913  0.38655312  1
  In  In23  1  0.16189699  0.65732183  0.85365588  1
  In  In24  1  0.50269021  0.00107477  0.37306512  1
  In  In25  1  0.50861265  -0.01212401  0.88019242  1
  In  In26  1  0.49770805  0.33023281  0.38010133  1
  In  In27  1  0.48754654  0.33100414  0.87558045  1
  In  In28  1  0.50259183  0.66080152  0.38445080  1
  In  In29  1  0.49294443  0.67604285  0.87428884  1
  In  In30  1  0.82102735  0.00039061  0.36737191  1
  In  In31  1  0.82989178  0.01495453  0.87906581  1
  In  In32  1  0.83642816  0.33929468  0.36699195  1
  In  In33  1  0.84059443  0.32885557  0.88257039  1
  In  In34  1  0.84080990  0.68028213  0.36204884  1
  In  In35  1  0.83326633  0.65630522  0.88149763  1
  In  In36  1  0.00077832  0.16837351  0.36840625  1
  In  In37  1  -0.00644647  0.18109882  0.88488742  1
  In  In38  1  0.00085522  0.50170803  0.37516002  1
  In  In39  1  -0.00131254  0.49270760  0.86832674  1
  In  In40  1  0.00889807  0.81997529  0.38163538  1
  In  In41  1  0.00934696  0.82914666  0.87165963  1
  In  In42  1  0.34736068  0.16943741  0.37288149  1
  In  In43  1  0.32520574  0.17352309  0.88600601  1
  In  In44  1  0.32696681  0.51039484  0.39629771  1
  In  In45  1  0.32908147  0.49789778  0.85378153  1
  In  In46  1  0.32750234  0.83450717  0.38550379  1
  In  In47  1  0.34790152  0.82639444  0.87034179  1
  In  In48  1  0.65752823  0.15900151  0.36248155  1
  In  In49  1  0.67424073  0.15561948  0.88245917  1
  In  In50  1  0.65895575  0.49596286  0.36754433  1
  In  In51  1  0.67367824  0.51341739  0.88022170  1
  In  In52  1  0.66999344  0.83481561  0.37112316  1
  In  In53  1  0.64163939  0.83565285  0.87451092  1
  In  In54  1  0.17156209  0.01971799  0.13125280  1
  In  In55  1  0.18068175  -0.00290067  0.62221897  1
  In  In56  1  0.16167614  0.31541378  0.12971017  1
  In  In57  1  0.15739000  0.35126550  0.64336881  1
  In  In58  1  0.16200972  0.65822982  0.12647834  1
  In  In59  1  0.16940356  0.65857606  0.62093467  1
  In  In60  1  0.50107952  0.00184159  0.12637047  1
  In  In61  1  0.50272307  0.00324522  0.61816844  1
  In  In62  1  0.51555147  0.33220810  0.12612384  1
  In  In63  1  0.48839101  0.32103315  0.62017086  1
  In  In64  1  0.49660289  0.69047257  0.11923693  1
  In  In65  1  0.49061034  0.66033771  0.60741267  1
  In  In66  1  0.81145417  0.00137520  0.13198484  1
  In  In67  1  0.83242541  -0.01583367  0.62390652  1
  In  In68  1  0.83529277  0.33441338  0.12388165  1
  In  In69  1  0.84385711  0.34371502  0.62483015  1
  In  In70  1  0.83942760  0.66198859  0.13753817  1
  In  In71  1  0.82994974  0.67802522  0.62300034  1
  In  In72  1  -0.00024751  0.00072863  0.24779718  1
  In  In73  1  0.66159850  0.67319743  0.74834022  1
  In  In74  1  0.16596946  0.50193982  -0.00607561  1
  In  In75  1  0.82642329  0.83795150  0.01348095  1
  In  In76  1  0.83051696  0.16590956  0.49254926  1
  In  In77  1  -0.00267471  0.00082655  0.75091945  1
  In  In78  1  0.50273801  0.49979225  -0.00561034  1
  In  In79  1  0.17201231  0.16613420  0.49857609  1
  In  In80  1  0.33368282  0.66957142  0.25417321  1
  In  In81  1  0.33656916  0.33162494  0.25491226  1
  In  In82  1  0.34035702  -0.00551414  0.74945926  1
  In  In83  1  0.83205238  0.50468206  0.49291091  1
  In  In84  1  0.17409271  0.83610576  -0.00550796  1
  In  In85  1  0.66638968  0.33036304  0.74891271  1
  Cu  Cu86  1  0.67339418  0.32964382  0.00465144  1
  Cu  Cu87  1  0.15766931  0.49865670  0.25381258  1
  Cu  Cu88  1  0.66030164  -0.00150433  0.00472489  1
  Cu  Cu89  1  0.66715000  0.67433881  0.49541993  1
  Cu  Cu90  1  0.50338019  0.16550883  0.24774443  1
  Cu  Cu91  1  -0.00154316  0.01292628  0.00472421  1
  Cu  Cu92  1  0.00268659  0.34069443  -0.00001028  1
  Cu  Cu93  1  0.82873945  0.49571344  0.25080849  1
  Cu  Cu94  1  0.16654520  0.17620868  0.75856735  1
  Cu  Cu95  1  0.84401221  0.50012957  0.75507613  1
  Cu  Cu96  1  0.83165080  0.16754812  0.75667886  1
  Cu  Cu97  1  0.00026501  0.65815632  0.50139012  1
  Cu  Cu98  1  0.66679811  0.66640084  0.00452675  1
  Cu  Cu99  1  0.17084209  0.82799615  0.25668379  1
  Cu  Cu100  1  0.50508229  0.84006804  0.25229942  1
  Cu  Cu101  1  0.33936642  -0.00072072  0.49859626  1
  Cu  Cu102  1  0.49957274  0.15831650  0.75085319  1
  Cu  Cu103  1  0.33093618  0.33408266  0.50548093  1
  Cu  Cu104  1  0.49683536  0.50370596  0.25330054  1
  Cu  Cu105  1  0.16456621  0.82641514  0.73895703  1
  Cu  Cu106  1  0.49798083  0.49988957  0.74005329  1
  Cu  Cu107  1  0.82341275  0.83424334  0.74856095  1
  Cu  Cu108  1  0.00135186  -0.01188327  0.49762433  1
  Cu  Cu109  1  -0.00526105  0.66640252  0.00589735  1
  Cu  Cu110  1  0.65770467  0.33319184  0.49521287  1
  Cu  Cu111  1  0.66502453  0.00298460  0.49085384  1
  Cu  Cu112  1  0.83061696  0.17325821  0.24510890  1
  Cu  Cu113  1  0.33909102  0.00061112  0.00092393  1
  Cu  Cu114  1  0.33523919  0.33183461  0.00252422  1
  Se  Se115  1  0.08872978  0.08938758  0.05616511  1
  Se  Se116  1  0.07656340  0.07320864  0.55789838  1
  Se  Se117  1  0.08288764  0.41737614  0.06330654  1
  Se  Se118  1  0.08141015  0.40919383  0.56046998  1
  Se  Se119  1  0.07811887  0.75122124  0.05861510  1
  Se  Se120  1  0.08416779  0.74502893  0.55229010  1
  Se  Se121  1  0.42084837  0.08471471  0.05487531  1
  Se  Se122  1  0.41898952  0.08743874  0.54984797  1
  Se  Se123  1  0.41212221  0.41475261  0.06218856  1
  Se  Se124  1  0.41992892  0.41696292  0.55413249  1
  Se  Se125  1  0.40617417  0.74326577  0.04299669  1
  Se  Se126  1  0.43171174  0.76340693  0.54218649  1
  Se  Se127  1  0.74921771  0.08168086  0.05239647  1
  Se  Se128  1  0.74444040  0.07852681  0.55778000  1
  Se  Se129  1  0.75214905  0.41923552  0.05450399  1
  Se  Se130  1  0.74235080  0.40905968  0.55506470  1
  Se  Se131  1  0.74046206  0.74401143  0.07096266  1
  Se  Se132  1  0.75355210  0.75442355  0.54822654  1
  Se  Se133  1  0.25002823  0.25096887  0.05591114  1
  Se  Se134  1  0.25187911  0.25254676  0.56670204  1
  Se  Se135  1  0.25669481  0.59922835  0.04964431  1
  Se  Se136  1  0.25382579  0.58291432  0.54984244  1
  Se  Se137  1  0.25578214  0.92290981  0.06301683  1
  Se  Se138  1  0.24830301  0.91774839  0.54574668  1
  Se  Se139  1  0.58276859  0.24838793  0.05093833  1
  Se  Se140  1  0.58016910  0.24736759  0.55084018  1
  Se  Se141  1  0.58497000  0.58427076  0.06412438  1
  Se  Se142  1  0.58756576  0.58292454  0.54423598  1
  Se  Se143  1  0.58385481  0.91154964  0.06038152  1
  Se  Se144  1  0.58461181  0.92104228  0.54847838  1
  Se  Se145  1  0.91980515  0.25466579  0.05268837  1
  Se  Se146  1  0.92221902  0.25183337  0.55587284  1
  Se  Se147  1  0.91214926  0.58413096  0.05856312  1
  Se  Se148  1  0.91747773  0.58285519  0.56370377  1
  Se  Se149  1  0.92447922  0.92944451  0.06588742  1
  Se  Se150  1  0.91328501  0.90992451  0.55095922  1
  Se  Se151  1  0.07530246  0.25271448  0.44340526  1
  Se  Se152  1  0.08909512  0.25728328  0.94787177  1
  Se  Se153  1  0.08400965  0.57657569  0.44764640  1
  Se  Se154  1  0.07506425  0.59618040  0.93901627  1
  Se  Se155  1  0.09027796  0.90527136  0.45046351  1
  Se  Se156  1  0.07342773  0.92974688  0.94290375  1
  Se  Se157  1  0.41306287  0.25078990  0.45044287  1
  Se  Se158  1  0.42070961  0.24783368  0.95198251  1
  Se  Se159  1  0.41599110  0.59116406  0.45693298  1
  Se  Se160  1  0.40634932  0.57910032  0.93371143  1
  Se  Se161  1  0.42263942  0.91796960  0.44405798  1
  Se  Se162  1  0.41398023  0.91246599  0.94566961  1
  Se  Se163  1  0.74027706  0.25708889  0.43417516  1
  Se  Se164  1  0.75370951  0.24622688  0.94727971  1
  Se  Se165  1  0.74413289  0.59299265  0.43233631  1
  Se  Se166  1  0.75393219  0.58225833  0.95691258  1
  Se  Se167  1  0.75200862  0.91889221  0.44293575  1
  Se  Se168  1  0.74135179  0.91885005  0.94165872  1
  Se  Se169  1  0.25598489  0.07437288  0.43568109  1
  Se  Se170  1  0.24825884  0.08275337  0.95337045  1
  Se  Se171  1  0.24409366  0.41593579  0.45503462  1
  Se  Se172  1  0.26257684  0.41370238  0.93908806  1
  Se  Se173  1  0.26537433  0.73372867  0.45076355  1
  Se  Se174  1  0.24634217  0.74115451  0.92800773  1
  Se  Se175  1  0.58172302  0.09060891  0.44235210  1
  Se  Se176  1  0.58007169  0.08119465  0.94785422  1
  Se  Se177  1  0.57896187  0.42207426  0.44366315  1
  Se  Se178  1  0.59574508  0.40583088  0.93751582  1
  Se  Se179  1  0.58428976  0.75807046  0.44261019  1
  Se  Se180  1  0.58161682  0.74311909  0.94824506  1
  Se  Se181  1  0.92524638  0.07188290  0.43770587  1
  Se  Se182  1  0.91309651  0.09080179  0.94968653  1
  Se  Se183  1  0.92279192  0.40546857  0.44482061  1
  Se  Se184  1  0.91902916  0.42288361  0.94594734  1
  Se  Se185  1  0.91669888  0.74113184  0.44643244  1
  Se  Se186  1  0.91900714  0.75435574  0.94678701  1
  Se  Se187  1  0.24269860  0.24437829  0.31235236  1
  Se  Se188  1  0.25660152  0.25402276  0.80917174  1
  Se  Se189  1  0.24483907  0.57541805  0.31177031  1
  Se  Se190  1  0.24976923  0.58188862  0.78774170  1
  Se  Se191  1  0.25686962  0.91153567  0.30543874  1
  Se  Se192  1  0.24042201  0.90500573  0.80454013  1
  Se  Se193  1  0.57661017  0.25592493  0.30356530  1
  Se  Se194  1  0.57956531  0.24050437  0.81146845  1
  Se  Se195  1  0.57895118  0.58998628  0.30490059  1
  Se  Se196  1  0.57639686  0.57390608  0.80670452  1
  Se  Se197  1  0.58999863  0.92454199  0.30319767  1
  Se  Se198  1  0.57182302  0.91234716  0.79829791  1
  Se  Se199  1  0.91614722  0.24925079  0.30168467  1
  Se  Se200  1  0.91654500  0.25176436  0.80605270  1
  Se  Se201  1  0.91437480  0.57662420  0.30491573  1
  Se  Se202  1  0.91943231  0.59062242  0.80747954  1
  Se  Se203  1  0.92114956  0.91102715  0.31436414  1
  Se  Se204  1  0.90565362  0.91116901  0.81242293  1
  Se  Se205  1  0.09576453  0.08554552  0.30686752  1
  Se  Se206  1  0.08699294  0.08865009  0.81411622  1
  Se  Se207  1  0.07888982  0.41180999  0.30646829  1
  Se  Se208  1  0.09988046  0.43379146  0.80278446  1
  Se  Se209  1  0.08843717  0.74273575  0.30697174  1
  Se  Se210  1  0.07632097  0.75045397  0.79445204  1
  Se  Se211  1  0.41960741  0.08337526  0.30169596  1
  Se  Se212  1  0.41765681  0.08688287  0.81672823  1
  Se  Se213  1  0.41377147  0.43120594  0.31623400  1
  Se  Se214  1  0.42365858  0.41208085  0.79726084  1
  Se  Se215  1  0.42465599  0.75833069  0.31256643  1
  Se  Se216  1  0.41903148  0.74611420  0.79637108  1
  Se  Se217  1  0.74898697  0.08457244  0.29483846  1
  Se  Se218  1  0.74615018  0.08071940  0.80233741  1
  Se  Se219  1  0.74307249  0.41152968  0.30104278  1
  Se  Se220  1  0.75412245  0.42315625  0.81033721  1
  Se  Se221  1  0.74279691  0.74858474  0.29903970  1
  Se  Se222  1  0.75182788  0.75532821  0.81676086  1
  Se  Se223  1  0.25814922  0.08481756  0.20438552  1
  Se  Se224  1  0.24238907  0.09165076  0.69804087  1
  Se  Se225  1  0.24260226  0.42244264  0.19380873  1
  Se  Se226  1  0.27304738  0.40479180  0.69504945  1
  Se  Se227  1  0.24824882  0.75673311  0.18635264  1
  Se  Se228  1  0.25264380  0.74861455  0.68721867  1
  Se  Se229  1  0.58782775  0.08326634  0.19364037  1
  Se  Se230  1  0.58183510  0.07697446  0.69674839  1
  Se  Se231  1  0.57964587  0.41692131  0.20228751  1
  Se  Se232  1  0.58339951  0.42117851  0.68382281  1
  Se  Se233  1  0.57928342  0.74803795  0.19917921  1
  Se  Se234  1  0.57770894  0.75059736  0.67906209  1
  Se  Se235  1  0.91261479  0.09163077  0.18563184  1
  Se  Se236  1  0.90817737  0.09041015  0.68867064  1
  Se  Se237  1  0.91530490  0.41427071  0.19734878  1
  Se  Se238  1  0.92131242  0.41059414  0.70310084  1
  Se  Se239  1  0.92302738  0.74129225  0.20714837  1
  Se  Se240  1  0.91018867  0.75338628  0.69758778  1
  Se  Se241  1  0.07935793  0.25024103  0.20535436  1
  Se  Se242  1  0.07851571  0.25393482  0.70528595  1
  Se  Se243  1  0.08042660  0.58699189  0.20017475  1
  Se  Se244  1  0.07121068  0.60120454  0.69254359  1
  Se  Se245  1  0.09553256  0.90867732  0.19043284  1
  Se  Se246  1  0.08494882  0.91437049  0.68543416  1
  Se  Se247  1  0.42110378  0.24573252  0.18804757  1
  Se  Se248  1  0.41839162  0.24497667  0.69995293  1
  Se  Se249  1  0.42151606  0.58125335  0.18826691  1
  Se  Se250  1  0.41988163  0.58657034  0.68749572  1
  Se  Se251  1  0.41843908  0.91934418  0.19803431  1
  Se  Se252  1  0.41322595  0.90967412  0.67782355  1
  Se  Se253  1  0.74588120  0.25430763  0.19076207  1
  Se  Se254  1  0.75772506  0.24309665  0.68665360  1
  Se  Se255  1  0.74559713  0.58097147  0.19928113  1
  Se  Se256  1  0.75939172  0.57740959  0.69569270  1
  Se  Se257  1  0.77253798  0.89840672  0.20301274  1
  Se  Se258  1  0.74230175  0.91715166  0.69543121  1
