# generated using pymatgen
data_In86Cu29Se144
_symmetry_space_group_name_H-M   'P 1'
_cell_length_a   17.57323847
_cell_length_b   17.57648469
_cell_length_c   23.43939251
_cell_angle_alpha   89.97778274
_cell_angle_beta   90.00172943
_cell_angle_gamma   90.00992263
_symmetry_Int_Tables_number   1
_chemical_formula_structural   In86Cu29Se144
_chemical_formula_sum   'In86 Cu29 Se144'
_cell_volume   7239.85944644
_cell_formula_units_Z   1
loop_
 _symmetry_equiv_pos_site_id
 _symmetry_equiv_pos_as_xyz
  1  'x, y, z'
loop_
 _atom_site_type_symbol
 _atom_site_label
 _atom_site_symmetry_multiplicity
 _atom_site_fract_x
 _atom_site_fract_y
 _atom_site_fract_z
 _atom_site_occupancy
  In  In0  1  0.00320942  0.16507117  0.12185138  1
  In  In1  1  0.00560898  0.15871708  0.61907248  1
  In  In2  1  0.00474091  0.49965831  0.12300885  1
  In  In3  1  -0.00194652  0.51415305  0.62583324  1
  In  In4  1  0.00245442  0.83121335  0.13497767  1
  In  In5  1  -0.01501989  0.83136098  0.62601284  1
  In  In6  1  0.33200686  0.16725713  0.12173107  1
  In  In7  1  0.32701102  0.15469551  0.62059610  1
  In  In8  1  0.33544515  0.50596374  0.12334520  1
  In  In9  1  0.33926823  0.50586394  0.63060715  1
  In  In10  1  0.34001157  0.82715255  0.13293159  1
  In  In11  1  0.33941690  0.82546327  0.62976434  1
  In  In12  1  0.66493737  0.17223702  0.11487833  1
  In  In13  1  0.65241362  0.17471704  0.63189221  1
  In  In14  1  0.66449153  0.50624778  0.11080624  1
  In  In15  1  0.66687711  0.48498834  0.62883120  1
  In  In16  1  0.65885316  0.84035381  0.11709824  1
  In  In17  1  0.67677316  0.84586284  0.62483285  1
  In  In18  1  0.17564783  0.01274050  0.36647543  1
  In  In19  1  0.17939695  -0.00544466  0.87099208  1
  In  In20  1  0.17137031  0.32093784  0.37394219  1
  In  In21  1  0.18651089  0.32766912  0.89883436  1
  In  In22  1  0.16713299  0.66225373  0.36460602  1
  In  In23  1  0.15907225  0.66217444  0.86816401  1
  In  In24  1  0.49408731  0.00759618  0.38240772  1
  In  In25  1  0.49788717  0.00067307  0.87421170  1
  In  In26  1  0.48558927  0.33440067  0.36998430  1
  In  In27  1  0.50758551  0.31984720  0.88534240  1
  In  In28  1  0.50324742  0.67205029  0.37422947  1
  In  In29  1  0.50025214  0.68398066  0.88795160  1
  In  In30  1  0.82862983  -0.01523168  0.37517797  1
  In  In31  1  0.83783903  0.01562646  0.87199629  1
  In  In32  1  0.84444325  0.35633264  0.37496826  1
  In  In33  1  0.82363860  0.34095931  0.88013541  1
  In  In34  1  0.83924083  0.65967055  0.38316196  1
  In  In35  1  0.82935176  0.65201037  0.87471936  1
  In  In36  1  0.02117380  0.17533742  0.37454903  1
  In  In37  1  -0.00354545  0.17252146  0.88455441  1
  In  In38  1  -0.01663276  0.50047954  0.37050414  1
  In  In39  1  -0.00385276  0.50514587  0.88338322  1
  In  In40  1  -0.00630571  0.82337534  0.37067522  1
  In  In41  1  0.01260490  0.82392729  0.86368047  1
  In  In42  1  0.33689956  0.16534355  0.37201222  1
  In  In43  1  0.34303593  0.15771208  0.88461537  1
  In  In44  1  0.33954158  0.49603483  0.35712707  1
  In  In45  1  0.32888739  0.50672774  0.88908738  1
  In  In46  1  0.33767901  0.84187736  0.37058946  1
  In  In47  1  0.33772136  0.84593574  0.86261868  1
  In  In48  1  0.66586911  0.15484344  0.37779216  1
  In  In49  1  0.66365573  0.16743992  0.87287469  1
  In  In50  1  0.67034816  0.51270243  0.37294125  1
  In  In51  1  0.67802426  0.49752778  0.88530911  1
  In  In52  1  0.66457211  0.83147765  0.38873303  1
  In  In53  1  0.65520814  0.83145165  0.87300041  1
  In  In54  1  0.16510973  0.00685129  0.13047451  1
  In  In55  1  0.16338780  0.01275986  0.62331880  1
  In  In56  1  0.18726814  0.34704876  0.10774615  1
  In  In57  1  0.17749016  0.32531242  0.62315246  1
  In  In58  1  0.17335411  0.66252075  0.13300269  1
  In  In59  1  0.16090989  0.67442024  0.64375044  1
  In  In60  1  0.48862149  -0.00808653  0.11731147  1
  In  In61  1  0.49899264  0.00003045  0.62691979  1
  In  In62  1  0.48701022  0.33252572  0.11144212  1
  In  In63  1  0.51058308  0.33385090  0.62700176  1
  In  In64  1  0.48184934  0.65048479  0.10315893  1
  In  In65  1  0.48265427  0.66880795  0.62882054  1
  In  In66  1  0.83590228  0.01017060  0.12500184  1
  In  In67  1  0.82951293  -0.01642489  0.62666619  1
  In  In68  1  0.83962331  0.33822275  0.11840287  1
  In  In69  1  0.82251542  0.32707649  0.62294443  1
  In  In70  1  0.84473674  0.66094811  0.12819210  1
  In  In71  1  0.84028304  0.67866294  0.62302468  1
  In  In72  1  -0.00108925  -0.00613183  0.74378791  1
  In  In73  1  0.83521720  0.16596846  0.49933786  1
  In  In74  1  0.16087866  0.49433132  0.49801263  1
  In  In75  1  0.66646338  0.66937661  0.75487519  1
  In  In76  1  0.16675437  0.83774593  0.50053038  1
  In  In77  1  0.66450021  -0.00423138  0.24689726  1
  In  In78  1  0.50089307  0.49873681  0.49950700  1
  In  In79  1  0.82720459  0.82718646  -0.00735613  1
  In  In80  1  0.00829244  0.33641677  0.24750576  1
  In  In81  1  0.65704708  0.33671364  0.23797285  1
  In  In82  1  0.00038394  0.34107755  0.75950122  1
  In  In83  1  0.16821978  0.83507825  -0.00506280  1
  In  In84  1  0.33952573  0.33392694  0.75806917  1
  In  In85  1  0.65906236  0.66590856  0.24465127  1
  Cu  Cu86  1  0.00035608  0.33127590  0.00253227  1
  Cu  Cu87  1  0.33462763  0.00012575  -0.00208759  1
  Cu  Cu88  1  0.16596411  0.50141295  0.76112652  1
  Cu  Cu89  1  0.49829663  0.83900285  0.75093211  1
  Cu  Cu90  1  0.00523770  0.65864252  0.00065940  1
  Cu  Cu91  1  0.17044127  0.50124869  0.24148792  1
  Cu  Cu92  1  0.16608339  0.16299375  0.75211351  1
  Cu  Cu93  1  0.66736151  0.66585321  0.50329224  1
  Cu  Cu94  1  0.84550481  0.16673654  0.24513392  1
  Cu  Cu95  1  0.33155463  0.67370597  0.00319330  1
  Cu  Cu96  1  0.66774954  0.33085026  0.50140772  1
  Cu  Cu97  1  0.17585723  0.16897863  0.24646280  1
  Cu  Cu98  1  0.34225767  0.00103262  0.49593609  1
  Cu  Cu99  1  0.65992402  0.00863169  -0.00253002  1
  Cu  Cu100  1  0.83534377  0.82507570  0.25445215  1
  Cu  Cu101  1  0.50270730  0.50267855  0.75597709  1
  Cu  Cu102  1  0.16534275  0.83866569  0.25251577  1
  Cu  Cu103  1  0.66681160  0.33058543  -0.00119081  1
  Cu  Cu104  1  0.49436698  0.83194081  0.25108890  1
  Cu  Cu105  1  -0.01049881  0.67008275  0.49994006  1
  Cu  Cu106  1  0.33290942  0.32109731  0.49659589  1
  Cu  Cu107  1  -0.00706486  0.00140421  0.00147584  1
  Cu  Cu108  1  0.49676078  0.16168183  0.75580296  1
  Cu  Cu109  1  0.32678936  0.66367210  0.50371566  1
  Cu  Cu110  1  0.66196654  -0.00006767  0.50510885  1
  Cu  Cu111  1  0.81945205  0.16822612  0.74829569  1
  Cu  Cu112  1  0.00258936  -0.00035621  0.49860970  1
  Cu  Cu113  1  0.49442921  0.16701290  0.24664242  1
  Cu  Cu114  1  0.83219415  0.49995144  0.75640856  1
  Se  Se115  1  0.08326672  0.07736110  0.05404756  1
  Se  Se116  1  0.08810131  0.08604933  0.54523307  1
  Se  Se117  1  0.08374788  0.42017380  0.05052073  1
  Se  Se118  1  0.07766764  0.40999865  0.56650879  1
  Se  Se119  1  0.08030149  0.74672151  0.05887667  1
  Se  Se120  1  0.07953122  0.74174463  0.55929508  1
  Se  Se121  1  0.41710299  0.08581497  0.05080314  1
  Se  Se122  1  0.42153403  0.08460685  0.55380757  1
  Se  Se123  1  0.39763629  0.41479281  0.04724747  1
  Se  Se124  1  0.40665181  0.40692215  0.55903858  1
  Se  Se125  1  0.41515206  0.76327285  0.05041968  1
  Se  Se126  1  0.41357149  0.74861157  0.55139554  1
  Se  Se127  1  0.74938316  0.08179505  0.05361851  1
  Se  Se128  1  0.74465502  0.08248451  0.56406187  1
  Se  Se129  1  0.75076838  0.41477972  0.05136397  1
  Se  Se130  1  0.74992691  0.41662966  0.55238617  1
  Se  Se131  1  0.74803565  0.74225137  0.06275535  1
  Se  Se132  1  0.74821993  0.75265413  0.55618017  1
  Se  Se133  1  0.23282923  0.22886946  0.05351153  1
  Se  Se134  1  0.24788961  0.24121035  0.55056897  1
  Se  Se135  1  0.24779560  0.58968261  0.05544728  1
  Se  Se136  1  0.24585706  0.58599961  0.56340436  1
  Se  Se137  1  0.25511767  0.91998907  0.06037694  1
  Se  Se138  1  0.25963342  0.92543178  0.55949541  1
  Se  Se139  1  0.57721811  0.24916773  0.04806806  1
  Se  Se140  1  0.58066241  0.25024611  0.55214567  1
  Se  Se141  1  0.58527764  0.58871864  0.04208932  1
  Se  Se142  1  0.58635428  0.58724618  0.56547050  1
  Se  Se143  1  0.57864994  0.91964276  0.04667399  1
  Se  Se144  1  0.58026997  0.91411065  0.55775057  1
  Se  Se145  1  0.91656356  0.24607332  0.05440317  1
  Se  Se146  1  0.92541380  0.25710229  0.55801707  1
  Se  Se147  1  0.91773349  0.57954776  0.05354890  1
  Se  Se148  1  0.91023234  0.58371931  0.55385737  1
  Se  Se149  1  0.91896583  0.91306671  0.05863495  1
  Se  Se150  1  0.91802375  0.91864414  0.55183711  1
  Se  Se151  1  0.08464546  0.26008656  0.44916456  1
  Se  Se152  1  0.08599023  0.24619407  0.95307596  1
  Se  Se153  1  0.07589271  0.59347307  0.44093588  1
  Se  Se154  1  0.09293143  0.58053399  0.94685603  1
  Se  Se155  1  0.08088447  0.92269444  0.43401588  1
  Se  Se156  1  0.07140743  0.92423743  0.93784092  1
  Se  Se157  1  0.42245679  0.24525461  0.44347278  1
  Se  Se158  1  0.40191137  0.26127883  0.94742018  1
  Se  Se159  1  0.40541360  0.58406295  0.44057280  1
  Se  Se160  1  0.41896663  0.59171037  0.95077142  1
  Se  Se161  1  0.42136214  0.91004168  0.44676289  1
  Se  Se162  1  0.41389760  0.91509169  0.94211735  1
  Se  Se163  1  0.74885420  0.25799863  0.43552486  1
  Se  Se164  1  0.74899178  0.24601144  0.94440540  1
  Se  Se165  1  0.74891394  0.58091003  0.45029806  1
  Se  Se166  1  0.75692795  0.58345616  0.95328620  1
  Se  Se167  1  0.74887971  0.91818232  0.45334153  1
  Se  Se168  1  0.74412990  0.92940077  0.93810517  1
  Se  Se169  1  0.25528168  0.08269994  0.44341249  1
  Se  Se170  1  0.24566127  0.07904946  0.94593300  1
  Se  Se171  1  0.26334561  0.41473527  0.43899359  1
  Se  Se172  1  0.26814530  0.41444582  0.96351836  1
  Se  Se173  1  0.25156572  0.74375035  0.43961567  1
  Se  Se174  1  0.25645737  0.74715565  0.93418408  1
  Se  Se175  1  0.58219854  0.08542483  0.45130416  1
  Se  Se176  1  0.57600790  0.08953539  0.94245609  1
  Se  Se177  1  0.58979949  0.40984033  0.43676150  1
  Se  Se178  1  0.58431798  0.41670646  0.94726673  1
  Se  Se179  1  0.57828844  0.74510286  0.45193167  1
  Se  Se180  1  0.59926893  0.75029852  0.95311903  1
  Se  Se181  1  0.92271943  0.07838243  0.43493414  1
  Se  Se182  1  0.91113881  0.08829201  0.95070936  1
  Se  Se183  1  0.92877740  0.41723912  0.45094797  1
  Se  Se184  1  0.91690009  0.41364352  0.94698104  1
  Se  Se185  1  0.90959119  0.75821485  0.44819253  1
  Se  Se186  1  0.92997347  0.74217159  0.93914604  1
  Se  Se187  1  0.25784617  0.25198755  0.30147512  1
  Se  Se188  1  0.24414446  0.24394673  0.81287866  1
  Se  Se189  1  0.25373083  0.58490192  0.29644952  1
  Se  Se190  1  0.25728480  0.58066197  0.80961075  1
  Se  Se191  1  0.25336783  0.92124664  0.30185775  1
  Se  Se192  1  0.23651657  0.90643166  0.79642541  1
  Se  Se193  1  0.58232110  0.24001086  0.30610045  1
  Se  Se194  1  0.57969263  0.25105013  0.80339752  1
  Se  Se195  1  0.56880018  0.57189559  0.30363707  1
  Se  Se196  1  0.58039551  0.58151344  0.81864883  1
  Se  Se197  1  0.57894782  0.90861933  0.31197545  1
  Se  Se198  1  0.58287496  0.92044615  0.80370275  1
  Se  Se199  1  0.91419062  0.24907260  0.31030775  1
  Se  Se200  1  0.90591011  0.24335401  0.80814927  1
  Se  Se201  1  0.90952807  0.58820885  0.30345678  1
  Se  Se202  1  0.92122067  0.58070584  0.80546762  1
  Se  Se203  1  0.91613506  0.91543832  0.30342080  1
  Se  Se204  1  0.91049630  0.91061579  0.80960095  1
  Se  Se205  1  0.08566012  0.09027039  0.29869409  1
  Se  Se206  1  0.07924638  0.08817969  0.81045068  1
  Se  Se207  1  0.09536513  0.42688761  0.31155705  1
  Se  Se208  1  0.09906618  0.41407366  0.82386140  1
  Se  Se209  1  0.08267329  0.74960055  0.30167125  1
  Se  Se210  1  0.09144086  0.74722813  0.79320023  1
  Se  Se211  1  0.41970373  0.07966924  0.30354083  1
  Se  Se212  1  0.40901026  0.07970861  0.80466375  1
  Se  Se213  1  0.42042403  0.41098285  0.29200990  1
  Se  Se214  1  0.42456836  0.42409600  0.81949876  1
  Se  Se215  1  0.41446616  0.74732138  0.30604180  1
  Se  Se216  1  0.42394841  0.74965245  0.80662936  1
  Se  Se217  1  0.76049865  0.08842271  0.30372651  1
  Se  Se218  1  0.74350942  0.08098795  0.80267881  1
  Se  Se219  1  0.74929105  0.42179977  0.30271868  1
  Se  Se220  1  0.74492653  0.41725689  0.80531361  1
  Se  Se221  1  0.74645298  0.75237545  0.31240773  1
  Se  Se222  1  0.76066694  0.75775798  0.81157007  1
  Se  Se223  1  0.25864635  0.08095893  0.19642770  1
  Se  Se224  1  0.24909203  0.08175606  0.69788678  1
  Se  Se225  1  0.25404232  0.41606493  0.19135384  1
  Se  Se226  1  0.24291594  0.42215335  0.69694554  1
  Se  Se227  1  0.24856263  0.75333170  0.19982695  1
  Se  Se228  1  0.27151186  0.73216996  0.69841975  1
  Se  Se229  1  0.57839612  0.08859539  0.18676520  1
  Se  Se230  1  0.58101991  0.08142483  0.69878657  1
  Se  Se231  1  0.57041505  0.42709514  0.17879488  1
  Se  Se232  1  0.58078837  0.41595173  0.70255892  1
  Se  Se233  1  0.57277143  0.75867880  0.18609546  1
  Se  Se234  1  0.57725464  0.75563542  0.69041281  1
  Se  Se235  1  0.92654254  0.08017817  0.19506654  1
  Se  Se236  1  0.90654971  0.09272408  0.68903172  1
  Se  Se237  1  0.90956731  0.42416248  0.19494735  1
  Se  Se238  1  0.90924308  0.42015223  0.69193625  1
  Se  Se239  1  0.91966141  0.74428989  0.20025546  1
  Se  Se240  1  0.92004434  0.74540294  0.69987258  1
  Se  Se241  1  0.09734527  0.25129796  0.18539389  1
  Se  Se242  1  0.08541301  0.24580651  0.69484933  1
  Se  Se243  1  0.07942769  0.58325133  0.19594885  1
  Se  Se244  1  0.08102158  0.57794482  0.70348800  1
  Se  Se245  1  0.08255108  0.92127677  0.19823068  1
  Se  Se246  1  0.09222813  0.90727677  0.68454445  1
  Se  Se247  1  0.41762405  0.25104929  0.18964017  1
  Se  Se248  1  0.41967574  0.24310319  0.69109428  1
  Se  Se249  1  0.41398962  0.59527647  0.18992591  1
  Se  Se250  1  0.41605288  0.58333053  0.70457469  1
  Se  Se251  1  0.41650673  0.92158247  0.19835362  1
  Se  Se252  1  0.41321287  0.91936331  0.69585105  1
  Se  Se253  1  0.75929516  0.24345832  0.18930452  1
  Se  Se254  1  0.74039640  0.25756948  0.69777206  1
  Se  Se255  1  0.75145233  0.57331061  0.19055270  1
  Se  Se256  1  0.75361083  0.57854619  0.69184013  1
  Se  Se257  1  0.75943533  0.90494251  0.18986588  1
  Se  Se258  1  0.75027519  0.91688790  0.70327306  1
