# generated using pymatgen
data_In86Cu29Se144
_symmetry_space_group_name_H-M   'P 1'
_cell_length_a   17.60972419
_cell_length_b   17.60660103
_cell_length_c   23.45731988
_cell_angle_alpha   90.01102196
_cell_angle_beta   90.02577739
_cell_angle_gamma   89.95527888
_symmetry_Int_Tables_number   1
_chemical_formula_structural   In86Cu29Se144
_chemical_formula_sum   'In86 Cu29 Se144'
_cell_volume   7272.87767484
_cell_formula_units_Z   1
loop_
 _symmetry_equiv_pos_site_id
 _symmetry_equiv_pos_as_xyz
  1  'x, y, z'
loop_
 _atom_site_type_symbol
 _atom_site_label
 _atom_site_symmetry_multiplicity
 _atom_site_fract_x
 _atom_site_fract_y
 _atom_site_fract_z
 _atom_site_occupancy
  In  In0  1  -0.00193960  0.14548321  0.10581596  1
  In  In1  1  -0.01386789  0.16677961  0.62554419  1
  In  In2  1  -0.00112059  0.49974124  0.11138353  1
  In  In3  1  0.00961163  0.50159961  0.63725996  1
  In  In4  1  0.00492603  0.84618917  0.10982737  1
  In  In5  1  0.00172364  0.83251572  0.63517091  1
  In  In6  1  0.33111335  0.16726208  0.11606276  1
  In  In7  1  0.32935258  0.16975823  0.64229140  1
  In  In8  1  0.33292419  0.49693251  0.12481042  1
  In  In9  1  0.34002094  0.49467618  0.63210801  1
  In  In10  1  0.32329296  0.83927574  0.13154051  1
  In  In11  1  0.33104071  0.83374442  0.63417280  1
  In  In12  1  0.67136139  0.18369287  0.11319312  1
  In  In13  1  0.67718966  0.15374876  0.63141495  1
  In  In14  1  0.64239068  0.46830561  0.09147788  1
  In  In15  1  0.66536135  0.51066824  0.62831828  1
  In  In16  1  0.67527909  0.82725530  0.12087468  1
  In  In17  1  0.67203760  0.83197818  0.63799687  1
  In  In18  1  0.16522826  0.00205009  0.36502363  1
  In  In19  1  0.16392429  0.00064366  0.87397047  1
  In  In20  1  0.16856914  0.32256560  0.36863323  1
  In  In21  1  0.18081377  0.32440127  0.87525226  1
  In  In22  1  0.17114232  0.65861280  0.37545723  1
  In  In23  1  0.16965236  0.66605041  0.87890974  1
  In  In24  1  0.49773572  0.01117004  0.37166826  1
  In  In25  1  0.51002117  0.00608128  0.87099901  1
  In  In26  1  0.50864621  0.34039288  0.36721261  1
  In  In27  1  0.49360126  0.34648561  0.88994824  1
  In  In28  1  0.48384378  0.65759613  0.37539707  1
  In  In29  1  0.48888086  0.65674001  0.86997763  1
  In  In30  1  0.85727313  0.00662135  0.36137833  1
  In  In31  1  0.83803018  0.00313251  0.88499575  1
  In  In32  1  0.81690683  0.33406895  0.36933032  1
  In  In33  1  0.83348752  0.32049948  0.89411381  1
  In  In34  1  0.83293470  0.67317602  0.37028669  1
  In  In35  1  0.83637260  0.67236572  0.87358894  1
  In  In36  1  -0.00380419  0.15250757  0.37068587  1
  In  In37  1  0.01792512  0.14108025  0.89837984  1
  In  In38  1  -0.00552950  0.51517895  0.37276950  1
  In  In39  1  -0.00295371  0.50494035  0.87921441  1
  In  In40  1  -0.00645623  0.85134665  0.37343273  1
  In  In41  1  0.00493711  0.84441696  0.88511957  1
  In  In42  1  0.32972482  0.16744698  0.36058491  1
  In  In43  1  0.33104914  0.17155091  0.86842893  1
  In  In44  1  0.34719985  0.50929894  0.36344996  1
  In  In45  1  0.33223185  0.50326575  0.87508930  1
  In  In46  1  0.32688472  0.82988097  0.36822402  1
  In  In47  1  0.32042487  0.81845831  0.87092871  1
  In  In48  1  0.66102857  0.17693344  0.37344115  1
  In  In49  1  0.67747212  0.16023392  0.89464866  1
  In  In50  1  0.66450535  0.48477736  0.37169063  1
  In  In51  1  0.65970980  0.50240839  0.88481145  1
  In  In52  1  0.67301088  0.82340688  0.37493195  1
  In  In53  1  0.67870816  0.84532845  0.86858865  1
  In  In54  1  0.16959844  -0.00017660  0.11413194  1
  In  In55  1  0.16391650  0.00599064  0.63941318  1
  In  In56  1  0.17591048  0.34082811  0.11482673  1
  In  In57  1  0.17492613  0.33545561  0.63800860  1
  In  In58  1  0.17112084  0.67311919  0.11787744  1
  In  In59  1  0.17278607  0.65254656  0.64793420  1
  In  In60  1  0.47751130  -0.00104033  0.12147362  1
  In  In61  1  0.50107180  0.00370057  0.63651278  1
  In  In62  1  0.49399748  0.32923369  0.12011523  1
  In  In63  1  0.48936534  0.33569101  0.62508560  1
  In  In64  1  0.50155014  0.65171487  0.12308104  1
  In  In65  1  0.50448366  0.66207765  0.62853850  1
  In  In66  1  0.84348227  0.00186541  0.11704551  1
  In  In67  1  0.83664206  -0.00000900  0.63171417  1
  In  In68  1  0.82444771  0.32615788  0.11386233  1
  In  In69  1  0.84054279  0.32113857  0.62681441  1
  In  In70  1  0.83285168  0.66834887  0.11267964  1
  In  In71  1  0.83125607  0.67044838  0.63967830  1
  In  In72  1  0.00572461  0.32537461  0.76330251  1
  In  In73  1  0.16687407  0.16364860  0.51018388  1
  In  In74  1  0.16651851  0.83090158  0.49894810  1
  In  In75  1  0.66925613  0.66650855  0.24710369  1
  In  In76  1  0.00757098  0.32581358  0.24027410  1
  In  In77  1  0.17360909  0.49134582  0.51502380  1
  In  In78  1  0.49599999  0.17111600  0.50222385  1
  In  In79  1  0.66117423  0.00581497  0.23983485  1
  In  In80  1  0.49754180  0.83083917  -0.00475228  1
  In  In81  1  0.66336240  0.33283165  0.76901198  1
  In  In82  1  0.49790444  0.83789560  0.51107156  1
  In  In83  1  0.00763884  0.67677169  0.24154570  1
  In  In84  1  0.83121944  0.83299861  0.50355621  1
  In  In85  1  0.83213965  0.49529714  0.50095455  1
  Cu  Cu86  1  -0.00671532  0.32567900  0.49999315  1
  Cu  Cu87  1  0.83823636  0.83918596  0.75926895  1
  Cu  Cu88  1  0.00236292  0.67053086  -0.00572462  1
  Cu  Cu89  1  0.50144237  0.49715518  0.75724191  1
  Cu  Cu90  1  0.83457413  0.50086026  0.75647902  1
  Cu  Cu91  1  0.33121945  0.33316334  -0.00199896  1
  Cu  Cu92  1  0.16924253  0.16110634  0.23836167  1
  Cu  Cu93  1  0.49688736  0.83551610  0.25130577  1
  Cu  Cu94  1  0.66656163  -0.00045085  0.00021514  1
  Cu  Cu95  1  0.00109291  0.66673800  0.50947001  1
  Cu  Cu96  1  0.50153039  0.83256604  0.75415066  1
  Cu  Cu97  1  0.66991852  0.67064426  -0.00564072  1
  Cu  Cu98  1  0.33429813  0.66191243  -0.00186813  1
  Cu  Cu99  1  0.49364156  0.16994296  0.24307216  1
  Cu  Cu100  1  0.82368847  0.50055221  0.23745015  1
  Cu  Cu101  1  0.32934069  0.00206977  -0.00720305  1
  Cu  Cu102  1  0.67892029  0.00128348  0.50417811  1
  Cu  Cu103  1  0.16027800  0.83603939  0.75798848  1
  Cu  Cu104  1  0.83148675  0.16731303  0.23731302  1
  Cu  Cu105  1  0.83254698  0.15629994  0.76115265  1
  Cu  Cu106  1  0.33275509  0.00087844  0.50050774  1
  Cu  Cu107  1  0.65800067  0.65925302  0.50008163  1
  Cu  Cu108  1  0.00664714  0.33563517  -0.00284709  1
  Cu  Cu109  1  0.16684595  0.83625744  0.24328428  1
  Cu  Cu110  1  0.66389790  0.33019981  0.49829202  1
  Cu  Cu111  1  0.49894024  0.49185963  0.24071318  1
  Cu  Cu112  1  0.50157136  0.16933478  0.75683813  1
  Cu  Cu113  1  0.33600551  0.33901109  0.49664889  1
  Cu  Cu114  1  0.17097482  0.49540252  0.24843936  1
  Se  Se115  1  0.07712869  0.05994254  0.03830585  1
  Se  Se116  1  0.07383975  0.07168032  0.56141644  1
  Se  Se117  1  0.08995787  0.42176970  0.04734264  1
  Se  Se118  1  0.07157854  0.40049401  0.56444337  1
  Se  Se119  1  0.08631255  0.75176664  0.04936775  1
  Se  Se120  1  0.08589664  0.74137424  0.56745819  1
  Se  Se121  1  0.41422081  0.08365219  0.04555635  1
  Se  Se122  1  0.40783366  0.08121328  0.56298571  1
  Se  Se123  1  0.41356968  0.41787724  0.05228334  1
  Se  Se124  1  0.41627073  0.41976120  0.55335613  1
  Se  Se125  1  0.41170639  0.74445835  0.06125614  1
  Se  Se126  1  0.40694383  0.74378268  0.56145710  1
  Se  Se127  1  0.74830186  0.08277190  0.05592125  1
  Se  Se128  1  0.76063851  0.08347486  0.55758251  1
  Se  Se129  1  0.77752365  0.44243973  0.05649617  1
  Se  Se130  1  0.74257349  0.40644100  0.56320953  1
  Se  Se131  1  0.75241848  0.75572376  0.04482235  1
  Se  Se132  1  0.73979369  0.73836450  0.55971156  1
  Se  Se133  1  0.24532732  0.24652216  0.04677710  1
  Se  Se134  1  0.26140223  0.25981367  0.56058461  1
  Se  Se135  1  0.25089227  0.58102544  0.05477259  1
  Se  Se136  1  0.25668567  0.59346987  0.56529377  1
  Se  Se137  1  0.25701006  0.91291906  0.04941923  1
  Se  Se138  1  0.25224352  0.92476829  0.56121708  1
  Se  Se139  1  0.57612534  0.25124216  0.04764802  1
  Se  Se140  1  0.59196033  0.25203124  0.56509916  1
  Se  Se141  1  0.58229704  0.58877537  0.04460503  1
  Se  Se142  1  0.57817235  0.57685249  0.55433922  1
  Se  Se143  1  0.58428166  0.92022551  0.06079983  1
  Se  Se144  1  0.59649292  0.92682121  0.56432400  1
  Se  Se145  1  0.92576295  0.25430025  0.05408772  1
  Se  Se146  1  0.90830860  0.24273319  0.54922310  1
  Se  Se147  1  0.91830847  0.58712063  0.04635835  1
  Se  Se148  1  0.91753589  0.58535497  0.56504438  1
  Se  Se149  1  0.90904530  0.91443614  0.04343106  1
  Se  Se150  1  0.92627921  0.91812220  0.55969554  1
  Se  Se151  1  0.07961404  0.25108567  0.44185259  1
  Se  Se152  1  0.09096549  0.25169271  0.94651562  1
  Se  Se153  1  0.08019688  0.58358417  0.45103156  1
  Se  Se154  1  0.08641449  0.58183190  0.94741081  1
  Se  Se155  1  0.08073493  0.92963676  0.44410594  1
  Se  Se156  1  0.07476145  0.93873483  0.95309822  1
  Se  Se157  1  0.40836393  0.25434198  0.43555392  1
  Se  Se158  1  0.41158736  0.24722142  0.94465546  1
  Se  Se159  1  0.41495133  0.57371222  0.44732956  1
  Se  Se160  1  0.42048978  0.57844400  0.94843192  1
  Se  Se161  1  0.41267230  0.92290418  0.44045571  1
  Se  Se162  1  0.41006278  0.91942877  0.93322013  1
  Se  Se163  1  0.74853304  0.24996662  0.44451094  1
  Se  Se164  1  0.73164003  0.26449911  0.96109521  1
  Se  Se165  1  0.74442331  0.58881471  0.43903779  1
  Se  Se166  1  0.75399689  0.58720385  0.94245150  1
  Se  Se167  1  0.74800716  0.92278841  0.43764833  1
  Se  Se168  1  0.75031623  0.91496312  0.94948754  1
  Se  Se169  1  0.25594985  0.08147114  0.43928868  1
  Se  Se170  1  0.24963381  0.08757983  0.93859819  1
  Se  Se171  1  0.25007197  0.41241653  0.43697256  1
  Se  Se172  1  0.25031722  0.41842134  0.94394025  1
  Se  Se173  1  0.26036533  0.73882335  0.44507692  1
  Se  Se174  1  0.24876886  0.75037626  0.95255164  1
  Se  Se175  1  0.59142511  0.07734693  0.44658241  1
  Se  Se176  1  0.57720054  0.08053447  0.95238466  1
  Se  Se177  1  0.58201259  0.41507285  0.44648035  1
  Se  Se178  1  0.59318610  0.41145263  0.95564782  1
  Se  Se179  1  0.58262859  0.74679138  0.44342217  1
  Se  Se180  1  0.58844953  0.74854135  0.93168821  1
  Se  Se181  1  0.91361465  0.08280184  0.44395039  1
  Se  Se182  1  0.89195395  0.11221947  0.94851795  1
  Se  Se183  1  0.92392776  0.40985269  0.43664262  1
  Se  Se184  1  0.91891461  0.41748979  0.94780673  1
  Se  Se185  1  0.92770203  0.74329226  0.44295526  1
  Se  Se186  1  0.91589394  0.75446943  0.94526553  1
  Se  Se187  1  0.24648398  0.24997443  0.29310485  1
  Se  Se188  1  0.25188677  0.25228630  0.79633466  1
  Se  Se189  1  0.24883547  0.58407204  0.30145491  1
  Se  Se190  1  0.26906699  0.60564046  0.81091135  1
  Se  Se191  1  0.25026177  0.91759565  0.30086656  1
  Se  Se192  1  0.24921340  0.91665518  0.80721876  1
  Se  Se193  1  0.57997644  0.24714417  0.29891339  1
  Se  Se194  1  0.57621731  0.24063588  0.82520520  1
  Se  Se195  1  0.57687161  0.57435614  0.30490344  1
  Se  Se196  1  0.58688935  0.58017215  0.80758567  1
  Se  Se197  1  0.58139608  0.91134690  0.31004053  1
  Se  Se198  1  0.58664363  0.91909103  0.80117554  1
  Se  Se199  1  0.90887989  0.24671388  0.30376190  1
  Se  Se200  1  0.91042957  0.23931445  0.81881558  1
  Se  Se201  1  0.90477694  0.58098417  0.29613188  1
  Se  Se202  1  0.91947661  0.58538340  0.80579810  1
  Se  Se203  1  0.92273504  0.91557721  0.29227142  1
  Se  Se204  1  0.91907997  0.92262169  0.81353440  1
  Se  Se205  1  0.08424678  0.08699952  0.29752462  1
  Se  Se206  1  0.07012956  0.07775707  0.80894861  1
  Se  Se207  1  0.08376440  0.42519619  0.30937395  1
  Se  Se208  1  0.09252601  0.42340818  0.81376456  1
  Se  Se209  1  0.09201777  0.76052056  0.31322654  1
  Se  Se210  1  0.08192224  0.75532717  0.81642119  1
  Se  Se211  1  0.41611569  0.08167920  0.29782828  1
  Se  Se212  1  0.41776371  0.08204660  0.80505704  1
  Se  Se213  1  0.41644727  0.41177121  0.29865313  1
  Se  Se214  1  0.41760857  0.41422736  0.80939378  1
  Se  Se215  1  0.41781695  0.74896379  0.30479112  1
  Se  Se216  1  0.41545737  0.74878836  0.80298218  1
  Se  Se217  1  0.75247457  0.09176336  0.30447866  1
  Se  Se218  1  0.74479809  0.08038996  0.81569528  1
  Se  Se219  1  0.74630933  0.41737729  0.29519056  1
  Se  Se220  1  0.76332979  0.41933937  0.81944199  1
  Se  Se221  1  0.76491851  0.76502266  0.29766292  1
  Se  Se222  1  0.75076739  0.75044380  0.80192698  1
  Se  Se223  1  0.25268627  0.07869233  0.18501145  1
  Se  Se224  1  0.25732952  0.07575184  0.70442643  1
  Se  Se225  1  0.25097416  0.41108476  0.19455147  1
  Se  Se226  1  0.23443580  0.43996031  0.69729814  1
  Se  Se227  1  0.24824809  0.74466701  0.19688052  1
  Se  Se228  1  0.24689827  0.75561544  0.70353021  1
  Se  Se229  1  0.57130487  0.09250777  0.17982947  1
  Se  Se230  1  0.58541131  0.08831383  0.70185902  1
  Se  Se231  1  0.58450828  0.41456374  0.18499467  1
  Se  Se232  1  0.58226263  0.41691070  0.69568787  1
  Se  Se233  1  0.57426360  0.75787534  0.18952001  1
  Se  Se234  1  0.58228750  0.74808317  0.69805019  1
  Se  Se235  1  0.91964468  0.08631789  0.18887788  1
  Se  Se236  1  0.91811007  0.08315209  0.70129663  1
  Se  Se237  1  0.91583798  0.42056539  0.18723289  1
  Se  Se238  1  0.91057611  0.41509875  0.69731857  1
  Se  Se239  1  0.91528986  0.75765801  0.18078530  1
  Se  Se240  1  0.91740010  0.75275688  0.70350727  1
  Se  Se241  1  0.08929787  0.23719259  0.17534716  1
  Se  Se242  1  0.08673164  0.23906792  0.69252201  1
  Se  Se243  1  0.08880442  0.57370899  0.18798204  1
  Se  Se244  1  0.07014425  0.58965680  0.70985666  1
  Se  Se245  1  0.08718557  0.91721161  0.18593140  1
  Se  Se246  1  0.07901722  0.91975372  0.70242615  1
  Se  Se247  1  0.40867848  0.25039379  0.18960974  1
  Se  Se248  1  0.42222821  0.25371513  0.70104243  1
  Se  Se249  1  0.41572052  0.58181700  0.19535703  1
  Se  Se250  1  0.42264766  0.58071453  0.69849137  1
  Se  Se251  1  0.41217793  0.91795792  0.19936800  1
  Se  Se252  1  0.41878523  0.91541855  0.69875424  1
  Se  Se253  1  0.74714758  0.25551320  0.19235338  1
  Se  Se254  1  0.75577849  0.24583608  0.70357415  1
  Se  Se255  1  0.74513581  0.57948497  0.17768211  1
  Se  Se256  1  0.74848490  0.58074329  0.70239504  1
  Se  Se257  1  0.75630818  0.91410421  0.18945562  1
  Se  Se258  1  0.75431606  0.91930798  0.70138032  1
