# generated using pymatgen
data_In86Cu29Se144
_symmetry_space_group_name_H-M   'P 1'
_cell_length_a   17.58223121
_cell_length_b   17.57214752
_cell_length_c   23.43400413
_cell_angle_alpha   89.99615458
_cell_angle_beta   90.02770548
_cell_angle_gamma   90.02472920
_symmetry_Int_Tables_number   1
_chemical_formula_structural   In86Cu29Se144
_chemical_formula_sum   'In86 Cu29 Se144'
_cell_volume   7240.11121358
_cell_formula_units_Z   1
loop_
 _symmetry_equiv_pos_site_id
 _symmetry_equiv_pos_as_xyz
  1  'x, y, z'
loop_
 _atom_site_type_symbol
 _atom_site_label
 _atom_site_symmetry_multiplicity
 _atom_site_fract_x
 _atom_site_fract_y
 _atom_site_fract_z
 _atom_site_occupancy
  In  In0  1  -0.00491794  0.17832256  0.13909827  1
  In  In1  1  -0.00037924  0.18413719  0.60341241  1
  In  In2  1  -0.00813912  0.50039582  0.13190750  1
  In  In3  1  -0.00414689  0.48753487  0.60441520  1
  In  In4  1  0.00720029  0.82380580  0.13437067  1
  In  In5  1  0.00799411  0.82335926  0.61945570  1
  In  In6  1  0.35029816  0.15204564  0.14130264  1
  In  In7  1  0.32965469  0.17495446  0.63321901  1
  In  In8  1  0.33477912  0.48459675  0.12686124  1
  In  In9  1  0.32362849  0.50638527  0.63771663  1
  In  In10  1  0.34552483  0.84939578  0.12062343  1
  In  In11  1  0.32984289  0.83372102  0.62354096  1
  In  In12  1  0.67348953  0.18216595  0.11432270  1
  In  In13  1  0.67632303  0.17731663  0.61760320  1
  In  In14  1  0.65486563  0.47961129  0.11074878  1
  In  In15  1  0.66219561  0.48709568  0.62344497  1
  In  In16  1  0.65702444  0.83937776  0.12541305  1
  In  In17  1  0.65133829  0.85219750  0.62017835  1
  In  In18  1  0.16926047  0.00119527  0.37725474  1
  In  In19  1  0.16611229  -0.01605614  0.87644332  1
  In  In20  1  0.16638575  0.33072898  0.38143000  1
  In  In21  1  0.16846376  0.32728911  0.86984213  1
  In  In22  1  0.15658307  0.67131676  0.38043580  1
  In  In23  1  0.18587850  0.66552403  0.87277672  1
  In  In24  1  0.48379295  0.00531543  0.36618610  1
  In  In25  1  0.49439540  0.01049764  0.88139083  1
  In  In26  1  0.50170634  0.32059739  0.35641283  1
  In  In27  1  0.49725323  0.33475029  0.88010621  1
  In  In28  1  0.50903598  0.67322485  0.37435499  1
  In  In29  1  0.48859953  0.67329897  0.88466599  1
  In  In30  1  0.85074063  -0.00175893  0.37241231  1
  In  In31  1  0.82751650  0.02795436  0.88061024  1
  In  In32  1  0.83672975  0.33075507  0.37828197  1
  In  In33  1  0.82287683  0.34140286  0.88962665  1
  In  In34  1  0.83610801  0.64919840  0.37426515  1
  In  In35  1  0.81899152  0.65968140  0.87522154  1
  In  In36  1  0.00422490  0.17063355  0.38015447  1
  In  In37  1  -0.00850737  0.16422697  0.88024504  1
  In  In38  1  -0.00257287  0.49552639  0.37628648  1
  In  In39  1  0.00156641  0.48688838  0.87741626  1
  In  In40  1  0.01581743  0.84396113  0.36515924  1
  In  In41  1  0.00070704  0.84894111  0.87933300  1
  In  In42  1  0.33224453  0.15730309  0.36723708  1
  In  In43  1  0.34400812  0.17372396  0.86340142  1
  In  In44  1  0.33330662  0.48067911  0.37504789  1
  In  In45  1  0.33366199  0.51250684  0.86606075  1
  In  In46  1  0.32666521  0.83808235  0.37845474  1
  In  In47  1  0.33470002  0.83347344  0.87465618  1
  In  In48  1  0.66533498  0.19287375  0.37688788  1
  In  In49  1  0.64860769  0.18877757  0.89478683  1
  In  In50  1  0.68287826  0.48790678  0.38156497  1
  In  In51  1  0.66997081  0.48315444  0.88849103  1
  In  In52  1  0.65907287  0.83971614  0.38064752  1
  In  In53  1  0.65441103  0.82281235  0.87805730  1
  In  In54  1  0.17877039  -0.00704121  0.13262634  1
  In  In55  1  0.17380349  0.01096741  0.61659959  1
  In  In56  1  0.17540651  0.32305591  0.13778473  1
  In  In57  1  0.17783985  0.34346255  0.60577416  1
  In  In58  1  0.15363206  0.66808430  0.12712768  1
  In  In59  1  0.17184374  0.66741400  0.61632828  1
  In  In60  1  0.49062296  -0.00779162  0.11878540  1
  In  In61  1  0.50271633  -0.01427292  0.62170623  1
  In  In62  1  0.50082836  0.33066104  0.12014498  1
  In  In63  1  0.50173341  0.33078993  0.63423661  1
  In  In64  1  0.50434027  0.66626317  0.11928742  1
  In  In65  1  0.47958383  0.66566983  0.62763131  1
  In  In66  1  0.83157321  0.01556882  0.13168728  1
  In  In67  1  0.83094819  0.03193512  0.61547640  1
  In  In68  1  0.83215314  0.33346367  0.12770062  1
  In  In69  1  0.82124179  0.33303793  0.61069264  1
  In  In70  1  0.84402288  0.65655299  0.12888158  1
  In  In71  1  0.84629231  0.66189468  0.62202797  1
  In  In72  1  0.50543772  0.16271655  0.49749155  1
  In  In73  1  0.65873454  0.65774598  0.75410287  1
  In  In74  1  0.32957345  0.66862431  0.25502730  1
  In  In75  1  0.82557944  0.83340232  0.00188238  1
  In  In76  1  0.66172820  0.00769173  0.74581565  1
  In  In77  1  0.49900106  0.50045603  0.49762589  1
  In  In78  1  0.66320946  0.00961622  0.24817997  1
  In  In79  1  0.16790987  0.16308197  0.00274392  1
  In  In80  1  0.16609322  0.50335878  0.00063341  1
  In  In81  1  0.00955877  0.33497733  0.74252216  1
  In  In82  1  0.67099772  0.66150024  0.24638178  1
  In  In83  1  0.83903802  0.83081467  0.50032824  1
  In  In84  1  0.01380005  0.65924114  0.74381272  1
  In  In85  1  0.00489917  0.00379306  0.74638557  1
  Cu  Cu86  1  0.00516959  -0.00595415  0.01049231  1
  Cu  Cu87  1  0.16914478  0.83672420  0.25309629  1
  Cu  Cu88  1  0.15801877  0.49647237  0.25303792  1
  Cu  Cu89  1  0.00096257  0.67211303  0.00478308  1
  Cu  Cu90  1  0.49059521  0.83075292  0.75036658  1
  Cu  Cu91  1  0.33070517  0.66742797  0.50200943  1
  Cu  Cu92  1  0.00698366  -0.00292326  0.49552101  1
  Cu  Cu93  1  0.00630860  0.66516323  0.49392995  1
  Cu  Cu94  1  0.33671437  0.32991969  0.50209470  1
  Cu  Cu95  1  0.17578824  0.82751197  0.74921044  1
  Cu  Cu96  1  0.66332200  0.65873518  0.00019836  1
  Cu  Cu97  1  0.33541566  0.66926859  -0.00105489  1
  Cu  Cu98  1  0.33755971  0.33136502  -0.00035159  1
  Cu  Cu99  1  0.50087603  0.49214884  0.75468797  1
  Cu  Cu100  1  0.83217801  0.18182962  0.74761867  1
  Cu  Cu101  1  0.83241422  0.49317375  0.75342348  1
  Cu  Cu102  1  0.50140687  0.16823773  0.75664527  1
  Cu  Cu103  1  0.66128702  0.67619785  0.50035364  1
  Cu  Cu104  1  0.16430077  0.16795162  0.25877952  1
  Cu  Cu105  1  0.83683516  0.82707637  0.25351473  1
  Cu  Cu106  1  0.17393405  0.16384835  0.74543987  1
  Cu  Cu107  1  0.83226093  0.84625124  0.74725681  1
  Cu  Cu108  1  0.66184337  0.00103869  0.00564983  1
  Cu  Cu109  1  -0.00557454  0.33558559  0.01092210  1
  Cu  Cu110  1  0.33331212  0.00088668  -0.00017890  1
  Cu  Cu111  1  0.33162145  0.00086797  0.49717416  1
  Cu  Cu112  1  0.83580027  0.48762145  0.25386644  1
  Cu  Cu113  1  0.83756579  0.17001745  0.25281316  1
  Cu  Cu114  1  0.50495830  0.49474504  0.24641336  1
  Se  Se115  1  0.07993382  0.08076398  0.06943757  1
  Se  Se116  1  0.08458554  0.08702532  0.54906213  1
  Se  Se117  1  0.08659582  0.40897132  0.06547261  1
  Se  Se118  1  0.06023963  0.38079390  0.54441443  1
  Se  Se119  1  0.08509506  0.75600103  0.05390217  1
  Se  Se120  1  0.08882237  0.75014533  0.54654534  1
  Se  Se121  1  0.41344607  0.08688133  0.05380958  1
  Se  Se122  1  0.41116574  0.08002995  0.56025242  1
  Se  Se123  1  0.41805501  0.41930675  0.05116142  1
  Se  Se124  1  0.41342697  0.41351387  0.56327552  1
  Se  Se125  1  0.41660759  0.75100755  0.05616318  1
  Se  Se126  1  0.41500716  0.75196552  0.55307603  1
  Se  Se127  1  0.75116967  0.08188025  0.05442978  1
  Se  Se128  1  0.72552046  0.07453462  0.54851973  1
  Se  Se129  1  0.76866751  0.42624564  0.05552314  1
  Se  Se130  1  0.75209032  0.43353319  0.54818719  1
  Se  Se131  1  0.74165846  0.73824013  0.06429504  1
  Se  Se132  1  0.74366086  0.74829983  0.56541144  1
  Se  Se133  1  0.25938623  0.25148795  0.06098688  1
  Se  Se134  1  0.25482093  0.23973372  0.55090498  1
  Se  Se135  1  0.25692921  0.59089980  0.06334339  1
  Se  Se136  1  0.25490385  0.57573025  0.55380699  1
  Se  Se137  1  0.24899274  0.91812968  0.05259402  1
  Se  Se138  1  0.24897971  0.91627191  0.55244220  1
  Se  Se139  1  0.59307123  0.26695503  0.04539776  1
  Se  Se140  1  0.58627346  0.26609323  0.55361713  1
  Se  Se141  1  0.57601421  0.57590080  0.05015395  1
  Se  Se142  1  0.58428074  0.59359010  0.56254657  1
  Se  Se143  1  0.57807932  0.91135374  0.05032258  1
  Se  Se144  1  0.58314139  0.92567115  0.54151821  1
  Se  Se145  1  0.91616916  0.24478347  0.06030057  1
  Se  Se146  1  0.88239152  0.22948772  0.54608552  1
  Se  Se147  1  0.92245601  0.58158882  0.05362124  1
  Se  Se148  1  0.91708411  0.58558998  0.54531039  1
  Se  Se149  1  0.91583303  0.91718654  0.06627975  1
  Se  Se150  1  0.92408156  0.92719287  0.56291994  1
  Se  Se151  1  0.07238358  0.26365630  0.45211407  1
  Se  Se152  1  0.07499346  0.26011068  0.94609791  1
  Se  Se153  1  0.08729801  0.57404463  0.44592940  1
  Se  Se154  1  0.07704506  0.59427808  0.93774414  1
  Se  Se155  1  0.09005182  0.91131796  0.44616523  1
  Se  Se156  1  0.08648048  0.91394342  0.95421014  1
  Se  Se157  1  0.41529385  0.25446672  0.43798433  1
  Se  Se158  1  0.41449937  0.24329036  0.94500722  1
  Se  Se159  1  0.40854205  0.59078908  0.43625102  1
  Se  Se160  1  0.41130842  0.57738902  0.94720509  1
  Se  Se161  1  0.41653800  0.92110956  0.44293761  1
  Se  Se162  1  0.41640966  0.91672706  0.94447580  1
  Se  Se163  1  0.76107433  0.24368400  0.45083395  1
  Se  Se164  1  0.77900513  0.21891680  0.93937967  1
  Se  Se165  1  0.74228132  0.59125835  0.44783934  1
  Se  Se166  1  0.75164510  0.57809795  0.95022956  1
  Se  Se167  1  0.75264443  0.92380271  0.44158618  1
  Se  Se168  1  0.73965240  0.92618619  0.93779094  1
  Se  Se169  1  0.25151664  0.08793986  0.44475728  1
  Se  Se170  1  0.25511453  0.07940512  0.93613622  1
  Se  Se171  1  0.25118809  0.41498057  0.45178120  1
  Se  Se172  1  0.25307125  0.41028051  0.94061851  1
  Se  Se173  1  0.24893958  0.74895639  0.44509806  1
  Se  Se174  1  0.25106705  0.75227158  0.94661034  1
  Se  Se175  1  0.58891350  0.07976449  0.42862615  1
  Se  Se176  1  0.57791862  0.08574725  0.95324136  1
  Se  Se177  1  0.57898658  0.40550900  0.43597742  1
  Se  Se178  1  0.59615013  0.38918167  0.95417038  1
  Se  Se179  1  0.57648917  0.75768626  0.44987456  1
  Se  Se180  1  0.57926876  0.74837268  0.95358405  1
  Se  Se181  1  0.92092030  0.08094401  0.44676699  1
  Se  Se182  1  0.92520528  0.07777344  0.95491241  1
  Se  Se183  1  0.88938747  0.44200042  0.44041868  1
  Se  Se184  1  0.91820969  0.41993110  0.95208491  1
  Se  Se185  1  0.92580376  0.74697152  0.43380417  1
  Se  Se186  1  0.91801546  0.74516161  0.93896236  1
  Se  Se187  1  0.24952313  0.25361365  0.30915840  1
  Se  Se188  1  0.25158684  0.25210342  0.79907301  1
  Se  Se189  1  0.24258283  0.57423860  0.31322117  1
  Se  Se190  1  0.24091351  0.57935403  0.79623916  1
  Se  Se191  1  0.25232661  0.92076968  0.30504498  1
  Se  Se192  1  0.25247374  0.91618103  0.80327056  1
  Se  Se193  1  0.58436971  0.23678679  0.29185474  1
  Se  Se194  1  0.58359763  0.25345390  0.80899390  1
  Se  Se195  1  0.58286573  0.57181308  0.31059858  1
  Se  Se196  1  0.57647327  0.57136904  0.82101453  1
  Se  Se197  1  0.57721385  0.91176115  0.30380278  1
  Se  Se198  1  0.57645201  0.91099545  0.80717887  1
  Se  Se199  1  0.92081297  0.25084958  0.30850783  1
  Se  Se200  1  0.91744007  0.25534939  0.80927031  1
  Se  Se201  1  0.91858194  0.57839757  0.30052027  1
  Se  Se202  1  0.91371298  0.57792876  0.80825117  1
  Se  Se203  1  0.92201991  0.91628939  0.29812808  1
  Se  Se204  1  0.90445780  0.92586816  0.81102428  1
  Se  Se205  1  0.08118576  0.08237442  0.31080820  1
  Se  Se206  1  0.09193744  0.09286605  0.81136389  1
  Se  Se207  1  0.08197592  0.41124995  0.30984113  1
  Se  Se208  1  0.09663791  0.42874064  0.80297244  1
  Se  Se209  1  0.08630939  0.74560897  0.30020596  1
  Se  Se210  1  0.08530494  0.75979422  0.81023704  1
  Se  Se211  1  0.42418071  0.09657536  0.29379317  1
  Se  Se212  1  0.41806606  0.07585381  0.80004559  1
  Se  Se213  1  0.41703034  0.41515782  0.29892360  1
  Se  Se214  1  0.41372404  0.41362056  0.80884259  1
  Se  Se215  1  0.42378816  0.75938677  0.30819621  1
  Se  Se216  1  0.41352469  0.74406118  0.80560906  1
  Se  Se217  1  0.75713495  0.08866673  0.31259385  1
  Se  Se218  1  0.74728595  0.10255466  0.80470212  1
  Se  Se219  1  0.74813023  0.40624895  0.30434935  1
  Se  Se220  1  0.74994337  0.41347805  0.80975143  1
  Se  Se221  1  0.75263565  0.75425490  0.31403045  1
  Se  Se222  1  0.75381884  0.76066092  0.80380145  1
  Se  Se223  1  0.24672121  0.08581487  0.20238086  1
  Se  Se224  1  0.25476703  0.07531274  0.69584383  1
  Se  Se225  1  0.24920491  0.41929603  0.20198228  1
  Se  Se226  1  0.25091157  0.40009958  0.69045266  1
  Se  Se227  1  0.24666617  0.75732095  0.18896164  1
  Se  Se228  1  0.25168887  0.74281130  0.69165382  1
  Se  Se229  1  0.58254553  0.08927781  0.17655317  1
  Se  Se230  1  0.57359089  0.09672819  0.68375131  1
  Se  Se231  1  0.58630256  0.41032213  0.19285810  1
  Se  Se232  1  0.58763812  0.41433275  0.70117375  1
  Se  Se233  1  0.57413707  0.75519850  0.19657166  1
  Se  Se234  1  0.57832880  0.75604605  0.69172636  1
  Se  Se235  1  0.92089634  0.08179977  0.20398046  1
  Se  Se236  1  0.91823491  0.10379389  0.69073957  1
  Se  Se237  1  0.92184913  0.40702641  0.19968088  1
  Se  Se238  1  0.91018645  0.42017418  0.68638661  1
  Se  Se239  1  0.91766518  0.74269910  0.19943283  1
  Se  Se240  1  0.91329640  0.75873771  0.69590545  1
  Se  Se241  1  0.08282144  0.25487048  0.20701232  1
  Se  Se242  1  0.09258402  0.23958521  0.68329848  1
  Se  Se243  1  0.08075394  0.58222294  0.19756233  1
  Se  Se244  1  0.08602500  0.56627448  0.67661427  1
  Se  Se245  1  0.08397918  0.91785606  0.19804247  1
  Se  Se246  1  0.09263306  0.90800263  0.68969737  1
  Se  Se247  1  0.39955491  0.27288188  0.18904742  1
  Se  Se248  1  0.41676186  0.25140848  0.70237451  1
  Se  Se249  1  0.42229928  0.57990354  0.19274223  1
  Se  Se250  1  0.41862824  0.57959786  0.70400453  1
  Se  Se251  1  0.41197242  0.92720826  0.19858025  1
  Se  Se252  1  0.41453122  0.91612338  0.69351302  1
  Se  Se253  1  0.75142051  0.24692475  0.19615238  1
  Se  Se254  1  0.74831928  0.26089320  0.69194457  1
  Se  Se255  1  0.75481781  0.56471178  0.18963007  1
  Se  Se256  1  0.75750897  0.57888138  0.69254536  1
  Se  Se257  1  0.75634977  0.90813357  0.19361033  1
  Se  Se258  1  0.75804796  0.92340560  0.68368864  1
