# generated using pymatgen
data_In86Cu29Se144
_symmetry_space_group_name_H-M   'P 1'
_cell_length_a   17.59078218
_cell_length_b   17.59187481
_cell_length_c   23.44995680
_cell_angle_alpha   90.01945016
_cell_angle_beta   90.00897584
_cell_angle_gamma   90.02057612
_symmetry_Int_Tables_number   1
_chemical_formula_structural   In86Cu29Se144
_chemical_formula_sum   'In86 Cu29 Se144'
_cell_volume   7256.70160203
_cell_formula_units_Z   1
loop_
 _symmetry_equiv_pos_site_id
 _symmetry_equiv_pos_as_xyz
  1  'x, y, z'
loop_
 _atom_site_type_symbol
 _atom_site_label
 _atom_site_symmetry_multiplicity
 _atom_site_fract_x
 _atom_site_fract_y
 _atom_site_fract_z
 _atom_site_occupancy
  In  In0  1  0.02563367  0.15232399  0.14049120  1
  In  In1  1  0.01637085  0.15981664  0.63833100  1
  In  In2  1  0.00637730  0.48126501  0.13089991  1
  In  In3  1  -0.00534141  0.50203519  0.63091777  1
  In  In4  1  0.01309249  0.85232478  0.12408759  1
  In  In5  1  -0.00160934  0.83234574  0.63628620  1
  In  In6  1  0.32781138  0.16781724  0.12850565  1
  In  In7  1  0.30719425  0.17186505  0.62665122  1
  In  In8  1  0.33200311  0.49743803  0.12278946  1
  In  In9  1  0.34848791  0.49450094  0.62410098  1
  In  In10  1  0.33827258  0.82083741  0.13407404  1
  In  In11  1  0.32980186  0.83607373  0.63436896  1
  In  In12  1  0.65052491  0.16654809  0.12171067  1
  In  In13  1  0.67952659  0.16693405  0.62909859  1
  In  In14  1  0.66413341  0.51407562  0.12613641  1
  In  In15  1  0.66516126  0.49931846  0.62744380  1
  In  In16  1  0.65517313  0.84152366  0.12726633  1
  In  In17  1  0.65261510  0.82872187  0.62722985  1
  In  In18  1  0.18338466  0.01977031  0.35322308  1
  In  In19  1  0.17013090  0.00515520  0.87199116  1
  In  In20  1  0.16203055  0.32689852  0.36006147  1
  In  In21  1  0.16742278  0.33430838  0.87845317  1
  In  In22  1  0.17455787  0.65043235  0.36625276  1
  In  In23  1  0.16116624  0.65733432  0.87089192  1
  In  In24  1  0.49260254  -0.00826837  0.36225680  1
  In  In25  1  0.48643785  0.00882641  0.88779623  1
  In  In26  1  0.49923306  0.35037317  0.37343951  1
  In  In27  1  0.50183598  0.32996115  0.87893571  1
  In  In28  1  0.49207404  0.65713695  0.36835274  1
  In  In29  1  0.49936161  0.66850968  0.87782165  1
  In  In30  1  0.84252630  0.01071935  0.36359006  1
  In  In31  1  0.85076461  -0.00472036  0.87155854  1
  In  In32  1  0.84504983  0.33419742  0.37894896  1
  In  In33  1  0.83899134  0.34021635  0.86807320  1
  In  In34  1  0.82043083  0.67050893  0.37986557  1
  In  In35  1  0.83411333  0.68097768  0.85987704  1
  In  In36  1  0.01754165  0.18354384  0.35700241  1
  In  In37  1  0.01333610  0.16734576  0.86999753  1
  In  In38  1  0.00509549  0.48513275  0.37816055  1
  In  In39  1  0.00476894  0.50464621  0.87339960  1
  In  In40  1  -0.00372683  0.84053525  0.37508368  1
  In  In41  1  0.00640123  0.84017346  0.86487006  1
  In  In42  1  0.32889626  0.16467451  0.36602828  1
  In  In43  1  0.33193165  0.16523301  0.88031865  1
  In  In44  1  0.33936736  0.50951408  0.36302411  1
  In  In45  1  0.32759819  0.50647139  0.88309481  1
  In  In46  1  0.32430731  0.83300131  0.36077282  1
  In  In47  1  0.34215686  0.84028101  0.87732888  1
  In  In48  1  0.67620629  0.16312238  0.37027950  1
  In  In49  1  0.65037053  0.16605005  0.87369846  1
  In  In50  1  0.65483007  0.50977979  0.38484452  1
  In  In51  1  0.66179743  0.49820285  0.87126063  1
  In  In52  1  0.66255412  0.82801065  0.36598133  1
  In  In53  1  0.66878986  0.82178948  0.87480225  1
  In  In54  1  0.16037299  0.00962223  0.14277899  1
  In  In55  1  0.16090577  0.01144918  0.63511765  1
  In  In56  1  0.17100565  0.33117723  0.12879091  1
  In  In57  1  0.16929002  0.31169978  0.62464983  1
  In  In58  1  0.18304281  0.66799579  0.12791202  1
  In  In59  1  0.16567881  0.66535624  0.63682838  1
  In  In60  1  0.49738990  -0.00013648  0.12375712  1
  In  In61  1  0.49456918  -0.00918308  0.62653190  1
  In  In62  1  0.48258040  0.32205633  0.11416183  1
  In  In63  1  0.48938788  0.35368857  0.62559967  1
  In  In64  1  0.50000168  0.66719705  0.12091138  1
  In  In65  1  0.50784035  0.65918257  0.63459022  1
  In  In66  1  0.83651829  -0.00443104  0.12652820  1
  In  In67  1  0.84201390  0.01212298  0.62358840  1
  In  In68  1  0.84689316  0.34127192  0.12531706  1
  In  In69  1  0.82838662  0.33777564  0.63157951  1
  In  In70  1  0.83141895  0.65316919  0.12789151  1
  In  In71  1  0.84473407  0.65561695  0.63556733  1
  In  In72  1  0.16804875  0.83419528  0.49320028  1
  In  In73  1  0.83170030  0.83535224  0.51023780  1
  In  In74  1  0.17414923  0.49179859  0.49467202  1
  In  In75  1  0.83530079  0.17217834  -0.00991130  1
  In  In76  1  0.66992244  -0.00434247  0.75246665  1
  In  In77  1  0.17537901  0.83589800  0.00282212  1
  In  In78  1  0.49508256  0.17195135  0.49959720  1
  In  In79  1  0.00005588  0.67079226  0.24874418  1
  In  In80  1  0.49112918  0.82547088  0.49083147  1
  In  In81  1  0.66388416  0.33369729  0.25005912  1
  In  In82  1  0.32877486  0.33154286  0.75053778  1
  In  In83  1  0.83297546  0.50083131  -0.00657382  1
  In  In84  1  0.83267175  0.83232633  -0.00236867  1
  In  In85  1  0.83998678  0.17430917  0.50196472  1
  Cu  Cu86  1  0.33912327  0.66581942  0.00357179  1
  Cu  Cu87  1  0.49588054  0.83181358  0.75513662  1
  Cu  Cu88  1  0.82963842  0.16308239  0.24599891  1
  Cu  Cu89  1  0.16396125  0.49705453  0.75365624  1
  Cu  Cu90  1  0.49755760  0.50100455  0.24452992  1
  Cu  Cu91  1  0.32200193  0.00851913  0.49698524  1
  Cu  Cu92  1  0.50605677  0.83321080  0.24335393  1
  Cu  Cu93  1  0.65698931  0.34111464  -0.00177315  1
  Cu  Cu94  1  0.49641979  0.16879984  0.75539813  1
  Cu  Cu95  1  0.66181708  0.34146841  0.50678238  1
  Cu  Cu96  1  0.33124645  0.33354587  0.00234502  1
  Cu  Cu97  1  0.00507215  0.33132060  0.49871909  1
  Cu  Cu98  1  0.82575298  0.83029297  0.24699282  1
  Cu  Cu99  1  0.84146099  0.17038875  0.75137718  1
  Cu  Cu100  1  0.34047897  0.65760079  0.49888626  1
  Cu  Cu101  1  0.00802339  0.66205420  -0.00386343  1
  Cu  Cu102  1  0.49688118  0.16158248  0.24424937  1
  Cu  Cu103  1  0.82771539  0.49950025  0.75042570  1
  Cu  Cu104  1  0.50253909  0.50462718  0.75179119  1
  Cu  Cu105  1  0.66014987  0.66826945  -0.00128947  1
  Cu  Cu106  1  0.83018299  0.50287031  0.25558712  1
  Cu  Cu107  1  0.17327278  0.83171403  0.75544982  1
  Cu  Cu108  1  -0.00199789  0.66206491  0.50942157  1
  Cu  Cu109  1  0.66552699  0.65269445  0.50523172  1
  Cu  Cu110  1  0.66223508  0.00312918  0.00122522  1
  Cu  Cu111  1  0.01450935  0.01459357  0.49964310  1
  Cu  Cu112  1  0.33002017  0.00325580  0.00599139  1
  Cu  Cu113  1  0.01413894  0.32269721  0.00511160  1
  Cu  Cu114  1  0.66573074  -0.00548605  0.48658577  1
  Se  Se115  1  0.09246897  0.07949578  0.06012962  1
  Se  Se116  1  0.09416121  0.09419462  0.55733349  1
  Se  Se117  1  0.09005897  0.41557177  0.05532973  1
  Se  Se118  1  0.08236629  0.41238121  0.56132858  1
  Se  Se119  1  0.07909673  0.74444576  0.06037409  1
  Se  Se120  1  0.08118112  0.74698546  0.56099845  1
  Se  Se121  1  0.41449244  0.08754580  0.05874123  1
  Se  Se122  1  0.40889798  0.07773321  0.55950013  1
  Se  Se123  1  0.41725778  0.42156958  0.04906299  1
  Se  Se124  1  0.40660939  0.41004893  0.54614961  1
  Se  Se125  1  0.41768071  0.75510284  0.05434543  1
  Se  Se126  1  0.41018282  0.74361833  0.56231289  1
  Se  Se127  1  0.74821435  0.08244548  0.05683213  1
  Se  Se128  1  0.74190738  0.07434112  0.55002424  1
  Se  Se129  1  0.74371936  0.41296559  0.05870180  1
  Se  Se130  1  0.75182365  0.41829590  0.55844302  1
  Se  Se131  1  0.74564017  0.74199790  0.06010163  1
  Se  Se132  1  0.74121299  0.73935406  0.56347903  1
  Se  Se133  1  0.24891518  0.24871926  0.05520126  1
  Se  Se134  1  0.26424803  0.26412216  0.54899823  1
  Se  Se135  1  0.25073305  0.58417422  0.05307325  1
  Se  Se136  1  0.25198710  0.58833760  0.56014312  1
  Se  Se137  1  0.25583407  0.92316343  0.07035784  1
  Se  Se138  1  0.25201050  0.92166046  0.55923923  1
  Se  Se139  1  0.57951310  0.25027973  0.04883871  1
  Se  Se140  1  0.58847088  0.25342033  0.56505912  1
  Se  Se141  1  0.58097222  0.58106487  0.05064206  1
  Se  Se142  1  0.57530912  0.57693078  0.55780343  1
  Se  Se143  1  0.57962491  0.91743740  0.05190525  1
  Se  Se144  1  0.58516012  0.92006469  0.54928064  1
  Se  Se145  1  0.92412683  0.24805775  0.06034709  1
  Se  Se146  1  0.92927638  0.25583318  0.56657377  1
  Se  Se147  1  0.92711409  0.58312741  0.05792128  1
  Se  Se148  1  0.91268199  0.57738226  0.55650609  1
  Se  Se149  1  0.92621125  0.92653249  0.05027997  1
  Se  Se150  1  0.93484026  0.92932617  0.55650460  1
  Se  Se151  1  0.08564554  0.25227057  0.44002912  1
  Se  Se152  1  0.09180350  0.24200163  0.94606536  1
  Se  Se153  1  0.07921501  0.59072749  0.44364225  1
  Se  Se154  1  0.09027665  0.57557224  0.94739302  1
  Se  Se155  1  0.08516195  0.93154824  0.43604405  1
  Se  Se156  1  0.08099074  0.91870611  0.94250458  1
  Se  Se157  1  0.41083590  0.25688326  0.43437350  1
  Se  Se158  1  0.41456230  0.25131575  0.94622679  1
  Se  Se159  1  0.42049146  0.57551392  0.44361559  1
  Se  Se160  1  0.42046644  0.58292104  0.94783879  1
  Se  Se161  1  0.40004187  0.92357037  0.43915198  1
  Se  Se162  1  0.41392413  0.91646520  0.95577777  1
  Se  Se163  1  0.73897751  0.26037724  0.44447199  1
  Se  Se164  1  0.73920296  0.26407831  0.93690202  1
  Se  Se165  1  0.75472517  0.57778046  0.45023321  1
  Se  Se166  1  0.74860227  0.59833121  0.93672285  1
  Se  Se167  1  0.75328055  0.91682960  0.43392672  1
  Se  Se168  1  0.74351511  0.92814631  0.93902341  1
  Se  Se169  1  0.24391166  0.08945717  0.43969920  1
  Se  Se170  1  0.24787454  0.08133405  0.94773608  1
  Se  Se171  1  0.25668358  0.41086985  0.42609155  1
  Se  Se172  1  0.24818147  0.41693965  0.94800379  1
  Se  Se173  1  0.26001073  0.73770820  0.43937580  1
  Se  Se174  1  0.25592102  0.74097422  0.94024247  1
  Se  Se175  1  0.58147594  0.07820391  0.43505746  1
  Se  Se176  1  0.57904357  0.09001987  0.95096177  1
  Se  Se177  1  0.57728080  0.41974911  0.45148816  1
  Se  Se178  1  0.57727247  0.42530372  0.94418778  1
  Se  Se179  1  0.59194849  0.73655574  0.44175195  1
  Se  Se180  1  0.57994949  0.75607539  0.94757111  1
  Se  Se181  1  0.92613469  0.08597435  0.43942008  1
  Se  Se182  1  0.93007948  0.07659991  0.94337936  1
  Se  Se183  1  0.91769773  0.41716822  0.45244640  1
  Se  Se184  1  0.92957689  0.40401882  0.94653159  1
  Se  Se185  1  0.92262392  0.74597835  0.44799961  1
  Se  Se186  1  0.92716995  0.74338742  0.93919325  1
  Se  Se187  1  0.23282526  0.22858673  0.29493870  1
  Se  Se188  1  0.24035048  0.23870687  0.80676266  1
  Se  Se189  1  0.26082587  0.59054747  0.29170801  1
  Se  Se190  1  0.25166096  0.57886981  0.80437243  1
  Se  Se191  1  0.25030611  0.91818269  0.29240996  1
  Se  Se192  1  0.25462446  0.91687802  0.80860237  1
  Se  Se193  1  0.57342394  0.24152798  0.30973112  1
  Se  Se194  1  0.58172870  0.25524571  0.80217210  1
  Se  Se195  1  0.58311515  0.57835594  0.30252683  1
  Se  Se196  1  0.58374443  0.58922343  0.80615170  1
  Se  Se197  1  0.58768219  0.91754814  0.29893735  1
  Se  Se198  1  0.57354573  0.91727711  0.81568595  1
  Se  Se199  1  0.90695363  0.24977539  0.30194385  1
  Se  Se200  1  0.92372655  0.25202995  0.80660712  1
  Se  Se201  1  0.91281186  0.58280421  0.31500536  1
  Se  Se202  1  0.91341214  0.57928866  0.80590430  1
  Se  Se203  1  0.91178682  0.91002437  0.30127518  1
  Se  Se204  1  0.89976532  0.89642946  0.80121771  1
  Se  Se205  1  0.05762006  0.06137385  0.30591625  1
  Se  Se206  1  0.06903297  0.06323420  0.80410488  1
  Se  Se207  1  0.08893888  0.42851540  0.30113260  1
  Se  Se208  1  0.08341285  0.41385085  0.80812614  1
  Se  Se209  1  0.08926474  0.75520417  0.31372029  1
  Se  Se210  1  0.08546119  0.74674650  0.80309721  1
  Se  Se211  1  0.41205069  0.07986994  0.29845411  1
  Se  Se212  1  0.41591892  0.08519392  0.80904959  1
  Se  Se213  1  0.41630431  0.41512171  0.29681431  1
  Se  Se214  1  0.41893424  0.42261687  0.80986797  1
  Se  Se215  1  0.42404905  0.75503623  0.30358954  1
  Se  Se216  1  0.41291751  0.74775090  0.80816373  1
  Se  Se217  1  0.74507288  0.07893837  0.29678798  1
  Se  Se218  1  0.75830110  0.09160293  0.81220337  1
  Se  Se219  1  0.75021319  0.42108019  0.31549512  1
  Se  Se220  1  0.74572561  0.41525768  0.80392508  1
  Se  Se221  1  0.74813034  0.74364584  0.30095590  1
  Se  Se222  1  0.74418421  0.75752244  0.79524435  1
  Se  Se223  1  0.23487834  0.10875290  0.20451884  1
  Se  Se224  1  0.26725389  0.07018808  0.69749569  1
  Se  Se225  1  0.26760255  0.40373484  0.19304781  1
  Se  Se226  1  0.24204433  0.42300448  0.68716941  1
  Se  Se227  1  0.24543247  0.75238347  0.20323725  1
  Se  Se228  1  0.25411975  0.74635461  0.70127235  1
  Se  Se229  1  0.58443442  0.07964680  0.19503774  1
  Se  Se230  1  0.57693866  0.08811929  0.69220031  1
  Se  Se231  1  0.57602014  0.41721546  0.18471779  1
  Se  Se232  1  0.58073366  0.41695902  0.69780265  1
  Se  Se233  1  0.58665184  0.74416035  0.19286758  1
  Se  Se234  1  0.58147147  0.75030405  0.70307520  1
  Se  Se235  1  0.91587525  0.08141557  0.19439976  1
  Se  Se236  1  0.92037730  0.08090570  0.70028600  1
  Se  Se237  1  0.91353703  0.41917293  0.20426764  1
  Se  Se238  1  0.91520416  0.41637419  0.69971109  1
  Se  Se239  1  0.91149321  0.75946837  0.18346023  1
  Se  Se240  1  0.91403646  0.75071795  0.70032195  1
  Se  Se241  1  0.05978359  0.27649072  0.19104754  1
  Se  Se242  1  0.08460943  0.25658793  0.70290795  1
  Se  Se243  1  0.08859280  0.57952270  0.19080414  1
  Se  Se244  1  0.07941503  0.58169069  0.70034612  1
  Se  Se245  1  0.09019712  0.90894457  0.20516645  1
  Se  Se246  1  0.08977114  0.91288499  0.69828549  1
  Se  Se247  1  0.41593348  0.25123983  0.19628302  1
  Se  Se248  1  0.42081024  0.24388995  0.68776430  1
  Se  Se249  1  0.41648107  0.58508655  0.18963006  1
  Se  Se250  1  0.41347458  0.58241744  0.69860953  1
  Se  Se251  1  0.41844064  0.91674540  0.19490044  1
  Se  Se252  1  0.41612089  0.91793904  0.70129118  1
  Se  Se253  1  0.75378542  0.24718680  0.18516360  1
  Se  Se254  1  0.75110665  0.24988784  0.70170935  1
  Se  Se255  1  0.74700077  0.58397165  0.20198660  1
  Se  Se256  1  0.74488052  0.58369938  0.69724828  1
  Se  Se257  1  0.74772434  0.91761365  0.19279853  1
  Se  Se258  1  0.75434508  0.91519459  0.68199376  1
