# generated using pymatgen
data_In86Cu29Se144
_symmetry_space_group_name_H-M   'P 1'
_cell_length_a   17.59347812
_cell_length_b   17.58990159
_cell_length_c   23.44136055
_cell_angle_alpha   89.99039743
_cell_angle_beta   90.00031970
_cell_angle_gamma   90.02143360
_symmetry_Int_Tables_number   1
_chemical_formula_structural   In86Cu29Se144
_chemical_formula_sum   'In86 Cu29 Se144'
_cell_volume   7254.33977957
_cell_formula_units_Z   1
loop_
 _symmetry_equiv_pos_site_id
 _symmetry_equiv_pos_as_xyz
  1  'x, y, z'
loop_
 _atom_site_type_symbol
 _atom_site_label
 _atom_site_symmetry_multiplicity
 _atom_site_fract_x
 _atom_site_fract_y
 _atom_site_fract_z
 _atom_site_occupancy
  In  In0  1  -0.00066311  0.17019919  0.12449657  1
  In  In1  1  -0.00549529  0.16411902  0.64094923  1
  In  In2  1  -0.00690993  0.49382531  0.11903278  1
  In  In3  1  0.00725812  0.48306059  0.62977046  1
  In  In4  1  0.01219486  0.84243036  0.11749789  1
  In  In5  1  -0.00061339  0.84640822  0.62545818  1
  In  In6  1  0.29816826  0.12877653  0.06668410  1
  In  In7  1  0.33069466  0.16851256  0.64267600  1
  In  In8  1  0.32315751  0.47645493  0.10156626  1
  In  In9  1  0.32523160  0.50789239  0.63526310  1
  In  In10  1  0.33557366  0.86750152  0.11988069  1
  In  In11  1  0.33952197  0.82688632  0.63448656  1
  In  In12  1  0.65784170  0.15744083  0.10858312  1
  In  In13  1  0.66469621  0.16463729  0.62904609  1
  In  In14  1  0.66619145  0.50244008  0.11504169  1
  In  In15  1  0.67183553  0.51182205  0.63208934  1
  In  In16  1  0.66759182  0.82164550  0.13661032  1
  In  In17  1  0.65785786  0.82575166  0.61136001  1
  In  In18  1  0.17116968  0.00686951  0.36171858  1
  In  In19  1  0.17340496  0.00638142  0.88398562  1
  In  In20  1  0.16250184  0.34016997  0.37354072  1
  In  In21  1  0.17037374  0.33486613  0.87869672  1
  In  In22  1  0.15672093  0.65917425  0.37773821  1
  In  In23  1  0.17645020  0.65538834  0.88172923  1
  In  In24  1  0.48746463  -0.01988136  0.35736911  1
  In  In25  1  0.48892957  0.01374181  0.88694060  1
  In  In26  1  0.49608357  0.33695028  0.37156319  1
  In  In27  1  0.47388746  0.35276388  0.90878170  1
  In  In28  1  0.51861385  0.67646200  0.36050823  1
  In  In29  1  0.48907009  0.66134949  0.86557801  1
  In  In30  1  0.82203105  -0.01106912  0.36065600  1
  In  In31  1  0.83687541  0.00358248  0.88045930  1
  In  In32  1  0.83824673  0.32691306  0.36939975  1
  In  In33  1  0.84393645  0.32084085  0.89117950  1
  In  In34  1  0.82974227  0.67970339  0.37726505  1
  In  In35  1  0.82289516  0.67490538  0.87531964  1
  In  In36  1  0.00032062  0.16480272  0.36040000  1
  In  In37  1  0.00097224  0.17363976  0.87620097  1
  In  In38  1  0.00552565  0.49606366  0.37544116  1
  In  In39  1  0.01422620  0.48587715  0.88268572  1
  In  In40  1  -0.00606152  0.83387595  0.37396538  1
  In  In41  1  -0.01039903  0.84744923  0.88074932  1
  In  In42  1  0.34237983  0.16071171  0.36921561  1
  In  In43  1  0.33216161  0.16980520  0.88311204  1
  In  In44  1  0.32759336  0.49159620  0.37628931  1
  In  In45  1  0.33072225  0.50235810  0.87857376  1
  In  In46  1  0.32316057  0.84943159  0.37556506  1
  In  In47  1  0.33396094  0.83163061  0.87593581  1
  In  In48  1  0.68152293  0.16237909  0.37012009  1
  In  In49  1  0.66358403  0.17612813  0.89074898  1
  In  In50  1  0.66125817  0.51284965  0.36914820  1
  In  In51  1  0.65551697  0.50292619  0.88450919  1
  In  In52  1  0.66567625  0.83370685  0.37169126  1
  In  In53  1  0.67854563  0.83515408  0.87514274  1
  In  In54  1  0.15903841  -0.00060686  0.12210003  1
  In  In55  1  0.16237249  0.00417396  0.63645809  1
  In  In56  1  0.15991009  0.30935540  0.10233665  1
  In  In57  1  0.15757626  0.34095550  0.63733972  1
  In  In58  1  0.16187740  0.66521873  0.11280079  1
  In  In59  1  0.18319199  0.66579720  0.62904616  1
  In  In60  1  0.49260055  0.00617894  0.13228395  1
  In  In61  1  0.50879116  -0.01078673  0.62951834  1
  In  In62  1  0.48858781  0.30998191  0.09466028  1
  In  In63  1  0.49450480  0.32061372  0.63330436  1
  In  In64  1  0.51046100  0.67176765  0.12822380  1
  In  In65  1  0.49689621  0.67162757  0.63130569  1
  In  In66  1  0.83890429  -0.00145736  0.12335357  1
  In  In67  1  0.84397079  -0.00700630  0.62784200  1
  In  In68  1  0.83708501  0.34573275  0.11362579  1
  In  In69  1  0.84035796  0.33136513  0.63602721  1
  In  In70  1  0.82626243  0.66097497  0.12099285  1
  In  In71  1  0.82326335  0.66888412  0.63014964  1
  In  In72  1  0.66571611  0.00110131  0.76291486  1
  In  In73  1  0.16626845  0.83104490  0.50303128  1
  In  In74  1  -0.00518225  0.66875179  0.25676628  1
  In  In75  1  0.33125341  0.32257716  0.23101314  1
  In  In76  1  0.49889536  0.16112792  0.49636300  1
  In  In77  1  0.83812847  0.50340051  0.49405087  1
  In  In78  1  0.66375960  0.32868034  0.23472936  1
  In  In79  1  0.49799884  0.83656168  0.00078010  1
  In  In80  1  0.66862802  0.33382326  0.75903124  1
  In  In81  1  0.49434708  0.51031962  0.50828893  1
  In  In82  1  0.83780735  0.16074627  0.50819241  1
  In  In83  1  0.00271563  0.66684117  0.76085235  1
  In  In84  1  0.33670714  0.66503696  0.23923356  1
  In  In85  1  0.16238237  0.16563099  0.49910208  1
  Cu  Cu86  1  0.17388773  0.16355684  0.23370320  1
  Cu  Cu87  1  -0.00028410  0.00749180  -0.00097481  1
  Cu  Cu88  1  0.67585631  -0.01132766  0.00314696  1
  Cu  Cu89  1  0.83699448  0.83461627  0.24837296  1
  Cu  Cu90  1  0.66672071  -0.00952369  0.49121574  1
  Cu  Cu91  1  0.16533220  0.84160844  0.75760072  1
  Cu  Cu92  1  0.17424810  0.83957827  0.24133113  1
  Cu  Cu93  1  0.49721864  0.83470734  0.74974217  1
  Cu  Cu94  1  0.33913635  0.66258259  0.50432027  1
  Cu  Cu95  1  0.82638690  0.49931446  0.24095478  1
  Cu  Cu96  1  0.33961738  -0.00541309  0.50405777  1
  Cu  Cu97  1  0.49195938  0.17344354  0.76536868  1
  Cu  Cu98  1  0.00434824  0.33551569  -0.00008929  1
  Cu  Cu99  1  -0.00665353  -0.00152576  0.49650677  1
  Cu  Cu100  1  0.50379427  0.16017583  0.24157340  1
  Cu  Cu101  1  0.49846756  0.49657748  0.23579767  1
  Cu  Cu102  1  0.66552887  0.67039631  0.00145589  1
  Cu  Cu103  1  0.49602328  0.49595787  0.76031059  1
  Cu  Cu104  1  0.15836037  0.49627001  0.24760474  1
  Cu  Cu105  1  0.00143507  0.65784467  0.50291300  1
  Cu  Cu106  1  0.33735779  0.66608081  -0.00091894  1
  Cu  Cu107  1  0.16938095  0.16266657  0.76102291  1
  Cu  Cu108  1  0.84137433  0.16790431  0.24137110  1
  Cu  Cu109  1  -0.01027681  0.66717730  -0.00454717  1
  Cu  Cu110  1  0.31995136  0.33808188  0.50515449  1
  Cu  Cu111  1  0.82734649  0.83595885  0.75271158  1
  Cu  Cu112  1  0.66996017  0.34487470  0.50174496  1
  Cu  Cu113  1  0.83593346  0.49644897  0.75446938  1
  Cu  Cu114  1  0.17288417  0.49647999  0.75796776  1
  Se  Se115  1  0.08258175  0.08994269  0.05335279  1
  Se  Se116  1  0.07112410  0.07602678  0.56008050  1
  Se  Se117  1  0.08778985  0.42098025  0.05261742  1
  Se  Se118  1  0.08996709  0.41353505  0.55648555  1
  Se  Se119  1  0.07774541  0.74848165  0.04709102  1
  Se  Se120  1  0.07760608  0.73995556  0.56480824  1
  Se  Se121  1  0.43937245  0.08774114  0.05024163  1
  Se  Se122  1  0.41113397  0.08084410  0.56522303  1
  Se  Se123  1  0.43130983  0.42356912  0.03903674  1
  Se  Se124  1  0.41028859  0.40881310  0.56374978  1
  Se  Se125  1  0.40864014  0.74830288  0.06362285  1
  Se  Se126  1  0.41597433  0.75019478  0.55816237  1
  Se  Se127  1  0.75744581  0.07906496  0.05118446  1
  Se  Se128  1  0.73741313  0.06955074  0.55967613  1
  Se  Se129  1  0.75106590  0.42358594  0.04711700  1
  Se  Se130  1  0.75165468  0.41585864  0.56479569  1
  Se  Se131  1  0.74649309  0.75315336  0.05689993  1
  Se  Se132  1  0.76354462  0.75610336  0.55565833  1
  Se  Se133  1  0.28744669  0.27628973  0.05638763  1
  Se  Se134  1  0.25178668  0.24853129  0.56449785  1
  Se  Se135  1  0.24848686  0.58258488  0.04797577  1
  Se  Se136  1  0.25242024  0.58079960  0.55477090  1
  Se  Se137  1  0.23013863  0.90584961  0.05263670  1
  Se  Se138  1  0.25270934  0.92268442  0.56403076  1
  Se  Se139  1  0.61440246  0.26959387  0.04327588  1
  Se  Se140  1  0.58978628  0.25699966  0.55588325  1
  Se  Se141  1  0.57801555  0.58951214  0.05205120  1
  Se  Se142  1  0.59463871  0.59632472  0.55965972  1
  Se  Se143  1  0.59094779  0.91684178  0.06477750  1
  Se  Se144  1  0.57694241  0.91774684  0.54809894  1
  Se  Se145  1  0.91971323  0.25251008  0.05295079  1
  Se  Se146  1  0.92768085  0.25533081  0.56228986  1
  Se  Se147  1  0.91301227  0.58231943  0.05331597  1
  Se  Se148  1  0.92333916  0.58345250  0.56714391  1
  Se  Se149  1  0.92035262  0.91770563  0.05124618  1
  Se  Se150  1  0.91355656  0.91334935  0.55017903  1
  Se  Se151  1  0.07214952  0.25145018  0.43817827  1
  Se  Se152  1  0.08758186  0.25049829  0.94792814  1
  Se  Se153  1  0.08402467  0.57533771  0.44941991  1
  Se  Se154  1  0.08055661  0.58548295  0.94794553  1
  Se  Se155  1  0.08528912  0.92731401  0.43877171  1
  Se  Se156  1  0.08233042  0.92181604  0.94687277  1
  Se  Se157  1  0.40307995  0.26115125  0.44393238  1
  Se  Se158  1  0.44066319  0.22066365  0.94916474  1
  Se  Se159  1  0.41381431  0.58982624  0.43372077  1
  Se  Se160  1  0.42121222  0.58482782  0.94528648  1
  Se  Se161  1  0.41836513  0.91615073  0.44430159  1
  Se  Se162  1  0.39958877  0.92830070  0.95158004  1
  Se  Se163  1  0.74676891  0.25694914  0.44634211  1
  Se  Se164  1  0.74505684  0.25829184  0.95957030  1
  Se  Se165  1  0.73939179  0.59278942  0.44407923  1
  Se  Se166  1  0.74753500  0.58804720  0.94581685  1
  Se  Se167  1  0.75706872  0.91235400  0.44134697  1
  Se  Se168  1  0.75969752  0.91067951  0.94702330  1
  Se  Se169  1  0.26062180  0.07455572  0.44266447  1
  Se  Se170  1  0.24877139  0.09237986  0.95689882  1
  Se  Se171  1  0.24159076  0.41878629  0.44744695  1
  Se  Se172  1  0.24075428  0.42850207  0.94650650  1
  Se  Se173  1  0.25643520  0.73987261  0.44143326  1
  Se  Se174  1  0.25357896  0.74887593  0.94620527  1
  Se  Se175  1  0.59074382  0.07790438  0.43450189  1
  Se  Se176  1  0.59266313  0.07318894  0.95085167  1
  Se  Se177  1  0.58549553  0.41783980  0.44191432  1
  Se  Se178  1  0.59583774  0.40578624  0.95478719  1
  Se  Se179  1  0.58569910  0.74753216  0.44010098  1
  Se  Se180  1  0.58430951  0.74684167  0.93731911  1
  Se  Se181  1  0.91727117  0.07820296  0.43339066  1
  Se  Se182  1  0.91625778  0.09162063  0.94679868  1
  Se  Se183  1  0.92399738  0.40246187  0.44391562  1
  Se  Se184  1  0.91752794  0.42152864  0.95131125  1
  Se  Se185  1  0.92695859  0.74386360  0.44564832  1
  Se  Se186  1  0.90995905  0.75358076  0.94320726  1
  Se  Se187  1  0.24447396  0.24299070  0.30645785  1
  Se  Se188  1  0.25273207  0.24975300  0.81051344  1
  Se  Se189  1  0.24182417  0.57684913  0.30447393  1
  Se  Se190  1  0.25601787  0.58663181  0.80355411  1
  Se  Se191  1  0.25622689  0.92457744  0.29490252  1
  Se  Se192  1  0.25038401  0.92068267  0.81233300  1
  Se  Se193  1  0.57649309  0.24256162  0.30617019  1
  Se  Se194  1  0.57405114  0.25520218  0.82112690  1
  Se  Se195  1  0.57969801  0.57761103  0.29127183  1
  Se  Se196  1  0.58522267  0.58068213  0.80542847  1
  Se  Se197  1  0.60770851  0.93800745  0.30586108  1
  Se  Se198  1  0.56887411  0.91219614  0.81846767  1
  Se  Se199  1  0.91921848  0.25474133  0.29573561  1
  Se  Se200  1  0.91559452  0.25642155  0.80910475  1
  Se  Se201  1  0.90201256  0.57279125  0.31110961  1
  Se  Se202  1  0.91449099  0.57422775  0.81805022  1
  Se  Se203  1  0.92445958  0.91680407  0.29987516  1
  Se  Se204  1  0.90998890  0.92116634  0.80431953  1
  Se  Se205  1  0.08877661  0.08699005  0.29338341  1
  Se  Se206  1  0.08483134  0.08165081  0.81378956  1
  Se  Se207  1  0.07680876  0.41278786  0.30094239  1
  Se  Se208  1  0.08550904  0.41140478  0.80417207  1
  Se  Se209  1  0.09787807  0.76122602  0.30634799  1
  Se  Se210  1  0.08958607  0.75886628  0.81953733  1
  Se  Se211  1  0.41509943  0.08125653  0.29576422  1
  Se  Se212  1  0.40900184  0.08202799  0.80998523  1
  Se  Se213  1  0.41677436  0.42089397  0.29852938  1
  Se  Se214  1  0.41842399  0.41202297  0.81645633  1
  Se  Se215  1  0.40784254  0.75444544  0.31090188  1
  Se  Se216  1  0.41058512  0.75167452  0.80075934  1
  Se  Se217  1  0.75416823  0.08682356  0.29382561  1
  Se  Se218  1  0.75109326  0.09880286  0.81679658  1
  Se  Se219  1  0.74774670  0.41807553  0.30544837  1
  Se  Se220  1  0.75733289  0.42155226  0.81963548  1
  Se  Se221  1  0.75282015  0.75127984  0.30131992  1
  Se  Se222  1  0.74235584  0.74866333  0.79884610  1
  Se  Se223  1  0.25786359  0.09180729  0.17227840  1
  Se  Se224  1  0.25029338  0.07836481  0.70533794  1
  Se  Se225  1  0.23697613  0.41932782  0.18519541  1
  Se  Se226  1  0.25454586  0.41277789  0.70195887  1
  Se  Se227  1  0.24555775  0.75459004  0.18092351  1
  Se  Se228  1  0.24526241  0.75602837  0.70230948  1
  Se  Se229  1  0.59423836  0.08242805  0.19127456  1
  Se  Se230  1  0.57196101  0.09446737  0.70190687  1
  Se  Se231  1  0.56929067  0.41066123  0.17489353  1
  Se  Se232  1  0.57672307  0.42272713  0.69274584  1
  Se  Se233  1  0.57380099  0.75307019  0.20502109  1
  Se  Se234  1  0.58412403  0.75858799  0.69401265  1
  Se  Se235  1  0.92408939  0.07983486  0.19303584  1
  Se  Se236  1  0.90812133  0.07847218  0.70104034  1
  Se  Se237  1  0.91400532  0.41624113  0.19366931  1
  Se  Se238  1  0.92143147  0.41389257  0.70401786  1
  Se  Se239  1  0.91591123  0.75401861  0.18680770  1
  Se  Se240  1  0.91559693  0.75693033  0.69621137  1
  Se  Se241  1  0.08988817  0.25399405  0.19005764  1
  Se  Se242  1  0.08799013  0.24343751  0.70219895  1
  Se  Se243  1  0.08238457  0.58321454  0.19107163  1
  Se  Se244  1  0.09188852  0.57878897  0.69649501  1
  Se  Se245  1  0.08068850  0.91976690  0.19687615  1
  Se  Se246  1  0.07902745  0.91738554  0.70126567  1
  Se  Se247  1  0.42477591  0.23425587  0.17799869  1
  Se  Se248  1  0.41084933  0.25657400  0.70909550  1
  Se  Se249  1  0.41109654  0.56783658  0.17524409  1
  Se  Se250  1  0.42157845  0.58069898  0.69903318  1
  Se  Se251  1  0.43234933  0.90168613  0.19621148  1
  Se  Se252  1  0.41596239  0.92224352  0.69858693  1
  Se  Se253  1  0.75877758  0.24233739  0.17901090  1
  Se  Se254  1  0.75582874  0.23786419  0.69786740  1
  Se  Se255  1  0.74169113  0.58262575  0.19169979  1
  Se  Se256  1  0.75413495  0.58452099  0.70540114  1
  Se  Se257  1  0.75492461  0.91603113  0.19320831  1
  Se  Se258  1  0.74385804  0.91354600  0.69165833  1
