# generated using pymatgen
data_In86Cu29Se144
_symmetry_space_group_name_H-M   'P 1'
_cell_length_a   17.57505592
_cell_length_b   17.57351190
_cell_length_c   23.43280883
_cell_angle_alpha   89.99929029
_cell_angle_beta   89.98435409
_cell_angle_gamma   90.01648374
_symmetry_Int_Tables_number   1
_chemical_formula_structural   In86Cu29Se144
_chemical_formula_sum   'In86 Cu29 Se144'
_cell_volume   7237.35024946
_cell_formula_units_Z   1
loop_
 _symmetry_equiv_pos_site_id
 _symmetry_equiv_pos_as_xyz
  1  'x, y, z'
loop_
 _atom_site_type_symbol
 _atom_site_label
 _atom_site_symmetry_multiplicity
 _atom_site_fract_x
 _atom_site_fract_y
 _atom_site_fract_z
 _atom_site_occupancy
  In  In0  1  -0.00298264  0.15928858  0.12898790  1
  In  In1  1  0.00301766  0.17872562  0.62332247  1
  In  In2  1  0.00404383  0.48620343  0.12770030  1
  In  In3  1  -0.01510317  0.48897710  0.61041293  1
  In  In4  1  0.00193118  0.84022531  0.12390930  1
  In  In5  1  -0.00824398  0.84640275  0.61957979  1
  In  In6  1  0.34365170  0.17010877  0.12586812  1
  In  In7  1  0.34219830  0.15559087  0.62489853  1
  In  In8  1  0.32929811  0.49628450  0.13446885  1
  In  In9  1  0.33755966  0.51299234  0.62009117  1
  In  In10  1  0.33021332  0.82877922  0.12089612  1
  In  In11  1  0.33382175  0.82000367  0.62642624  1
  In  In12  1  0.65992512  0.15061955  0.12727145  1
  In  In13  1  0.66184558  0.15455430  0.61490632  1
  In  In14  1  0.67607537  0.50258754  0.13192014  1
  In  In15  1  0.68022890  0.50221543  0.62200642  1
  In  In16  1  0.66956217  0.84329170  0.12680865  1
  In  In17  1  0.66422223  0.83311116  0.62563842  1
  In  In18  1  0.15416402  0.01275859  0.36687226  1
  In  In19  1  0.16165633  0.00348819  0.88882617  1
  In  In20  1  0.16418590  0.33112114  0.36736783  1
  In  In21  1  0.16003342  0.33401174  0.87462221  1
  In  In22  1  0.15522523  0.65619962  0.37612749  1
  In  In23  1  0.17684679  0.66742171  0.87390262  1
  In  In24  1  0.50849498  -0.01009834  0.38113525  1
  In  In25  1  0.51247150  -0.01254453  0.88452013  1
  In  In26  1  0.48643262  0.32957631  0.37302886  1
  In  In27  1  0.49592005  0.32798367  0.88036351  1
  In  In28  1  0.51290951  0.67960185  0.36814229  1
  In  In29  1  0.52129834  0.70155583  0.85070415  1
  In  In30  1  0.82678312  0.00442330  0.36462837  1
  In  In31  1  0.82482937  0.00728082  0.87837284  1
  In  In32  1  0.84624708  0.32420731  0.37479359  1
  In  In33  1  0.83442094  0.31634854  0.87697376  1
  In  In34  1  0.82511250  0.68482064  0.39297228  1
  In  In35  1  0.83082093  0.68278121  0.87581037  1
  In  In36  1  -0.01722639  0.15021788  0.34491711  1
  In  In37  1  -0.00226602  0.17099858  0.87705381  1
  In  In38  1  0.00915401  0.50005624  0.38740372  1
  In  In39  1  0.01072923  0.49116746  0.87133351  1
  In  In40  1  -0.03715572  0.83862755  0.36169311  1
  In  In41  1  -0.00884159  0.84136789  0.88848689  1
  In  In42  1  0.32642099  0.17790394  0.37056462  1
  In  In43  1  0.33795361  0.16406707  0.88758808  1
  In  In44  1  0.31645603  0.49420614  0.37154144  1
  In  In45  1  0.32357802  0.51170498  0.87352457  1
  In  In46  1  0.35297425  0.83804830  0.37356410  1
  In  In47  1  0.33969711  0.82923778  0.88362685  1
  In  In48  1  0.67813123  0.15045419  0.36935432  1
  In  In49  1  0.67565802  0.15385021  0.88167095  1
  In  In50  1  0.66549644  0.51834564  0.37666027  1
  In  In51  1  0.65741283  0.50675302  0.87378740  1
  In  In52  1  0.67354446  0.83228243  0.37176402  1
  In  In53  1  0.66644606  0.84184093  0.87441122  1
  In  In54  1  0.15871850  -0.00722018  0.11937992  1
  In  In55  1  0.16638254  0.00765732  0.62718593  1
  In  In56  1  0.18011699  0.30855284  0.14673383  1
  In  In57  1  0.14410089  0.32577803  0.62615516  1
  In  In58  1  0.17129842  0.67986325  0.12483606  1
  In  In59  1  0.17881691  0.66342963  0.62089945  1
  In  In60  1  0.51316656  0.01124369  0.12278864  1
  In  In61  1  0.50767073  0.00278858  0.62105062  1
  In  In62  1  0.49906467  0.30900722  0.13592910  1
  In  In63  1  0.51407885  0.32562315  0.61854074  1
  In  In64  1  0.49577038  0.67063928  0.13008220  1
  In  In65  1  0.49267376  0.68060967  0.63247720  1
  In  In66  1  0.83368170  -0.00012266  0.12826333  1
  In  In67  1  0.82221463  -0.01095755  0.61320922  1
  In  In68  1  0.85441664  0.32121772  0.13778890  1
  In  In69  1  0.83932293  0.33883451  0.61622559  1
  In  In70  1  0.81762477  0.67627119  0.13457793  1
  In  In71  1  0.82497702  0.65643856  0.61681405  1
  In  In72  1  0.16352426  0.83399223  0.49680508  1
  In  In73  1  0.16742337  0.49956002  -0.00425971  1
  In  In74  1  -0.00641606  0.67039586  0.25076184  1
  In  In75  1  0.83466301  0.49805443  0.00918218  1
  In  In76  1  0.66852167  0.32987895  0.24953379  1
  In  In77  1  -0.00053897  0.66291455  0.74654563  1
  In  In78  1  0.50111492  0.50045937  0.49499122  1
  In  In79  1  0.67354386  0.33693811  0.74594881  1
  In  In80  1  0.16459259  0.17281000  0.49547492  1
  In  In81  1  0.49533526  0.50248756  -0.00324011  1
  In  In82  1  0.33810347  0.00120512  0.24887797  1
  In  In83  1  0.33732711  -0.00414055  0.75110664  1
  In  In84  1  -0.00506095  0.00777254  0.75667220  1
  In  In85  1  0.33311324  0.33920846  0.75488390  1
  Cu  Cu86  1  -0.00289048  0.32857193  0.49382802  1
  Cu  Cu87  1  0.33198502  -0.00004615  0.00686598  1
  Cu  Cu88  1  0.67247962  0.32354372  0.49407862  1
  Cu  Cu89  1  0.50689934  0.16294770  0.75094756  1
  Cu  Cu90  1  0.17335828  0.82816776  0.24781337  1
  Cu  Cu91  1  0.49998279  0.51458647  0.74796396  1
  Cu  Cu92  1  0.66409378  0.67725536  0.00092495  1
  Cu  Cu93  1  0.00286688  0.32266052  0.00451251  1
  Cu  Cu94  1  -0.00621316  0.67201522  0.00602079  1
  Cu  Cu95  1  0.82194788  0.83181412  0.74603812  1
  Cu  Cu96  1  0.83106296  0.51091789  0.25892804  1
  Cu  Cu97  1  0.33830879  0.67461999  -0.00233537  1
  Cu  Cu98  1  0.33673049  0.66608021  0.49733146  1
  Cu  Cu99  1  0.16327723  0.50109929  0.25724955  1
  Cu  Cu100  1  0.83616954  0.16599130  0.74982960  1
  Cu  Cu101  1  0.67024347  0.31912495  0.00686616  1
  Cu  Cu102  1  0.16475636  0.49601154  0.74647450  1
  Cu  Cu103  1  0.32700550  0.33200673  0.49395253  1
  Cu  Cu104  1  0.83937960  0.49687388  0.74241895  1
  Cu  Cu105  1  0.50425255  0.82649132  0.24709274  1
  Cu  Cu106  1  0.34196387  -0.00048223  0.49952841  1
  Cu  Cu107  1  0.66523374  0.67318805  0.50120698  1
  Cu  Cu108  1  -0.00571625  0.00222546  0.00570778  1
  Cu  Cu109  1  0.49380299  0.50234605  0.25648564  1
  Cu  Cu110  1  0.33848808  0.32433467  0.00889456  1
  Cu  Cu111  1  -0.01111171  0.00227436  0.48861234  1
  Cu  Cu112  1  0.16636307  0.83096190  0.75417626  1
  Cu  Cu113  1  0.67383727  -0.00204255  0.49522617  1
  Cu  Cu114  1  0.66943055  -0.00204215  0.00266660  1
  Se  Se115  1  0.08152668  0.08567365  0.05470416  1
  Se  Se116  1  0.07339823  0.07435699  0.55257431  1
  Se  Se117  1  0.08881592  0.40481022  0.05876523  1
  Se  Se118  1  0.08159309  0.40930389  0.54907889  1
  Se  Se119  1  0.08320981  0.75239571  0.05587889  1
  Se  Se120  1  0.07846800  0.74790522  0.56261346  1
  Se  Se121  1  0.41896619  0.08420149  0.05549881  1
  Se  Se122  1  0.42409176  0.08582305  0.55096195  1
  Se  Se123  1  0.41636857  0.41133697  0.06467141  1
  Se  Se124  1  0.41209630  0.40697361  0.55660353  1
  Se  Se125  1  0.42313023  0.75147948  0.05448727  1
  Se  Se126  1  0.41745772  0.74991604  0.55152215  1
  Se  Se127  1  0.75193046  0.08212470  0.05655125  1
  Se  Se128  1  0.75628743  0.08710848  0.54601207  1
  Se  Se129  1  0.74824262  0.40119512  0.06700616  1
  Se  Se130  1  0.74666941  0.41334431  0.54934823  1
  Se  Se131  1  0.74985409  0.75516884  0.05666603  1
  Se  Se132  1  0.75090356  0.75461538  0.55504570  1
  Se  Se133  1  0.24801662  0.24707300  0.06006175  1
  Se  Se134  1  0.25582704  0.25412097  0.56405860  1
  Se  Se135  1  0.25982131  0.58823166  0.05605208  1
  Se  Se136  1  0.25130301  0.58047872  0.54577064  1
  Se  Se137  1  0.24735678  0.91180364  0.05335155  1
  Se  Se138  1  0.25613252  0.92436868  0.56027898  1
  Se  Se139  1  0.58174380  0.24239011  0.05948651  1
  Se  Se140  1  0.58412931  0.24318173  0.54529955  1
  Se  Se141  1  0.59198815  0.58563263  0.05844893  1
  Se  Se142  1  0.58430986  0.58917185  0.56068367  1
  Se  Se143  1  0.58226890  0.91662942  0.05453636  1
  Se  Se144  1  0.58904135  0.91882353  0.55263921  1
  Se  Se145  1  0.91468360  0.24305910  0.05591510  1
  Se  Se146  1  0.91574350  0.24597555  0.55013187  1
  Se  Se147  1  0.92233429  0.59082809  0.06964159  1
  Se  Se148  1  0.91766949  0.58850243  0.54927673  1
  Se  Se149  1  0.91183374  0.91545486  0.05585771  1
  Se  Se150  1  0.91151373  0.91456524  0.54309950  1
  Se  Se151  1  0.06854847  0.24503295  0.43060262  1
  Se  Se152  1  0.08792600  0.24749478  0.94585840  1
  Se  Se153  1  0.08709600  0.58596136  0.45621517  1
  Se  Se154  1  0.07145461  0.59412424  0.94195840  1
  Se  Se155  1  0.07411279  0.92090766  0.43304959  1
  Se  Se156  1  0.08094718  0.91665260  0.95484296  1
  Se  Se157  1  0.41163814  0.24622486  0.44637737  1
  Se  Se158  1  0.42549461  0.24566176  0.95424198  1
  Se  Se159  1  0.41379173  0.58785921  0.43223008  1
  Se  Se160  1  0.41648270  0.59713331  0.93407294  1
  Se  Se161  1  0.42464538  0.91038636  0.45294864  1
  Se  Se162  1  0.41540772  0.91813975  0.95067816  1
  Se  Se163  1  0.75387231  0.24224611  0.43712688  1
  Se  Se164  1  0.75490972  0.24194086  0.95013520  1
  Se  Se165  1  0.74868720  0.58456966  0.45295132  1
  Se  Se166  1  0.74417194  0.58771684  0.94582671  1
  Se  Se167  1  0.75723006  0.91770199  0.43929519  1
  Se  Se168  1  0.75272167  0.91560114  0.94678810  1
  Se  Se169  1  0.25499867  0.07425502  0.44086274  1
  Se  Se170  1  0.24930886  0.08542069  0.95388862  1
  Se  Se171  1  0.23961688  0.41160862  0.44373514  1
  Se  Se172  1  0.26530782  0.40526253  0.94305289  1
  Se  Se173  1  0.25766059  0.74826772  0.43610438  1
  Se  Se174  1  0.24443313  0.75178752  0.94846278  1
  Se  Se175  1  0.58905100  0.08253687  0.44379389  1
  Se  Se176  1  0.58380725  0.08340453  0.95048088  1
  Se  Se177  1  0.59121884  0.40767358  0.43619424  1
  Se  Se178  1  0.59592564  0.40588003  0.94685847  1
  Se  Se179  1  0.58557738  0.75602351  0.44478390  1
  Se  Se180  1  0.58151694  0.75504679  0.94270157  1
  Se  Se181  1  0.91431162  0.08866228  0.43162694  1
  Se  Se182  1  0.91801110  0.08305173  0.94313485  1
  Se  Se183  1  0.91254901  0.41698417  0.44578264  1
  Se  Se184  1  0.92526115  0.40997581  0.94548716  1
  Se  Se185  1  0.93773386  0.74807616  0.44510107  1
  Se  Se186  1  0.90847336  0.75273811  0.95296764  1
  Se  Se187  1  0.23831423  0.24217943  0.29809036  1
  Se  Se188  1  0.25141927  0.24285433  0.81305419  1
  Se  Se189  1  0.24651260  0.59034715  0.30422130  1
  Se  Se190  1  0.24476938  0.58409219  0.79765220  1
  Se  Se191  1  0.24596132  0.91187255  0.31175023  1
  Se  Se192  1  0.24098980  0.91514555  0.81450641  1
  Se  Se193  1  0.57929914  0.24360660  0.31141162  1
  Se  Se194  1  0.58475766  0.24815589  0.80994435  1
  Se  Se195  1  0.58453591  0.58619550  0.29988208  1
  Se  Se196  1  0.59167983  0.59028386  0.79857304  1
  Se  Se197  1  0.58113697  0.91005797  0.30526190  1
  Se  Se198  1  0.57884744  0.91651492  0.80411493  1
  Se  Se199  1  0.90947824  0.25474856  0.29059293  1
  Se  Se200  1  0.91900474  0.25032381  0.80159078  1
  Se  Se201  1  0.91402254  0.58482312  0.31999481  1
  Se  Se202  1  0.91001089  0.57575145  0.81265767  1
  Se  Se203  1  0.93165180  0.94820023  0.29356629  1
  Se  Se204  1  0.90589068  0.90760703  0.80766751  1
  Se  Se205  1  0.10783591  0.11056294  0.29442001  1
  Se  Se206  1  0.09488400  0.09047482  0.81044689  1
  Se  Se207  1  0.07506290  0.42084831  0.30746586  1
  Se  Se208  1  0.08354005  0.41005397  0.79779866  1
  Se  Se209  1  0.08446631  0.76150748  0.31141361  1
  Se  Se210  1  0.07860623  0.75722790  0.81329523  1
  Se  Se211  1  0.42234446  0.08431096  0.31627493  1
  Se  Se212  1  0.42452663  0.08773797  0.81263289  1
  Se  Se213  1  0.40952332  0.41743448  0.30591858  1
  Se  Se214  1  0.42865656  0.43118254  0.81195061  1
  Se  Se215  1  0.41607720  0.74776819  0.29996933  1
  Se  Se216  1  0.39789669  0.74645426  0.80383879  1
  Se  Se217  1  0.72936709  0.05867772  0.28923452  1
  Se  Se218  1  0.74995660  0.08391399  0.80137254  1
  Se  Se219  1  0.75163115  0.42301205  0.31397549  1
  Se  Se220  1  0.76074324  0.42441578  0.81270973  1
  Se  Se221  1  0.76108658  0.74819172  0.30777625  1
  Se  Se222  1  0.74367419  0.75000918  0.80413759  1
  Se  Se223  1  0.24671670  0.08167415  0.18527879  1
  Se  Se224  1  0.24448828  0.09443069  0.69783350  1
  Se  Se225  1  0.24653580  0.41676076  0.20375957  1
  Se  Se226  1  0.24772968  0.41939537  0.68452692  1
  Se  Se227  1  0.25936636  0.74604088  0.19823456  1
  Se  Se228  1  0.24494688  0.74862882  0.69727878  1
  Se  Se229  1  0.57016710  0.09258992  0.20354911  1
  Se  Se230  1  0.58754679  0.08260030  0.69421930  1
  Se  Se231  1  0.57299328  0.42323702  0.19201540  1
  Se  Se232  1  0.57572950  0.42766069  0.68962076  1
  Se  Se233  1  0.59093181  0.74832231  0.19230148  1
  Se  Se234  1  0.59042275  0.74606639  0.69638750  1
  Se  Se235  1  0.93283435  0.06112914  0.19898562  1
  Se  Se236  1  0.90997311  0.08484440  0.68451640  1
  Se  Se237  1  0.91066710  0.42940573  0.20115023  1
  Se  Se238  1  0.92074301  0.41112942  0.69218477  1
  Se  Se239  1  0.90549560  0.76731289  0.19644583  1
  Se  Se240  1  0.91008329  0.75685584  0.68890377  1
  Se  Se241  1  0.05216061  0.27110606  0.19033923  1
  Se  Se242  1  0.08502908  0.23921723  0.70158457  1
  Se  Se243  1  0.09010516  0.58102309  0.19054100  1
  Se  Se244  1  0.08493414  0.57380063  0.68336097  1
  Se  Se245  1  0.08897474  0.91156149  0.19666630  1
  Se  Se246  1  0.08764290  0.91275033  0.69537244  1
  Se  Se247  1  0.40377769  0.25240641  0.20619513  1
  Se  Se248  1  0.42712662  0.24759858  0.69423629  1
  Se  Se249  1  0.41415127  0.58408062  0.19695019  1
  Se  Se250  1  0.40940141  0.59001627  0.69625937  1
  Se  Se251  1  0.42579936  0.91034682  0.18753417  1
  Se  Se252  1  0.42461128  0.90904639  0.68920553  1
  Se  Se253  1  0.75628016  0.23528889  0.19376828  1
  Se  Se254  1  0.75597645  0.24273879  0.68513228  1
  Se  Se255  1  0.74430915  0.58883818  0.20525514  1
  Se  Se256  1  0.75261418  0.58325081  0.69729582  1
  Se  Se257  1  0.73441831  0.93854524  0.19905041  1
  Se  Se258  1  0.74658084  0.92233511  0.69334507  1
