# generated using pymatgen
data_In86Cu29Se144
_symmetry_space_group_name_H-M   'P 1'
_cell_length_a   17.58203322
_cell_length_b   17.58447726
_cell_length_c   23.44581075
_cell_angle_alpha   90.00232061
_cell_angle_beta   89.99760880
_cell_angle_gamma   89.99019477
_symmetry_Int_Tables_number   1
_chemical_formula_structural   In86Cu29Se144
_chemical_formula_sum   'In86 Cu29 Se144'
_cell_volume   7248.76143368
_cell_formula_units_Z   1
loop_
 _symmetry_equiv_pos_site_id
 _symmetry_equiv_pos_as_xyz
  1  'x, y, z'
loop_
 _atom_site_type_symbol
 _atom_site_label
 _atom_site_symmetry_multiplicity
 _atom_site_fract_x
 _atom_site_fract_y
 _atom_site_fract_z
 _atom_site_occupancy
  In  In0  1  0.00167943  0.15018390  0.12905540  1
  In  In1  1  0.00735290  0.16017472  0.63006776  1
  In  In2  1  -0.00155845  0.49247124  0.11511893  1
  In  In3  1  -0.00760636  0.50008155  0.63155226  1
  In  In4  1  0.00152213  0.84624259  0.12242271  1
  In  In5  1  0.02028107  0.86126742  0.60470856  1
  In  In6  1  0.33518012  0.16552640  0.11975036  1
  In  In7  1  0.31510234  0.16580877  0.62022456  1
  In  In8  1  0.33608789  0.49965519  0.11960745  1
  In  In9  1  0.35025041  0.48694611  0.62068877  1
  In  In10  1  0.32721637  0.83932213  0.13403155  1
  In  In11  1  0.32395760  0.84226115  0.63607056  1
  In  In12  1  0.66906517  0.18134709  0.12211869  1
  In  In13  1  0.66480824  0.16721036  0.64252342  1
  In  In14  1  0.64358092  0.48202812  0.10559870  1
  In  In15  1  0.66136734  0.50854551  0.63717460  1
  In  In16  1  0.66727184  0.82619464  0.11714587  1
  In  In17  1  0.67152940  0.82270691  0.63518754  1
  In  In18  1  0.16594444  0.00029998  0.37525932  1
  In  In19  1  0.17425450  0.00694030  0.86840902  1
  In  In20  1  0.18098722  0.30328801  0.38620770  1
  In  In21  1  0.16833927  0.33599019  0.88502057  1
  In  In22  1  0.18245548  0.66632466  0.37630598  1
  In  In23  1  0.17497326  0.65553542  0.87459700  1
  In  In24  1  0.49524284  0.01429451  0.37534906  1
  In  In25  1  0.50643478  0.00931580  0.87140257  1
  In  In26  1  0.50408095  0.34346707  0.36840909  1
  In  In27  1  0.49714405  0.32205991  0.89112257  1
  In  In28  1  0.48415603  0.66488117  0.37579235  1
  In  In29  1  0.49345040  0.66269143  0.86544269  1
  In  In30  1  0.83593021  -0.01087944  0.37988848  1
  In  In31  1  0.82611600  -0.00937049  0.86791837  1
  In  In32  1  0.83316096  0.33748117  0.36929590  1
  In  In33  1  0.84173258  0.33918798  0.87165754  1
  In  In34  1  0.83903679  0.67218184  0.37590919  1
  In  In35  1  0.82522992  0.67775528  0.87912786  1
  In  In36  1  0.03603946  0.15229748  0.38981940  1
  In  In37  1  0.00909894  0.17340819  0.86871028  1
  In  In38  1  -0.00456933  0.49509171  0.37303262  1
  In  In39  1  0.01271542  0.48699147  0.88127346  1
  In  In40  1  -0.00549940  0.85070359  0.38779082  1
  In  In41  1  -0.01397440  0.83471726  0.87157488  1
  In  In42  1  0.31743046  0.15749584  0.35793331  1
  In  In43  1  0.33767790  0.16475935  0.89019473  1
  In  In44  1  0.34088788  0.51062422  0.36782501  1
  In  In45  1  0.33155758  0.50041957  0.88474151  1
  In  In46  1  0.32276499  0.82772898  0.37378075  1
  In  In47  1  0.35073210  0.84092330  0.85152130  1
  In  In48  1  0.65346645  0.17579845  0.37363870  1
  In  In49  1  0.65437586  0.15597301  0.87145549  1
  In  In50  1  0.66357432  0.48481085  0.37225151  1
  In  In51  1  0.66632571  0.50008479  0.87567522  1
  In  In52  1  0.67483515  0.83984899  0.38050573  1
  In  In53  1  0.67901104  0.85125442  0.85990605  1
  In  In54  1  0.16090668  0.01065862  0.13280460  1
  In  In55  1  0.16887512  0.00563866  0.62503399  1
  In  In56  1  0.17757640  0.33460149  0.11313408  1
  In  In57  1  0.16679599  0.31358655  0.61524293  1
  In  In58  1  0.18200376  0.66206231  0.12600781  1
  In  In59  1  0.15760566  0.67726590  0.62674133  1
  In  In60  1  0.48590435  -0.00546146  0.12174398  1
  In  In61  1  0.49885814  -0.00642754  0.64355003  1
  In  In62  1  0.49640516  0.33465606  0.12091855  1
  In  In63  1  0.49517483  0.35026234  0.62456724  1
  In  In64  1  0.49197154  0.65634817  0.11815486  1
  In  In65  1  0.50912121  0.65782439  0.63796950  1
  In  In66  1  0.84245953  0.00512539  0.12387608  1
  In  In67  1  0.84557497  -0.00977865  0.63272140  1
  In  In68  1  0.82086198  0.33102812  0.12322942  1
  In  In69  1  0.83394427  0.32998559  0.63962714  1
  In  In70  1  0.83423739  0.66511260  0.11369587  1
  In  In71  1  0.82197579  0.67319863  0.62977261  1
  In  In72  1  0.16413881  0.82432439  -0.00232295  1
  In  In73  1  0.16418134  0.50046131  0.49756472  1
  In  In74  1  0.66281632  0.00391997  0.25242887  1
  In  In75  1  0.50679451  0.83531158  -0.00987398  1
  In  In76  1  0.66205928  0.66002630  0.23664078  1
  In  In77  1  0.82704169  0.50344157  0.49778781  1
  In  In78  1  0.83096266  0.16298023  -0.00196624  1
  In  In79  1  0.49457088  0.82945882  0.50881063  1
  In  In80  1  0.83960520  0.16780441  0.50546719  1
  In  In81  1  0.01149112  0.32257620  0.25595069  1
  In  In82  1  0.00523898  0.66757454  0.25465834  1
  In  In83  1  -0.00755109  0.67005014  0.75096161  1
  In  In84  1  0.48938738  0.17570893  0.50196803  1
  In  In85  1  0.33198859  0.32938097  0.74782721  1
  Cu  Cu86  1  0.16763184  0.16285375  0.74877609  1
  Cu  Cu87  1  0.67195372  -0.00039150  0.50835388  1
  Cu  Cu88  1  0.49695198  0.17567166  0.24642363  1
  Cu  Cu89  1  0.16375814  0.83542160  0.74489089  1
  Cu  Cu90  1  0.49577141  0.49916464  0.24016420  1
  Cu  Cu91  1  0.83947692  0.83882776  0.74418949  1
  Cu  Cu92  1  -0.00081408  -0.00044952  0.00063497  1
  Cu  Cu93  1  0.66339760  0.33920474  0.50275889  1
  Cu  Cu94  1  0.65854930  0.66489222  0.50980363  1
  Cu  Cu95  1  0.00253473  0.32695351  -0.00269116  1
  Cu  Cu96  1  0.83763427  0.16766087  0.24987127  1
  Cu  Cu97  1  0.33702037  0.66003528  0.50298866  1
  Cu  Cu98  1  0.50244679  0.49360124  0.75432572  1
  Cu  Cu99  1  0.17344439  0.49117652  0.75798398  1
  Cu  Cu100  1  -0.00384012  0.67833621  0.49998587  1
  Cu  Cu101  1  0.33593121  0.66817370  -0.00383800  1
  Cu  Cu102  1  0.32890642  0.00153904  0.50130105  1
  Cu  Cu103  1  0.16515856  0.84010002  0.25219372  1
  Cu  Cu104  1  0.17406143  0.49477431  0.24660648  1
  Cu  Cu105  1  0.82327177  0.49027672  0.24197029  1
  Cu  Cu106  1  0.00034077  0.66005674  -0.00686551  1
  Cu  Cu107  1  0.66704850  0.33549037  -0.00234193  1
  Cu  Cu108  1  0.83351279  0.49909486  0.75641564  1
  Cu  Cu109  1  0.83194704  0.16781853  0.75605878  1
  Cu  Cu110  1  0.83674526  0.83546354  0.25150448  1
  Cu  Cu111  1  0.48763947  0.83349851  0.25215200  1
  Cu  Cu112  1  0.49117673  0.16977887  0.75828062  1
  Cu  Cu113  1  0.32873164  0.00554029  0.00026576  1
  Cu  Cu114  1  0.67452200  0.67185358  -0.00795953  1
  Se  Se115  1  0.08391553  0.08114473  0.05306150  1
  Se  Se116  1  0.09404411  0.09465083  0.55637468  1
  Se  Se117  1  0.08575058  0.41432762  0.04873464  1
  Se  Se118  1  0.07489064  0.41606469  0.56137293  1
  Se  Se119  1  0.07503342  0.73666581  0.06228392  1
  Se  Se120  1  0.08984255  0.75415532  0.54805575  1
  Se  Se121  1  0.42080631  0.08343392  0.04910689  1
  Se  Se122  1  0.41598572  0.07192937  0.56324785  1
  Se  Se123  1  0.44548593  0.44503462  0.05793323  1
  Se  Se124  1  0.40844888  0.39923363  0.54445920  1
  Se  Se125  1  0.40883086  0.75618851  0.05633003  1
  Se  Se126  1  0.40862015  0.73984731  0.56981242  1
  Se  Se127  1  0.74055908  0.07575759  0.05944374  1
  Se  Se128  1  0.74537460  0.08475231  0.56767487  1
  Se  Se129  1  0.75471766  0.41739778  0.04894089  1
  Se  Se130  1  0.74619496  0.41400489  0.56519086  1
  Se  Se131  1  0.75542336  0.75457749  0.04769423  1
  Se  Se132  1  0.74586213  0.75108484  0.55461509  1
  Se  Se133  1  0.26831707  0.25722420  0.04663388  1
  Se  Se134  1  0.26561155  0.25937124  0.54521812  1
  Se  Se135  1  0.25214632  0.58445735  0.04939058  1
  Se  Se136  1  0.25129888  0.58571943  0.56429264  1
  Se  Se137  1  0.24889003  0.91971852  0.05745570  1
  Se  Se138  1  0.25100184  0.91617284  0.55762009  1
  Se  Se139  1  0.58293536  0.25224229  0.05072557  1
  Se  Se140  1  0.59112783  0.25270561  0.56342623  1
  Se  Se141  1  0.58766198  0.59566260  0.04816519  1
  Se  Se142  1  0.57926381  0.57716659  0.55983172  1
  Se  Se143  1  0.58986444  0.92534100  0.05586783  1
  Se  Se144  1  0.58633525  0.92190204  0.56495896  1
  Se  Se145  1  0.92274543  0.25007635  0.06169531  1
  Se  Se146  1  0.92279224  0.26102531  0.56550704  1
  Se  Se147  1  0.91676444  0.57848334  0.04905326  1
  Se  Se148  1  0.91950734  0.59392856  0.55875126  1
  Se  Se149  1  0.91312895  0.91683901  0.05127511  1
  Se  Se150  1  0.90962478  0.92094268  0.54916440  1
  Se  Se151  1  0.06954000  0.26816145  0.45107387  1
  Se  Se152  1  0.08655094  0.24209714  0.94757972  1
  Se  Se153  1  0.07072611  0.59445165  0.43803614  1
  Se  Se154  1  0.09085914  0.58021015  0.94566210  1
  Se  Se155  1  0.09632623  0.91376359  0.44912524  1
  Se  Se156  1  0.07848607  0.91939671  0.93830396  1
  Se  Se157  1  0.41270921  0.24688475  0.42447591  1
  Se  Se158  1  0.39146326  0.26873552  0.95847808  1
  Se  Se159  1  0.41928952  0.57754851  0.44969997  1
  Se  Se160  1  0.42314314  0.58650040  0.94521436  1
  Se  Se161  1  0.41338461  0.92242743  0.44255921  1
  Se  Se162  1  0.40516566  0.92234188  0.93868201  1
  Se  Se163  1  0.74338864  0.25754109  0.44386398  1
  Se  Se164  1  0.74495403  0.25353237  0.93631990  1
  Se  Se165  1  0.73479020  0.59342184  0.43777077  1
  Se  Se166  1  0.75493828  0.58023795  0.94380256  1
  Se  Se167  1  0.75249064  0.91612982  0.45394591  1
  Se  Se168  1  0.74920019  0.91623283  0.94289776  1
  Se  Se169  1  0.25402858  0.08523048  0.44240836  1
  Se  Se170  1  0.23925439  0.08399501  0.94901503  1
  Se  Se171  1  0.25547225  0.41865814  0.43493178  1
  Se  Se172  1  0.25275400  0.41541207  0.95166889  1
  Se  Se173  1  0.25464543  0.74680760  0.45186312  1
  Se  Se174  1  0.26377262  0.75276826  0.93331019  1
  Se  Se175  1  0.59116438  0.07975485  0.44939407  1
  Se  Se176  1  0.57197168  0.09113673  0.94842358  1
  Se  Se177  1  0.57956675  0.41872809  0.44787219  1
  Se  Se178  1  0.58198909  0.41976388  0.94634059  1
  Se  Se179  1  0.58549376  0.74476778  0.44161139  1
  Se  Se180  1  0.59317153  0.74615122  0.92885238  1
  Se  Se181  1  0.92495292  0.07619484  0.44507701  1
  Se  Se182  1  0.92231190  0.07793260  0.93584858  1
  Se  Se183  1  0.92065343  0.40820478  0.44604643  1
  Se  Se184  1  0.91864951  0.41377132  0.94847713  1
  Se  Se185  1  0.90859485  0.75718834  0.44751324  1
  Se  Se186  1  0.91868556  0.75093069  0.94683925  1
  Se  Se187  1  0.24423918  0.25529184  0.29560163  1
  Se  Se188  1  0.24614475  0.24184235  0.81175215  1
  Se  Se189  1  0.25021433  0.58619060  0.29900337  1
  Se  Se190  1  0.25864837  0.57653802  0.80501435  1
  Se  Se191  1  0.25271892  0.91939884  0.30521613  1
  Se  Se192  1  0.24753219  0.91886553  0.79812352  1
  Se  Se193  1  0.58401376  0.25630992  0.29870055  1
  Se  Se194  1  0.57467531  0.25351467  0.81114718  1
  Se  Se195  1  0.57576128  0.57784555  0.30562417  1
  Se  Se196  1  0.58632185  0.58091553  0.80323493  1
  Se  Se197  1  0.57319626  0.90803374  0.31225603  1
  Se  Se198  1  0.56447956  0.90629905  0.80609736  1
  Se  Se199  1  0.91908483  0.23617537  0.31721800  1
  Se  Se200  1  0.91988888  0.25268780  0.80307379  1
  Se  Se201  1  0.90164663  0.57251972  0.30216502  1
  Se  Se202  1  0.91588979  0.57749592  0.81735439  1
  Se  Se203  1  0.91862071  0.91721832  0.30542620  1
  Se  Se204  1  0.92130411  0.92297762  0.79780103  1
  Se  Se205  1  0.08986839  0.08543914  0.30305717  1
  Se  Se206  1  0.08127380  0.08011273  0.80090605  1
  Se  Se207  1  0.09630801  0.42142611  0.31236700  1
  Se  Se208  1  0.08812362  0.40697458  0.80677324  1
  Se  Se209  1  0.08883730  0.75902721  0.31607532  1
  Se  Se210  1  0.09033525  0.75481172  0.81085038  1
  Se  Se211  1  0.41979409  0.08390142  0.29791669  1
  Se  Se212  1  0.40735861  0.08751450  0.81142369  1
  Se  Se213  1  0.41523056  0.41933718  0.29967281  1
  Se  Se214  1  0.41987823  0.41406879  0.81300781  1
  Se  Se215  1  0.40864839  0.74672204  0.30468914  1
  Se  Se216  1  0.40889772  0.73412578  0.79248806  1
  Se  Se217  1  0.75543685  0.09110212  0.31468065  1
  Se  Se218  1  0.74609111  0.08211546  0.80428748  1
  Se  Se219  1  0.74417266  0.40862078  0.29881494  1
  Se  Se220  1  0.74813956  0.41479359  0.80664099  1
  Se  Se221  1  0.74977780  0.75199630  0.30308691  1
  Se  Se222  1  0.75830516  0.75402131  0.79871056  1
  Se  Se223  1  0.26629691  0.07394497  0.19037470  1
  Se  Se224  1  0.25522732  0.08111297  0.69818061  1
  Se  Se225  1  0.25317747  0.41530684  0.18796823  1
  Se  Se226  1  0.24234443  0.41733269  0.68518652  1
  Se  Se227  1  0.24484653  0.75220713  0.19941774  1
  Se  Se228  1  0.24601487  0.74489024  0.69851368  1
  Se  Se229  1  0.57732966  0.09066406  0.18762047  1
  Se  Se230  1  0.57847715  0.08470628  0.70734194  1
  Se  Se231  1  0.58422183  0.41501957  0.19244269  1
  Se  Se232  1  0.58499525  0.41095582  0.69945903  1
  Se  Se233  1  0.56812691  0.75972766  0.18808915  1
  Se  Se234  1  0.58145886  0.75099099  0.70202931  1
  Se  Se235  1  0.91714106  0.07724395  0.20206573  1
  Se  Se236  1  0.91439097  0.08809197  0.69776180  1
  Se  Se237  1  0.91743389  0.41207130  0.19229351  1
  Se  Se238  1  0.91883718  0.41754908  0.70376887  1
  Se  Se239  1  0.91246464  0.75143178  0.19063134  1
  Se  Se240  1  0.92284028  0.76360045  0.68125300  1
  Se  Se241  1  0.09434051  0.24382930  0.18459003  1
  Se  Se242  1  0.08797959  0.25103051  0.69621026  1
  Se  Se243  1  0.08588954  0.57272692  0.19020692  1
  Se  Se244  1  0.09109150  0.57522375  0.69867604  1
  Se  Se245  1  0.07974745  0.91871933  0.19720823  1
  Se  Se246  1  0.08210468  0.92182138  0.69323277  1
  Se  Se247  1  0.41326334  0.25395850  0.19017930  1
  Se  Se248  1  0.42186112  0.24070438  0.68501374  1
  Se  Se249  1  0.41106692  0.58782244  0.19399451  1
  Se  Se250  1  0.41668536  0.57024835  0.69659341  1
  Se  Se251  1  0.41116352  0.92358434  0.20053946  1
  Se  Se252  1  0.41493317  0.90938616  0.70620458  1
  Se  Se253  1  0.75152498  0.24888019  0.19922101  1
  Se  Se254  1  0.74560708  0.25475241  0.70779188  1
  Se  Se255  1  0.75093166  0.56977895  0.17796627  1
  Se  Se256  1  0.75430296  0.58552029  0.70225798  1
  Se  Se257  1  0.75092885  0.91074956  0.19126217  1
  Se  Se258  1  0.74665471  0.92113441  0.69715247  1
