# generated using pymatgen
data_In86Cu29Se144
_symmetry_space_group_name_H-M   'P 1'
_cell_length_a   17.70687786
_cell_length_b   17.71299454
_cell_length_c   23.54232287
_cell_angle_alpha   89.99451600
_cell_angle_beta   89.93771110
_cell_angle_gamma   89.99652280
_symmetry_Int_Tables_number   1
_chemical_formula_structural   In86Cu29Se144
_chemical_formula_sum   'In86 Cu29 Se144'
_cell_volume   7383.85283841
_cell_formula_units_Z   1
loop_
 _symmetry_equiv_pos_site_id
 _symmetry_equiv_pos_as_xyz
  1  'x, y, z'
loop_
 _atom_site_type_symbol
 _atom_site_label
 _atom_site_symmetry_multiplicity
 _atom_site_fract_x
 _atom_site_fract_y
 _atom_site_fract_z
 _atom_site_occupancy
  In  In0  1  -0.01882472  0.16680505  0.12325513  1
  In  In1  1  0.00635024  0.15971233  0.63676980  1
  In  In2  1  0.00263921  0.50792083  0.12417181  1
  In  In3  1  -0.01123571  0.50602511  0.63086641  1
  In  In4  1  -0.01333533  0.82667930  0.11612613  1
  In  In5  1  -0.00423189  0.83296239  0.63621169  1
  In  In6  1  0.35173756  0.15826562  0.10958397  1
  In  In7  1  0.34443068  0.17203953  0.62414585  1
  In  In8  1  0.34882508  0.50670368  0.11915096  1
  In  In9  1  0.33312163  0.50329389  0.62975850  1
  In  In10  1  0.33200116  0.83303696  0.11375965  1
  In  In11  1  0.33216529  0.82977816  0.63016238  1
  In  In12  1  0.67069754  0.17725157  0.12729144  1
  In  In13  1  0.65566889  0.16901141  0.64068313  1
  In  In14  1  0.66603756  0.49618628  0.11840073  1
  In  In15  1  0.67049611  0.49214551  0.63060514  1
  In  In16  1  0.66373935  0.84098500  0.10799248  1
  In  In17  1  0.65622807  0.84101587  0.64380190  1
  In  In18  1  0.17847109  0.00131458  0.38119708  1
  In  In19  1  0.15687277  -0.00524301  0.87518670  1
  In  In20  1  0.15923100  0.33695343  0.38409910  1
  In  In21  1  0.16847818  0.33550274  0.86279168  1
  In  In22  1  0.17137345  0.67188387  0.36537418  1
  In  In23  1  0.17737046  0.67709214  0.86914334  1
  In  In24  1  0.50878891  0.00338682  0.36978103  1
  In  In25  1  0.51153832  -0.00487316  0.88791289  1
  In  In26  1  0.50054711  0.31667138  0.37065239  1
  In  In27  1  0.50022613  0.32998937  0.87808380  1
  In  In28  1  0.49492064  0.67480956  0.36952024  1
  In  In29  1  0.49705293  0.66188366  0.87281940  1
  In  In30  1  0.82286662  0.01234602  0.36847736  1
  In  In31  1  0.82965303  -0.00469078  0.88373099  1
  In  In32  1  0.83467371  0.34397208  0.37691103  1
  In  In33  1  0.83436788  0.33705309  0.87719863  1
  In  In34  1  0.83335908  0.65460168  0.37356868  1
  In  In35  1  0.83269600  0.66289032  0.87751181  1
  In  In36  1  -0.00134874  0.17798145  0.38389937  1
  In  In37  1  -0.00380346  0.15888459  0.86908368  1
  In  In38  1  -0.00892471  0.50034402  0.37715891  1
  In  In39  1  -0.00991961  0.49067159  0.86643512  1
  In  In40  1  0.01062736  0.83426222  0.36871098  1
  In  In41  1  -0.00333444  0.82807889  0.87816558  1
  In  In42  1  0.34029479  0.16513682  0.38386818  1
  In  In43  1  0.34201511  0.17677745  0.87656193  1
  In  In44  1  0.32875937  0.50421690  0.37250144  1
  In  In45  1  0.33610381  0.50242261  0.86868253  1
  In  In46  1  0.34061507  0.83668219  0.36691401  1
  In  In47  1  0.35417115  0.82364638  0.89529773  1
  In  In48  1  0.65808390  0.16262737  0.36553153  1
  In  In49  1  0.66504133  0.16891134  0.87766561  1
  In  In50  1  0.68075300  0.49946419  0.37994508  1
  In  In51  1  0.66460837  0.49793553  0.87427902  1
  In  In52  1  0.65358952  0.84310096  0.36711638  1
  In  In53  1  0.66867138  0.83350797  0.88362097  1
  In  In54  1  0.17951677  -0.00218222  0.11840454  1
  In  In55  1  0.15740852  0.00185121  0.63143364  1
  In  In56  1  0.16230134  0.33268986  0.12469825  1
  In  In57  1  0.18041707  0.32281069  0.63457402  1
  In  In58  1  0.16120978  0.67683584  0.12840787  1
  In  In59  1  0.16939897  0.66066905  0.63097098  1
  In  In60  1  0.54349419  0.03421954  0.06451300  1
  In  In61  1  0.49486294  0.01079924  0.63447748  1
  In  In62  1  0.50882172  0.35176750  0.11235937  1
  In  In63  1  0.50996625  0.31748709  0.63947025  1
  In  In64  1  0.49961152  0.66403173  0.11718346  1
  In  In65  1  0.49898586  0.67317684  0.63734348  1
  In  In66  1  0.80155770  -0.01205938  0.09711395  1
  In  In67  1  0.82824399  0.00550588  0.63943105  1
  In  In68  1  0.82156035  0.31311847  0.10715677  1
  In  In69  1  0.81974988  0.33966169  0.63494834  1
  In  In70  1  0.83778327  0.67148813  0.11852610  1
  In  In71  1  0.83812804  0.66187943  0.62909636  1
  In  In72  1  0.83066596  0.17421921  0.50718141  1
  In  In73  1  0.50144530  0.49851744  0.50099686  1
  In  In74  1  0.66800126  0.66606570  0.25265435  1
  In  In75  1  -0.00530301  0.33671057  0.25062869  1
  In  In76  1  -0.00311611  -0.00134741  0.24767704  1
  In  In77  1  0.16575621  0.49905059  -0.01084001  1
  In  In78  1  0.16572531  0.49782175  0.51025775  1
  In  In79  1  0.49923561  0.83404760  0.50485667  1
  In  In80  1  0.33992537  -0.00741327  0.76302992  1
  In  In81  1  0.33552791  0.33436379  0.24595104  1
  In  In82  1  0.16118282  0.16903764  -0.00448983  1
  In  In83  1  0.83205604  0.82929140  0.50165893  1
  In  In84  1  0.34341535  -0.00356241  0.23390397  1
  In  In85  1  0.17159202  0.83100191  0.49932485  1
  Cu  Cu86  1  0.82887026  0.50243561  0.75320557  1
  Cu  Cu87  1  -0.00124810  -0.00135519  -0.00532293  1
  Cu  Cu88  1  0.50069466  0.49712875  0.75275874  1
  Cu  Cu89  1  0.16828044  0.51148749  0.24725394  1
  Cu  Cu90  1  0.00423059  0.32873604  0.50464093  1
  Cu  Cu91  1  0.16888333  0.16483033  0.25687320  1
  Cu  Cu92  1  0.83387245  0.83064114  0.76033397  1
  Cu  Cu93  1  0.82561404  0.83670676  0.23463727  1
  Cu  Cu94  1  0.33195039  0.66146281  -0.00552322  1
  Cu  Cu95  1  0.00058614  0.66208274  0.50333680  1
  Cu  Cu96  1  0.67177138  0.66366225  0.50167925  1
  Cu  Cu97  1  0.50259158  0.50217140  0.24100884  1
  Cu  Cu98  1  0.00048392  0.00751886  0.51136152  1
  Cu  Cu99  1  0.83464092  0.49793770  0.25167972  1
  Cu  Cu100  1  0.34118825  0.32738366  0.50764603  1
  Cu  Cu101  1  0.50047772  0.83169121  0.24473142  1
  Cu  Cu102  1  0.66185920  0.00832129  0.49742225  1
  Cu  Cu103  1  0.82101106  0.16454561  0.24404805  1
  Cu  Cu104  1  0.16280008  0.83338454  0.75266217  1
  Cu  Cu105  1  0.66342419  0.65982000  -0.00378857  1
  Cu  Cu106  1  -0.00113545  0.66088951  -0.00285595  1
  Cu  Cu107  1  0.82908006  0.16561481  0.75968196  1
  Cu  Cu108  1  0.15830275  0.50429887  0.74911340  1
  Cu  Cu109  1  0.33516766  0.01022923  0.50388209  1
  Cu  Cu110  1  0.16682255  0.82827205  0.24231568  1
  Cu  Cu111  1  0.50731200  0.16370960  0.23741058  1
  Cu  Cu112  1  0.17282951  0.16115947  0.75508035  1
  Cu  Cu113  1  0.66632352  0.33154490  0.50977016  1
  Cu  Cu114  1  0.66705069  0.33844435  -0.00575546  1
  Se  Se115  1  0.07395135  0.07794167  0.06037387  1
  Se  Se116  1  0.08651969  0.08847520  0.55918798  1
  Se  Se117  1  0.07855976  0.41255297  0.05521614  1
  Se  Se118  1  0.07776906  0.40820989  0.56886641  1
  Se  Se119  1  0.07752505  0.74483880  0.05381650  1
  Se  Se120  1  0.07678274  0.74680674  0.56061297  1
  Se  Se121  1  0.39527656  0.04398146  0.05159140  1
  Se  Se122  1  0.42418801  0.08546115  0.55618822  1
  Se  Se123  1  0.40340904  0.40954013  0.05096111  1
  Se  Se124  1  0.41824790  0.40964138  0.56583813  1
  Se  Se125  1  0.41462462  0.74366636  0.04971100  1
  Se  Se126  1  0.40991184  0.74112343  0.55850210  1
  Se  Se127  1  0.77995657  0.12282340  0.06244670  1
  Se  Se128  1  0.74344751  0.07920373  0.56230488  1
  Se  Se129  1  0.75225165  0.41816358  0.05010634  1
  Se  Se130  1  0.75161947  0.41721635  0.55547492  1
  Se  Se131  1  0.74495296  0.74251194  0.05233332  1
  Se  Se132  1  0.73925097  0.75050550  0.56492081  1
  Se  Se133  1  0.25374652  0.25245406  0.05958667  1
  Se  Se134  1  0.25227763  0.24667671  0.55692603  1
  Se  Se135  1  0.24831103  0.58746618  0.05723796  1
  Se  Se136  1  0.26070158  0.59381588  0.55499509  1
  Se  Se137  1  0.23335274  0.90142458  0.04986018  1
  Se  Se138  1  0.25700793  0.92599284  0.56059782  1
  Se  Se139  1  0.58898315  0.25659571  0.05455216  1
  Se  Se140  1  0.58667557  0.24584555  0.56129920  1
  Se  Se141  1  0.58127023  0.57781580  0.05217242  1
  Se  Se142  1  0.58653532  0.59053225  0.56226909  1
  Se  Se143  1  0.56723995  0.89410998  0.03729903  1
  Se  Se144  1  0.59003428  0.92434650  0.56027065  1
  Se  Se145  1  0.94141860  0.26892081  0.05375414  1
  Se  Se146  1  0.92260214  0.25612582  0.56880855  1
  Se  Se147  1  0.91700486  0.58170416  0.05368104  1
  Se  Se148  1  0.91383393  0.58253765  0.55383557  1
  Se  Se149  1  0.91389971  0.91792004  0.04913692  1
  Se  Se150  1  0.91736602  0.92381164  0.56316650  1
  Se  Se151  1  0.08832024  0.24758157  0.45327427  1
  Se  Se152  1  0.07815409  0.25738220  0.93331372  1
  Se  Se153  1  0.08494417  0.58949277  0.44073864  1
  Se  Se154  1  0.07802863  0.59032628  0.93170904  1
  Se  Se155  1  0.07469253  0.92647224  0.44609835  1
  Se  Se156  1  0.08118721  0.91205385  0.94663463  1
  Se  Se157  1  0.42325992  0.24945095  0.44929570  1
  Se  Se158  1  0.42228659  0.24700131  0.95023649  1
  Se  Se159  1  0.41309111  0.59076017  0.44110678  1
  Se  Se160  1  0.41482675  0.57810074  0.94330172  1
  Se  Se161  1  0.41092200  0.92801401  0.44099930  1
  Se  Se162  1  0.39923822  0.94304860  0.94986698  1
  Se  Se163  1  0.74181497  0.25461082  0.44026365  1
  Se  Se164  1  0.75017067  0.25297514  0.94432231  1
  Se  Se165  1  0.75681225  0.58249486  0.45066476  1
  Se  Se166  1  0.74933236  0.57810934  0.94452117  1
  Se  Se167  1  0.74110939  0.92420818  0.44019650  1
  Se  Se168  1  0.74743662  0.91694648  0.95377884  1
  Se  Se169  1  0.24923208  0.08954253  0.45004992  1
  Se  Se170  1  0.24957467  0.08281650  0.93527327  1
  Se  Se171  1  0.26279508  0.41034195  0.44796362  1
  Se  Se172  1  0.25717210  0.40614637  0.93731739  1
  Se  Se173  1  0.26258108  0.74637468  0.43818347  1
  Se  Se174  1  0.24731666  0.74993110  0.94906462  1
  Se  Se175  1  0.58075258  0.08823640  0.44189432  1
  Se  Se176  1  0.59055415  0.08470791  0.95349504  1
  Se  Se177  1  0.58968894  0.40631134  0.44141721  1
  Se  Se178  1  0.58012339  0.41991213  0.94497822  1
  Se  Se179  1  0.59318012  0.74367857  0.44079833  1
  Se  Se180  1  0.58089749  0.74169441  0.94343227  1
  Se  Se181  1  0.91746705  0.07689159  0.44496359  1
  Se  Se182  1  0.91803944  0.08521712  0.94491767  1
  Se  Se183  1  0.92355968  0.41148468  0.44885000  1
  Se  Se184  1  0.91618989  0.42244509  0.94414167  1
  Se  Se185  1  0.92769575  0.74530272  0.43963399  1
  Se  Se186  1  0.91388670  0.74648548  0.94747675  1
  Se  Se187  1  0.24601828  0.24993474  0.31379563  1
  Se  Se188  1  0.25577805  0.24701690  0.80316854  1
  Se  Se189  1  0.25639202  0.58743485  0.30054371  1
  Se  Se190  1  0.24660589  0.58163099  0.80283558  1
  Se  Se191  1  0.24381191  0.91575305  0.30067823  1
  Se  Se192  1  0.24645522  0.90186029  0.81602886  1
  Se  Se193  1  0.58323556  0.24935760  0.29513028  1
  Se  Se194  1  0.58729306  0.25451148  0.80880092  1
  Se  Se195  1  0.57848152  0.57319887  0.31205157  1
  Se  Se196  1  0.58334286  0.58109705  0.80467137  1
  Se  Se197  1  0.57919820  0.92244778  0.29408790  1
  Se  Se198  1  0.58217984  0.91371752  0.81585174  1
  Se  Se199  1  0.90377434  0.23916679  0.30819356  1
  Se  Se200  1  0.91492237  0.25084616  0.80724647  1
  Se  Se201  1  0.91914856  0.58184642  0.30246074  1
  Se  Se202  1  0.91442871  0.58560115  0.80331886  1
  Se  Se203  1  0.90348440  0.90847414  0.30786961  1
  Se  Se204  1  0.91459357  0.91604532  0.81278916  1
  Se  Se205  1  0.08557486  0.08756395  0.31452929  1
  Se  Se206  1  0.08485361  0.07822748  0.80234489  1
  Se  Se207  1  0.09254772  0.42744583  0.30837890  1
  Se  Se208  1  0.07978967  0.41556907  0.79848082  1
  Se  Se209  1  0.08302184  0.74929949  0.29824347  1
  Se  Se210  1  0.08027652  0.74980347  0.80595790  1
  Se  Se211  1  0.42093796  0.09302777  0.30182758  1
  Se  Se212  1  0.42990698  0.08597168  0.81486383  1
  Se  Se213  1  0.42661353  0.42369975  0.30764403  1
  Se  Se214  1  0.41892383  0.41338568  0.80598459  1
  Se  Se215  1  0.41549992  0.75113598  0.29703487  1
  Se  Se216  1  0.40664404  0.74663388  0.81184869  1
  Se  Se217  1  0.73812338  0.07892451  0.29505114  1
  Se  Se218  1  0.75111501  0.08110312  0.81383985  1
  Se  Se219  1  0.75010707  0.41661770  0.30492015  1
  Se  Se220  1  0.75009041  0.41593548  0.80658085  1
  Se  Se221  1  0.75830714  0.76089870  0.31009905  1
  Se  Se222  1  0.74916830  0.74941218  0.81256009  1
  Se  Se223  1  0.24819106  0.09708918  0.18852623  1
  Se  Se224  1  0.25399805  0.08065729  0.69491316  1
  Se  Se225  1  0.24380328  0.42699913  0.18867265  1
  Se  Se226  1  0.24649092  0.42462297  0.69605336  1
  Se  Se227  1  0.25684358  0.75259684  0.19060980  1
  Se  Se228  1  0.24530777  0.75214872  0.69598508  1
  Se  Se229  1  0.57388793  0.08045251  0.16987611  1
  Se  Se230  1  0.59965053  0.05949512  0.69935293  1
  Se  Se231  1  0.58608334  0.41825555  0.19220697  1
  Se  Se232  1  0.58541680  0.41479437  0.69929421  1
  Se  Se233  1  0.58476474  0.75191047  0.18768194  1
  Se  Se234  1  0.58565956  0.74521630  0.70503936  1
  Se  Se235  1  0.90011791  0.07851777  0.18887202  1
  Se  Se236  1  0.91515613  0.08601543  0.70373951  1
  Se  Se237  1  0.90913711  0.42030801  0.18662139  1
  Se  Se238  1  0.91155496  0.41861037  0.69824324  1
  Se  Se239  1  0.91382052  0.74953168  0.19384253  1
  Se  Se240  1  0.91191070  0.74924832  0.69975430  1
  Se  Se241  1  0.08560835  0.24003427  0.19556113  1
  Se  Se242  1  0.09023919  0.24581218  0.70055157  1
  Se  Se243  1  0.08096823  0.58872050  0.19492557  1
  Se  Se244  1  0.07685251  0.58749272  0.69532479  1
  Se  Se245  1  0.08673234  0.91237874  0.18613038  1
  Se  Se246  1  0.08078964  0.91731548  0.70009293  1
  Se  Se247  1  0.42346669  0.24709965  0.18354229  1
  Se  Se248  1  0.40831816  0.25183243  0.70102514  1
  Se  Se249  1  0.42041952  0.58819422  0.19351844  1
  Se  Se250  1  0.41790706  0.58075952  0.69819696  1
  Se  Se251  1  0.43124022  0.90928882  0.17725041  1
  Se  Se252  1  0.42520948  0.90483680  0.69573679  1
  Se  Se253  1  0.75116697  0.26322409  0.19653488  1
  Se  Se254  1  0.74800268  0.24793310  0.70215546  1
  Se  Se255  1  0.75523796  0.57823987  0.19114487  1
  Se  Se256  1  0.74909321  0.58324097  0.69468260  1
  Se  Se257  1  0.74120427  0.91769225  0.18362448  1
  Se  Se258  1  0.75373004  0.91453534  0.70460397  1
