# generated using pymatgen
data_In86Cu29Se144
_symmetry_space_group_name_H-M   'P 1'
_cell_length_a   17.58336632
_cell_length_b   17.57977022
_cell_length_c   23.44434274
_cell_angle_alpha   89.97816828
_cell_angle_beta   89.95997594
_cell_angle_gamma   90.00460692
_symmetry_Int_Tables_number   1
_chemical_formula_structural   In86Cu29Se144
_chemical_formula_sum   'In86 Cu29 Se144'
_cell_volume   7246.91455643
_cell_formula_units_Z   1
loop_
 _symmetry_equiv_pos_site_id
 _symmetry_equiv_pos_as_xyz
  1  'x, y, z'
loop_
 _atom_site_type_symbol
 _atom_site_label
 _atom_site_symmetry_multiplicity
 _atom_site_fract_x
 _atom_site_fract_y
 _atom_site_fract_z
 _atom_site_occupancy
  In  In0  1  0.00868157  0.17179385  0.12480130  1
  In  In1  1  -0.01662537  0.18016764  0.63633943  1
  In  In2  1  -0.00889163  0.49115347  0.11715063  1
  In  In3  1  -0.01601799  0.51719145  0.64874755  1
  In  In4  1  -0.00343979  0.84454312  0.11937050  1
  In  In5  1  0.00800218  0.82562083  0.63073173  1
  In  In6  1  0.33595779  0.14670873  0.13055785  1
  In  In7  1  0.33516916  0.16764873  0.63285718  1
  In  In8  1  0.33650562  0.51289915  0.12284292  1
  In  In9  1  0.32611354  0.49304302  0.62562533  1
  In  In10  1  0.34757456  0.82623548  0.12967389  1
  In  In11  1  0.34087544  0.85130248  0.60835711  1
  In  In12  1  0.66288027  0.17135686  0.12506292  1
  In  In13  1  0.66364914  0.15260017  0.62568301  1
  In  In14  1  0.67573126  0.48948580  0.13116395  1
  In  In15  1  0.67274204  0.50695615  0.61598190  1
  In  In16  1  0.66319693  0.83371421  0.12726844  1
  In  In17  1  0.66253632  0.84763213  0.62509482  1
  In  In18  1  0.17385337  -0.01352007  0.38431281  1
  In  In19  1  0.17027289  0.00417060  0.86492034  1
  In  In20  1  0.16055160  0.34707371  0.37469493  1
  In  In21  1  0.16509712  0.34064077  0.86656514  1
  In  In22  1  0.18241244  0.66300985  0.37251510  1
  In  In23  1  0.15163601  0.66080285  0.87125743  1
  In  In24  1  0.49197488  -0.01306124  0.36758646  1
  In  In25  1  0.50015807  -0.00204723  0.87725094  1
  In  In26  1  0.51592142  0.32750372  0.37710172  1
  In  In27  1  0.48916573  0.32322476  0.87517242  1
  In  In28  1  0.50008124  0.66918320  0.37823918  1
  In  In29  1  0.51073142  0.67729315  0.87754225  1
  In  In30  1  0.83377191  0.01235649  0.37642350  1
  In  In31  1  0.82231225  -0.01083097  0.85621446  1
  In  In32  1  0.83299246  0.33261932  0.37490801  1
  In  In33  1  0.84323308  0.33252135  0.87020249  1
  In  In34  1  0.81851991  0.67255740  0.37614141  1
  In  In35  1  0.83664938  0.66358293  0.87930557  1
  In  In36  1  -0.01779737  0.16416173  0.37869071  1
  In  In37  1  -0.00478501  0.17426801  0.85573552  1
  In  In38  1  0.00416434  0.48773501  0.37512698  1
  In  In39  1  -0.00569643  0.50157646  0.87130224  1
  In  In40  1  -0.00113507  0.84117163  0.38467621  1
  In  In41  1  -0.01039876  0.81551137  0.86393735  1
  In  In42  1  0.34798445  0.15877127  0.37654069  1
  In  In43  1  0.34059234  0.16828853  0.87338683  1
  In  In44  1  0.32780684  0.51589030  0.37597590  1
  In  In45  1  0.33167363  0.48098889  0.87008302  1
  In  In46  1  0.34091290  0.83606961  0.37850906  1
  In  In47  1  0.34004679  0.84450894  0.87137561  1
  In  In48  1  0.67399306  0.17525436  0.36693177  1
  In  In49  1  0.67010767  0.12903840  0.87638045  1
  In  In50  1  0.66821052  0.49941051  0.37675932  1
  In  In51  1  0.67325518  0.51075203  0.87758337  1
  In  In52  1  0.65555751  0.82206090  0.36498238  1
  In  In53  1  0.65424562  0.85945168  0.89282471  1
  In  In54  1  0.16917813  0.00999886  0.12720363  1
  In  In55  1  0.17520191  -0.00842092  0.63132321  1
  In  In56  1  0.14957125  0.33084753  0.12596048  1
  In  In57  1  0.15666892  0.35556154  0.64450727  1
  In  In58  1  0.18390620  0.66669053  0.12250340  1
  In  In59  1  0.14218757  0.67419890  0.62847909  1
  In  In60  1  0.50702545  -0.00548831  0.12417912  1
  In  In61  1  0.49696772  -0.00822156  0.62998154  1
  In  In62  1  0.51390615  0.33782641  0.12479347  1
  In  In63  1  0.49036328  0.33419097  0.62648607  1
  In  In64  1  0.49544347  0.67652491  0.13067000  1
  In  In65  1  0.50439391  0.67382890  0.61602352  1
  In  In66  1  0.82398225  -0.01468148  0.11492574  1
  In  In67  1  0.82196501  0.01354731  0.63648579  1
  In  In68  1  0.82738070  0.34017750  0.12813814  1
  In  In69  1  0.84343281  0.34592225  0.62035979  1
  In  In70  1  0.82473436  0.65676229  0.12254493  1
  In  In71  1  0.84618901  0.66046090  0.62314838  1
  In  In72  1  0.33566698  0.33449751  0.25768727  1
  In  In73  1  0.82972529  0.16506219  -0.00699727  1
  In  In74  1  0.16156271  0.51013387  0.50506591  1
  In  In75  1  0.32867489  0.66828750  0.75138401  1
  In  In76  1  0.67420235  0.67671241  0.74369909  1
  In  In77  1  0.50670891  0.16246807  0.50397098  1
  In  In78  1  0.16544015  0.82925657  -0.00525457  1
  In  In79  1  -0.00323053  0.00794811  0.24705591  1
  In  In80  1  0.00213593  0.66461322  0.25198206  1
  In  In81  1  0.17080753  0.16977091  -0.00419330  1
  In  In82  1  0.83175704  0.83336291  0.50363285  1
  In  In83  1  0.50417113  0.50498003  0.00200283  1
  In  In84  1  0.67068494  0.33046936  0.75573224  1
  In  In85  1  0.16803192  0.16535968  0.50954688  1
  Cu  Cu86  1  0.66438081  0.66412225  0.49578378  1
  Cu  Cu87  1  0.50551615  0.50847156  0.25244157  1
  Cu  Cu88  1  0.66479384  -0.00113687  0.49861592  1
  Cu  Cu89  1  0.50083796  0.83450477  0.25086252  1
  Cu  Cu90  1  0.16357839  0.16553420  0.25241754  1
  Cu  Cu91  1  0.17873571  0.83283489  0.25375176  1
  Cu  Cu92  1  -0.00269199  0.00151520  0.50959029  1
  Cu  Cu93  1  0.16768206  0.83343961  0.74924767  1
  Cu  Cu94  1  0.16972054  0.16465762  0.74767554  1
  Cu  Cu95  1  0.49919897  0.49911894  0.74732583  1
  Cu  Cu96  1  0.66976917  0.33192472  0.00133240  1
  Cu  Cu97  1  0.32667502  0.32961093  -0.00373189  1
  Cu  Cu98  1  -0.00580821  -0.00336321  -0.01187872  1
  Cu  Cu99  1  -0.00442322  0.33161048  0.50170728  1
  Cu  Cu100  1  0.33070866  0.66075785  -0.00174683  1
  Cu  Cu101  1  0.83077164  0.17190277  0.24883874  1
  Cu  Cu102  1  -0.00356535  0.66233008  -0.00547800  1
  Cu  Cu103  1  0.16683210  0.49998016  0.24965430  1
  Cu  Cu104  1  -0.00239393  0.34136823  -0.00466039  1
  Cu  Cu105  1  0.50342900  0.16273819  0.24885698  1
  Cu  Cu106  1  0.67404788  0.67362566  0.00390267  1
  Cu  Cu107  1  0.83072134  0.83132426  0.74996452  1
  Cu  Cu108  1  0.49901085  0.15606813  0.75122822  1
  Cu  Cu109  1  0.67661579  0.33626561  0.49661807  1
  Cu  Cu110  1  0.82821276  0.83440986  0.24571613  1
  Cu  Cu111  1  0.34372673  -0.00905310  0.00450468  1
  Cu  Cu112  1  0.33566011  0.67354112  0.49728916  1
  Cu  Cu113  1  0.83087353  0.49454320  0.25019896  1
  Cu  Cu114  1  0.33440745  0.33678314  0.51054914  1
  Se  Se115  1  0.07410784  0.07383632  0.05090930  1
  Se  Se116  1  0.07464577  0.08298350  0.57075702  1
  Se  Se117  1  0.08593273  0.41702849  0.05052711  1
  Se  Se118  1  0.07612697  0.41266075  0.55976815  1
  Se  Se119  1  0.07638418  0.74022776  0.05896951  1
  Se  Se120  1  0.07227671  0.74838677  0.55028478  1
  Se  Se121  1  0.42076027  0.08103207  0.05644253  1
  Se  Se122  1  0.40922878  0.07893633  0.55939708  1
  Se  Se123  1  0.41000674  0.40967352  0.05720970  1
  Se  Se124  1  0.42018257  0.42414810  0.55577485  1
  Se  Se125  1  0.41366926  0.74310915  0.05223369  1
  Se  Se126  1  0.42159198  0.75660719  0.54808140  1
  Se  Se127  1  0.73862560  0.07781854  0.05318713  1
  Se  Se128  1  0.74832903  0.08008066  0.55274882  1
  Se  Se129  1  0.75178713  0.41793959  0.05201903  1
  Se  Se130  1  0.75668068  0.42235315  0.55039011  1
  Se  Se131  1  0.75585882  0.75635439  0.05917017  1
  Se  Se132  1  0.74034881  0.74181427  0.56324573  1
  Se  Se133  1  0.25649711  0.25213422  0.06680328  1
  Se  Se134  1  0.24949064  0.26326548  0.56959631  1
  Se  Se135  1  0.24687634  0.57637709  0.04813376  1
  Se  Se136  1  0.25613245  0.59844122  0.56226142  1
  Se  Se137  1  0.25142599  0.91762103  0.06113178  1
  Se  Se138  1  0.23252152  0.91144167  0.54956046  1
  Se  Se139  1  0.58257762  0.25130805  0.05185412  1
  Se  Se140  1  0.59392989  0.26045536  0.56023532  1
  Se  Se141  1  0.59306054  0.59065811  0.06471904  1
  Se  Se142  1  0.58027432  0.58167875  0.55026984  1
  Se  Se143  1  0.57576346  0.90292332  0.05471328  1
  Se  Se144  1  0.57881959  0.92013477  0.55211864  1
  Se  Se145  1  0.92147606  0.25466494  0.05585864  1
  Se  Se146  1  0.91195639  0.24703660  0.55315124  1
  Se  Se147  1  0.91361498  0.58252754  0.05320524  1
  Se  Se148  1  0.92623438  0.57473103  0.55794698  1
  Se  Se149  1  0.91473497  0.91465698  0.04475012  1
  Se  Se150  1  0.91462853  0.92193518  0.56879678  1
  Se  Se151  1  0.08029199  0.25408006  0.44280626  1
  Se  Se152  1  0.07297810  0.25208876  0.93838780  1
  Se  Se153  1  0.07716171  0.59310842  0.43575855  1
  Se  Se154  1  0.08123992  0.57800451  0.94518415  1
  Se  Se155  1  0.07994156  0.92054132  0.45461233  1
  Se  Se156  1  0.07904053  0.91749261  0.93137401  1
  Se  Se157  1  0.41228047  0.25847401  0.44757119  1
  Se  Se158  1  0.41477361  0.24503433  0.95105821  1
  Se  Se159  1  0.41615229  0.58405714  0.44723596  1
  Se  Se160  1  0.41242604  0.58490347  0.93455105  1
  Se  Se161  1  0.42136361  0.91955357  0.44789950  1
  Se  Se162  1  0.42261222  0.90804078  0.94877442  1
  Se  Se163  1  0.75302572  0.24537932  0.44438891  1
  Se  Se164  1  0.73905950  0.25365073  0.93202452  1
  Se  Se165  1  0.75229377  0.58159866  0.44739815  1
  Se  Se166  1  0.75187545  0.58521480  0.95137825  1
  Se  Se167  1  0.74376597  0.91738893  0.43671919  1
  Se  Se168  1  0.76226344  0.92899178  0.94525453  1
  Se  Se169  1  0.26013562  0.08002973  0.44749267  1
  Se  Se170  1  0.25947200  0.06948695  0.94509455  1
  Se  Se171  1  0.25553499  0.41442957  0.44652121  1
  Se  Se172  1  0.24511509  0.41319997  0.94436255  1
  Se  Se173  1  0.24931378  0.75269807  0.44331270  1
  Se  Se174  1  0.25648068  0.74103334  0.93358016  1
  Se  Se175  1  0.58933287  0.07958890  0.43416341  1
  Se  Se176  1  0.56848364  0.09194458  0.94734613  1
  Se  Se177  1  0.58523470  0.41600624  0.44773586  1
  Se  Se178  1  0.58770458  0.41127530  0.93848791  1
  Se  Se179  1  0.58379363  0.75409786  0.44692933  1
  Se  Se180  1  0.58570179  0.75317777  0.95241221  1
  Se  Se181  1  0.91347560  0.08147593  0.45410265  1
  Se  Se182  1  0.92169341  0.08295287  0.92950294  1
  Se  Se183  1  0.91644119  0.41554757  0.44498584  1
  Se  Se184  1  0.90991800  0.42027195  0.94379873  1
  Se  Se185  1  0.92026297  0.74087338  0.44401412  1
  Se  Se186  1  0.91588966  0.75317809  0.94747665  1
  Se  Se187  1  0.24319798  0.24237960  0.31669458  1
  Se  Se188  1  0.24886913  0.24564238  0.80828681  1
  Se  Se189  1  0.25412949  0.58520633  0.29539899  1
  Se  Se190  1  0.24316876  0.57205345  0.80804084  1
  Se  Se191  1  0.25598814  0.91957187  0.30785272  1
  Se  Se192  1  0.25290335  0.91609170  0.80056369  1
  Se  Se193  1  0.58451238  0.25170260  0.29839153  1
  Se  Se194  1  0.58019175  0.23651775  0.81186924  1
  Se  Se195  1  0.58708200  0.58792682  0.31011048  1
  Se  Se196  1  0.57926931  0.58094841  0.80447348  1
  Se  Se197  1  0.58810792  0.92057209  0.29934495  1
  Se  Se198  1  0.58762456  0.92030824  0.80805745  1
  Se  Se199  1  0.91693571  0.24983855  0.30373668  1
  Se  Se200  1  0.90254368  0.24945191  0.79188849  1
  Se  Se201  1  0.90910356  0.57705749  0.31124430  1
  Se  Se202  1  0.92467417  0.59951005  0.80567801  1
  Se  Se203  1  0.91046226  0.91135841  0.30720041  1
  Se  Se204  1  0.92260904  0.91361239  0.79745526  1
  Se  Se205  1  0.08699077  0.08516456  0.31705017  1
  Se  Se206  1  0.08264020  0.08211170  0.79835241  1
  Se  Se207  1  0.08101148  0.41482558  0.29717035  1
  Se  Se208  1  0.06373172  0.40466031  0.80490191  1
  Se  Se209  1  0.08791961  0.76115725  0.31154132  1
  Se  Se210  1  0.08352810  0.74390868  0.79595043  1
  Se  Se211  1  0.41708031  0.08084283  0.29976078  1
  Se  Se212  1  0.41313467  0.07647537  0.80606855  1
  Se  Se213  1  0.42632025  0.42651796  0.31492420  1
  Se  Se214  1  0.42249106  0.41072847  0.80057922  1
  Se  Se215  1  0.41848872  0.75122559  0.30707170  1
  Se  Se216  1  0.42779539  0.75683761  0.80468388  1
  Se  Se217  1  0.75225549  0.08270806  0.30101440  1
  Se  Se218  1  0.76407243  0.09868610  0.79685092  1
  Se  Se219  1  0.74744576  0.41357060  0.30646713  1
  Se  Se220  1  0.75806063  0.43147453  0.80682660  1
  Se  Se221  1  0.74803985  0.74698085  0.29771388  1
  Se  Se222  1  0.74964494  0.75989996  0.81691571  1
  Se  Se223  1  0.24803174  0.07953076  0.20434517  1
  Se  Se224  1  0.25454699  0.07996193  0.69823784  1
  Se  Se225  1  0.24825147  0.41803484  0.18916063  1
  Se  Se226  1  0.26739706  0.41019752  0.70384338  1
  Se  Se227  1  0.25555619  0.74861175  0.19639049  1
  Se  Se228  1  0.24582765  0.75590319  0.68514853  1
  Se  Se229  1  0.58637562  0.08226074  0.19316377  1
  Se  Se230  1  0.58263324  0.07525194  0.69684769  1
  Se  Se231  1  0.58315900  0.41826192  0.20065163  1
  Se  Se232  1  0.58518881  0.42230427  0.68927737  1
  Se  Se233  1  0.58531902  0.74921349  0.19955274  1
  Se  Se234  1  0.57243808  0.76191708  0.69264899  1
  Se  Se235  1  0.90483657  0.09085323  0.18267753  1
  Se  Se236  1  0.92007768  0.07881206  0.70083565  1
  Se  Se237  1  0.91847155  0.41598678  0.19580785  1
  Se  Se238  1  0.92492333  0.40372291  0.70199341  1
  Se  Se239  1  0.91542717  0.75656934  0.18968378  1
  Se  Se240  1  0.91381504  0.74839622  0.69610576  1
  Se  Se241  1  0.07914228  0.24946282  0.20245859  1
  Se  Se242  1  0.08444980  0.24991516  0.69917093  1
  Se  Se243  1  0.08874117  0.57900417  0.18588965  1
  Se  Se244  1  0.11306547  0.55709079  0.69024327  1
  Se  Se245  1  0.09248908  0.90959929  0.19413572  1
  Se  Se246  1  0.08194165  0.91710769  0.69812923  1
  Se  Se247  1  0.42123544  0.24769611  0.19116776  1
  Se  Se248  1  0.42200158  0.24794660  0.70013233  1
  Se  Se249  1  0.41778538  0.58415529  0.19709968  1
  Se  Se250  1  0.42361216  0.58321103  0.68815190  1
  Se  Se251  1  0.41860598  0.91933927  0.19645294  1
  Se  Se252  1  0.40431771  0.91505609  0.69429531  1
  Se  Se253  1  0.74614931  0.25344510  0.19399969  1
  Se  Se254  1  0.74944585  0.25247918  0.68159043  1
  Se  Se255  1  0.74894006  0.58207047  0.19941969  1
  Se  Se256  1  0.75967056  0.57446005  0.69401100  1
  Se  Se257  1  0.74681162  0.92141846  0.19541370  1
  Se  Se258  1  0.74562977  0.91658403  0.69974245  1
