# generated using pymatgen
data_In86Cu29Se144
_symmetry_space_group_name_H-M   'P 1'
_cell_length_a   17.62454777
_cell_length_b   17.61680557
_cell_length_c   23.49080569
_cell_angle_alpha   90.01662185
_cell_angle_beta   90.02135250
_cell_angle_gamma   89.97353591
_symmetry_Int_Tables_number   1
_chemical_formula_structural   In86Cu29Se144
_chemical_formula_sum   'In86 Cu29 Se144'
_cell_volume   7293.61712035
_cell_formula_units_Z   1
loop_
 _symmetry_equiv_pos_site_id
 _symmetry_equiv_pos_as_xyz
  1  'x, y, z'
loop_
 _atom_site_type_symbol
 _atom_site_label
 _atom_site_symmetry_multiplicity
 _atom_site_fract_x
 _atom_site_fract_y
 _atom_site_fract_z
 _atom_site_occupancy
  In  In0  1  -0.00236542  0.16598533  0.11571218  1
  In  In1  1  -0.00895313  0.16792173  0.63201324  1
  In  In2  1  0.01562455  0.51527347  0.11863768  1
  In  In3  1  0.01365936  0.50239745  0.62549517  1
  In  In4  1  -0.00504836  0.82364031  0.11815098  1
  In  In5  1  0.01261506  0.81897932  0.63907126  1
  In  In6  1  0.34497017  0.17860337  0.11548745  1
  In  In7  1  0.32264003  0.16225867  0.62744039  1
  In  In8  1  0.33375410  0.49910564  0.12805435  1
  In  In9  1  0.34580285  0.51428374  0.60724514  1
  In  In10  1  0.32359324  0.83249862  0.12507283  1
  In  In11  1  0.32304716  0.83771255  0.62992972  1
  In  In12  1  0.67352992  0.17577183  0.11971839  1
  In  In13  1  0.68230693  0.16670502  0.62679539  1
  In  In14  1  0.66326850  0.50353976  0.12037055  1
  In  In15  1  0.65264675  0.49417743  0.62296359  1
  In  In16  1  0.66190958  0.79247512  0.11583494  1
  In  In17  1  0.66345133  0.83220268  0.62018947  1
  In  In18  1  0.15788300  -0.00858641  0.37520801  1
  In  In19  1  0.16751450  -0.00094460  0.87240028  1
  In  In20  1  0.19012588  0.35268098  0.36067516  1
  In  In21  1  0.16477283  0.33746368  0.88704336  1
  In  In22  1  0.14735306  0.66956695  0.38464497  1
  In  In23  1  0.16800265  0.66767770  0.87839421  1
  In  In24  1  0.49043559  0.00071137  0.38128246  1
  In  In25  1  0.49997154  0.01036765  0.87613856  1
  In  In26  1  0.50044775  0.34345731  0.36800919  1
  In  In27  1  0.50777146  0.32975483  0.87686286  1
  In  In28  1  0.51676632  0.66160566  0.36302735  1
  In  In29  1  0.48838955  0.66878180  0.87834821  1
  In  In30  1  0.84340753  0.00530369  0.37855376  1
  In  In31  1  0.84604200  -0.00932766  0.88345180  1
  In  In32  1  0.81155166  0.33183949  0.37495353  1
  In  In33  1  0.82307110  0.34202733  0.88322945  1
  In  In34  1  0.82707439  0.66035197  0.36177898  1
  In  In35  1  0.84430188  0.65321122  0.88928086  1
  In  In36  1  -0.00019741  0.15815725  0.37784746  1
  In  In37  1  0.01006947  0.16018958  0.88167737  1
  In  In38  1  -0.00121627  0.51187999  0.36835969  1
  In  In39  1  -0.00384954  0.50510644  0.88193500  1
  In  In40  1  0.00709473  0.83297093  0.37686512  1
  In  In41  1  0.00366971  0.83386400  0.87510059  1
  In  In42  1  0.32690292  0.17106084  0.37054732  1
  In  In43  1  0.34065069  0.16326281  0.87776720  1
  In  In44  1  0.33462280  0.50415720  0.38563324  1
  In  In45  1  0.32484907  0.50882573  0.88257408  1
  In  In46  1  0.33323415  0.70511492  0.37309339  1
  In  In47  1  0.32120541  0.82033654  0.87034713  1
  In  In48  1  0.66344459  0.20419961  0.37863324  1
  In  In49  1  0.65485872  0.17461083  0.88381111  1
  In  In50  1  0.66556528  0.48868908  0.36482607  1
  In  In51  1  0.67546900  0.49665321  0.88523149  1
  In  In52  1  0.65910643  0.82699610  0.36312496  1
  In  In53  1  0.67069220  0.83713114  0.88152876  1
  In  In54  1  0.16227280  -0.00557234  0.11445281  1
  In  In55  1  0.17425860  -0.00936241  0.63898561  1
  In  In56  1  0.18293071  0.34781341  0.11505904  1
  In  In57  1  0.17248901  0.34554203  0.61732877  1
  In  In58  1  0.16945723  0.66455938  0.12804042  1
  In  In59  1  0.16761793  0.66396917  0.62519611  1
  In  In60  1  0.48893622  0.00072561  0.11819496  1
  In  In61  1  0.49586123  -0.01217616  0.62713164  1
  In  In62  1  0.49926747  0.33790040  0.12553884  1
  In  In63  1  0.50066604  0.35061949  0.62210336  1
  In  In64  1  0.51493588  0.65190206  0.14224639  1
  In  In65  1  0.49748666  0.65024079  0.61935396  1
  In  In66  1  0.83482338  -0.00082547  0.11725160  1
  In  In67  1  0.83495057  0.00839141  0.63440513  1
  In  In68  1  0.82373686  0.32920117  0.12176834  1
  In  In69  1  0.83687789  0.32181030  0.62639648  1
  In  In70  1  0.83804465  0.66578573  0.11883376  1
  In  In71  1  0.83096481  0.67671408  0.62944907  1
  In  In72  1  0.33501968  0.33358618  0.74524108  1
  In  In73  1  0.83582799  0.83568302  0.50530964  1
  In  In74  1  -0.00013179  0.33552560  0.75098245  1
  In  In75  1  0.66321125  0.66504840  0.74927937  1
  In  In76  1  0.49731008  0.83115648  0.00227809  1
  In  In77  1  0.16085353  0.17533750  0.50391797  1
  In  In78  1  0.32264767  -0.00654493  0.24890308  1
  In  In79  1  0.00415520  0.34049349  0.24886438  1
  In  In80  1  0.50374407  0.17059471  0.49660862  1
  In  In81  1  0.48503910  0.82466372  0.48513075  1
  In  In82  1  0.83159988  0.49373031  0.49470671  1
  In  In83  1  0.66816174  0.00143380  0.76005549  1
  In  In84  1  -0.00039786  -0.00426227  0.24936779  1
  In  In85  1  0.67600248  0.00478893  0.24519522  1
  Cu  Cu86  1  0.67171113  0.00118732  0.49869528  1
  Cu  Cu87  1  0.00657429  0.00373630  -0.00538730  1
  Cu  Cu88  1  0.50200435  0.16578885  0.75498333  1
  Cu  Cu89  1  -0.00065510  0.00102885  0.50527777  1
  Cu  Cu90  1  0.83681995  0.82961518  0.75690821  1
  Cu  Cu91  1  0.16557161  0.16565742  0.75417531  1
  Cu  Cu92  1  0.33863238  0.33523653  -0.00001524  1
  Cu  Cu93  1  0.17314455  0.17469349  0.24048150  1
  Cu  Cu94  1  0.49512656  0.50121245  0.74756775  1
  Cu  Cu95  1  0.83449084  0.16887218  0.75482950  1
  Cu  Cu96  1  0.83206351  0.50037303  0.76073215  1
  Cu  Cu97  1  0.65906586  0.33602861  0.00325582  1
  Cu  Cu98  1  0.00034005  0.32860484  0.49654348  1
  Cu  Cu99  1  0.66990871  0.00117192  0.00052091  1
  Cu  Cu100  1  0.83491568  0.50239290  0.24127366  1
  Cu  Cu101  1  0.00872132  0.66860619  0.00015739  1
  Cu  Cu102  1  0.16708598  0.82128836  0.25406409  1
  Cu  Cu103  1  0.32609338  -0.00440428  0.50410918  1
  Cu  Cu104  1  0.33305897  0.66245616  0.00367741  1
  Cu  Cu105  1  0.32813072  0.00291157  -0.00352595  1
  Cu  Cu106  1  0.83135955  0.82338642  0.23975716  1
  Cu  Cu107  1  -0.00138800  0.66734007  0.50298039  1
  Cu  Cu108  1  0.48464264  0.82982690  0.74995797  1
  Cu  Cu109  1  -0.00772358  0.33518455  0.00279941  1
  Cu  Cu110  1  0.49680531  0.49801723  0.24788334  1
  Cu  Cu111  1  0.16410375  0.83085778  0.75423439  1
  Cu  Cu112  1  0.82714352  0.17431254  0.24949898  1
  Cu  Cu113  1  0.16904161  0.51273531  0.75176225  1
  Cu  Cu114  1  0.49867339  0.17262614  0.24409488  1
  Se  Se115  1  0.08708994  0.08754850  0.05019634  1
  Se  Se116  1  0.08105214  0.07906056  0.56657670  1
  Se  Se117  1  0.08157277  0.41594032  0.05247144  1
  Se  Se118  1  0.07803946  0.41486529  0.55062263  1
  Se  Se119  1  0.09182237  0.75001190  0.05569119  1
  Se  Se120  1  0.08147319  0.74950323  0.55729284  1
  Se  Se121  1  0.41581972  0.08464943  0.04677079  1
  Se  Se122  1  0.41169427  0.07628628  0.55710631  1
  Se  Se123  1  0.41724436  0.42006853  0.05586331  1
  Se  Se124  1  0.42086465  0.41741498  0.54703101  1
  Se  Se125  1  0.41361779  0.74118705  0.06484239  1
  Se  Se126  1  0.40854223  0.74777049  0.56209292  1
  Se  Se127  1  0.75194637  0.08657227  0.05329716  1
  Se  Se128  1  0.75390830  0.07661978  0.55732725  1
  Se  Se129  1  0.74711840  0.41727154  0.05367796  1
  Se  Se130  1  0.74749788  0.40694511  0.56030636  1
  Se  Se131  1  0.77200851  0.76385058  0.05060724  1
  Se  Se132  1  0.73881905  0.73867585  0.55310759  1
  Se  Se133  1  0.25089998  0.24991705  0.04884490  1
  Se  Se134  1  0.26565827  0.26038641  0.55412117  1
  Se  Se135  1  0.24950455  0.58019514  0.05786392  1
  Se  Se136  1  0.23171847  0.57008409  0.55459480  1
  Se  Se137  1  0.25197292  0.91444024  0.05015266  1
  Se  Se138  1  0.24116749  0.91642433  0.55777666  1
  Se  Se139  1  0.57812536  0.24986185  0.05592871  1
  Se  Se140  1  0.59058418  0.25266753  0.56296235  1
  Se  Se141  1  0.58102404  0.59325543  0.05681179  1
  Se  Se142  1  0.59181055  0.58616111  0.55218099  1
  Se  Se143  1  0.59297654  0.91825206  0.06231783  1
  Se  Se144  1  0.58362888  0.92028811  0.54971200  1
  Se  Se145  1  0.90933739  0.24901081  0.05294709  1
  Se  Se146  1  0.92236666  0.24798984  0.55476952  1
  Se  Se147  1  0.92223927  0.58373363  0.04962264  1
  Se  Se148  1  0.91523402  0.58731407  0.56064903  1
  Se  Se149  1  0.92700608  0.92262466  0.05353094  1
  Se  Se150  1  0.92508822  0.91965649  0.56912787  1
  Se  Se151  1  0.08492568  0.26045545  0.43074782  1
  Se  Se152  1  0.07935935  0.25314761  0.95040606  1
  Se  Se153  1  0.07322647  0.57533194  0.45098907  1
  Se  Se154  1  0.08865770  0.58083242  0.94702919  1
  Se  Se155  1  0.07837373  0.91752450  0.45010291  1
  Se  Se156  1  0.08799150  0.91659535  0.94353503  1
  Se  Se157  1  0.41094881  0.25617884  0.43774032  1
  Se  Se158  1  0.41933610  0.25124766  0.94400182  1
  Se  Se159  1  0.41843057  0.60683374  0.43719852  1
  Se  Se160  1  0.41796031  0.58175894  0.95015622  1
  Se  Se161  1  0.39195104  0.91808838  0.43462905  1
  Se  Se162  1  0.40946645  0.91879270  0.93751277  1
  Se  Se163  1  0.76698908  0.23611575  0.45073965  1
  Se  Se164  1  0.74438100  0.25301991  0.94951430  1
  Se  Se165  1  0.74388014  0.58476665  0.43580892  1
  Se  Se166  1  0.74230015  0.59172989  0.95147218  1
  Se  Se167  1  0.74512832  0.91721367  0.43661460  1
  Se  Se168  1  0.75335509  0.91615521  0.95003592  1
  Se  Se169  1  0.24898662  0.08044526  0.44276929  1
  Se  Se170  1  0.24736666  0.08659517  0.94146017  1
  Se  Se171  1  0.24450922  0.42017093  0.44746442  1
  Se  Se172  1  0.25091024  0.41969537  0.95132036  1
  Se  Se173  1  0.23326446  0.76345452  0.44105129  1
  Se  Se174  1  0.25114865  0.74822628  0.95044970  1
  Se  Se175  1  0.59607210  0.08138160  0.43558533  1
  Se  Se176  1  0.58084848  0.08149513  0.95065884  1
  Se  Se177  1  0.60429727  0.39497547  0.43646663  1
  Se  Se178  1  0.57927131  0.41929643  0.94674768  1
  Se  Se179  1  0.59676023  0.74344035  0.44272359  1
  Se  Se180  1  0.58967654  0.74197440  0.94339669  1
  Se  Se181  1  0.91851047  0.08526154  0.45245115  1
  Se  Se182  1  0.91633399  0.08751186  0.94847443  1
  Se  Se183  1  0.92300710  0.40639091  0.43220574  1
  Se  Se184  1  0.91260562  0.42108080  0.94822536  1
  Se  Se185  1  0.91535218  0.74121959  0.44040339  1
  Se  Se186  1  0.92365243  0.75134043  0.94680772  1
  Se  Se187  1  0.25660497  0.25324662  0.29568637  1
  Se  Se188  1  0.24349349  0.25136261  0.81107634  1
  Se  Se189  1  0.25141238  0.59681215  0.32082578  1
  Se  Se190  1  0.25502715  0.59007930  0.80679062  1
  Se  Se191  1  0.24433697  0.90373252  0.31404201  1
  Se  Se192  1  0.25050744  0.91529478  0.80408319  1
  Se  Se193  1  0.58009695  0.25644952  0.29795483  1
  Se  Se194  1  0.58663911  0.25035707  0.80328108  1
  Se  Se195  1  0.59338044  0.57687302  0.29356908  1
  Se  Se196  1  0.57539222  0.57772978  0.81122683  1
  Se  Se197  1  0.57672487  0.92636251  0.30615650  1
  Se  Se198  1  0.57152247  0.90444789  0.80944969  1
  Se  Se199  1  0.91583912  0.24609537  0.30899709  1
  Se  Se200  1  0.91380445  0.25006143  0.81580806  1
  Se  Se201  1  0.91723085  0.58525078  0.29501327  1
  Se  Se202  1  0.91793331  0.58443918  0.80806972  1
  Se  Se203  1  0.90435979  0.90489544  0.30574818  1
  Se  Se204  1  0.91928462  0.91727555  0.80537617  1
  Se  Se205  1  0.09498667  0.09319129  0.30169370  1
  Se  Se206  1  0.08087856  0.08260128  0.80449620  1
  Se  Se207  1  0.09559070  0.43683680  0.29979134  1
  Se  Se208  1  0.09250702  0.42484292  0.80904886  1
  Se  Se209  1  0.07405803  0.74570646  0.30448918  1
  Se  Se210  1  0.08309060  0.74621547  0.80785776  1
  Se  Se211  1  0.42073407  0.08969770  0.30383397  1
  Se  Se212  1  0.41583610  0.08226592  0.80265005  1
  Se  Se213  1  0.41023972  0.42656843  0.30767827  1
  Se  Se214  1  0.41772558  0.42189616  0.81128909  1
  Se  Se215  1  0.44018922  0.77218275  0.31822771  1
  Se  Se216  1  0.40920356  0.74090202  0.80269258  1
  Se  Se217  1  0.75409204  0.09361295  0.31466296  1
  Se  Se218  1  0.75720428  0.09047243  0.81900493  1
  Se  Se219  1  0.75607850  0.41513731  0.29487164  1
  Se  Se220  1  0.74482324  0.41684719  0.80713594  1
  Se  Se221  1  0.74496749  0.74748687  0.29643227  1
  Se  Se222  1  0.75346635  0.74981193  0.81309413  1
  Se  Se223  1  0.24649288  0.08744253  0.18170561  1
  Se  Se224  1  0.25283486  0.08354374  0.70333669  1
  Se  Se225  1  0.25213064  0.41409833  0.19616869  1
  Se  Se226  1  0.24645743  0.43002858  0.69142224  1
  Se  Se227  1  0.25470799  0.74654573  0.19854453  1
  Se  Se228  1  0.24502812  0.74936836  0.69641433  1
  Se  Se229  1  0.57630306  0.08854818  0.18652496  1
  Se  Se230  1  0.58054348  0.08469847  0.69090319  1
  Se  Se231  1  0.58403597  0.42004807  0.19274621  1
  Se  Se232  1  0.58185536  0.41571746  0.70048953  1
  Se  Se233  1  0.57514794  0.76311857  0.19916582  1
  Se  Se234  1  0.57114789  0.75707079  0.68927775  1
  Se  Se235  1  0.90860891  0.09148340  0.19367447  1
  Se  Se236  1  0.91930861  0.08375058  0.70561371  1
  Se  Se237  1  0.91567390  0.42181782  0.18233380  1
  Se  Se238  1  0.90980693  0.42665708  0.69176017  1
  Se  Se239  1  0.92247296  0.74366561  0.19284943  1
  Se  Se240  1  0.91619930  0.74419419  0.70254892  1
  Se  Se241  1  0.08633147  0.24933404  0.18365148  1
  Se  Se242  1  0.09595195  0.25029474  0.68972348  1
  Se  Se243  1  0.08486434  0.58606653  0.19787967  1
  Se  Se244  1  0.07976029  0.58923261  0.69852271  1
  Se  Se245  1  0.09191726  0.90671663  0.19236928  1
  Se  Se246  1  0.07947522  0.91821689  0.70402001  1
  Se  Se247  1  0.41261235  0.25566074  0.19427443  1
  Se  Se248  1  0.42679060  0.24133838  0.68715517  1
  Se  Se249  1  0.41057802  0.58471132  0.20102626  1
  Se  Se250  1  0.41186382  0.58148397  0.69285878  1
  Se  Se251  1  0.42170559  0.91086058  0.19132296  1
  Se  Se252  1  0.40854943  0.92039229  0.69851331  1
  Se  Se253  1  0.74302488  0.25543360  0.19764168  1
  Se  Se254  1  0.75243808  0.25133838  0.70106532  1
  Se  Se255  1  0.75196668  0.58542416  0.18735669  1
  Se  Se256  1  0.75476494  0.57315635  0.69142044  1
  Se  Se257  1  0.75264878  0.90746813  0.18276467  1
  Se  Se258  1  0.75210386  0.90588301  0.69591684  1
