# generated using pymatgen
data_In86Cu29Se144
_symmetry_space_group_name_H-M   'P 1'
_cell_length_a   17.58010691
_cell_length_b   17.58154492
_cell_length_c   23.43566588
_cell_angle_alpha   89.99395027
_cell_angle_beta   90.01441837
_cell_angle_gamma   89.97680709
_symmetry_Int_Tables_number   1
_chemical_formula_structural   In86Cu29Se144
_chemical_formula_sum   'In86 Cu29 Se144'
_cell_volume   7243.62221915
_cell_formula_units_Z   1
loop_
 _symmetry_equiv_pos_site_id
 _symmetry_equiv_pos_as_xyz
  1  'x, y, z'
loop_
 _atom_site_type_symbol
 _atom_site_label
 _atom_site_symmetry_multiplicity
 _atom_site_fract_x
 _atom_site_fract_y
 _atom_site_fract_z
 _atom_site_occupancy
  In  In0  1  0.00048118  0.16460225  0.10910214  1
  In  In1  1  0.00294172  0.16897430  0.62623928  1
  In  In2  1  -0.00630792  0.50320298  0.12215257  1
  In  In3  1  -0.00140039  0.48066148  0.61395268  1
  In  In4  1  0.01422788  0.83132136  0.11649511  1
  In  In5  1  0.01489065  0.84581387  0.62464990  1
  In  In6  1  0.33591876  0.16486984  0.11642250  1
  In  In7  1  0.34479410  0.17766227  0.62046731  1
  In  In8  1  0.35742641  0.47980919  0.15295400  1
  In  In9  1  0.33388622  0.49904048  0.62128064  1
  In  In10  1  0.32887789  0.83017723  0.12865377  1
  In  In11  1  0.32011526  0.82104490  0.61823413  1
  In  In12  1  0.67005236  0.18052076  0.12566299  1
  In  In13  1  0.67257364  0.17242121  0.61577238  1
  In  In14  1  0.64749126  0.50729512  0.14739921  1
  In  In15  1  0.66752346  0.49970866  0.61450751  1
  In  In16  1  0.65790961  0.82508164  0.13081969  1
  In  In17  1  0.66645619  0.83167861  0.61100951  1
  In  In18  1  0.16342718  0.00370559  0.38449609  1
  In  In19  1  0.15493151  0.00540838  0.88195290  1
  In  In20  1  0.17504046  0.32725845  0.38571435  1
  In  In21  1  0.15998709  0.32548863  0.86191973  1
  In  In22  1  0.17626585  0.65620034  0.38554563  1
  In  In23  1  0.17777184  0.66083767  0.87676425  1
  In  In24  1  0.49303976  -0.00126617  0.38388454  1
  In  In25  1  0.51142444  0.00706833  0.87517509  1
  In  In26  1  0.49626600  0.34041578  0.36669106  1
  In  In27  1  0.49372643  0.34184955  0.88325189  1
  In  In28  1  0.49915686  0.66486927  0.36553475  1
  In  In29  1  0.48394275  0.66527735  0.87442141  1
  In  In30  1  0.83709485  -0.00289646  0.38290865  1
  In  In31  1  0.86092262  0.00996672  0.87109356  1
  In  In32  1  0.81922770  0.34471936  0.39152515  1
  In  In33  1  0.83148645  0.32132599  0.87200976  1
  In  In34  1  0.82956912  0.66908357  0.38430176  1
  In  In35  1  0.83437629  0.66850162  0.87185225  1
  In  In36  1  0.00255963  0.17769445  0.39513178  1
  In  In37  1  0.00208118  0.16507774  0.87502845  1
  In  In38  1  -0.00396635  0.49619534  0.39515739  1
  In  In39  1  0.01298067  0.50211808  0.86564856  1
  In  In40  1  0.00167184  0.82985890  0.38742971  1
  In  In41  1  0.00552403  0.84602379  0.87234983  1
  In  In42  1  0.32688469  0.17445226  0.38137610  1
  In  In43  1  0.32352123  0.17637098  0.87664264  1
  In  In44  1  0.34274642  0.50034534  0.36784081  1
  In  In45  1  0.33532486  0.50402697  0.87013644  1
  In  In46  1  0.34213000  0.81806865  0.38606877  1
  In  In47  1  0.32821939  0.81503965  0.87025903  1
  In  In48  1  0.65054312  0.17753164  0.38021414  1
  In  In49  1  0.66838491  0.17482949  0.88398999  1
  In  In50  1  0.66032366  0.50293534  0.37163970  1
  In  In51  1  0.66060521  0.48555598  0.87824937  1
  In  In52  1  0.66903587  0.82498438  0.37575375  1
  In  In53  1  0.66885184  0.83280499  0.87461152  1
  In  In54  1  0.16691215  0.00172380  0.10992371  1
  In  In55  1  0.15344087  -0.00836104  0.62713658  1
  In  In56  1  0.17930897  0.33217016  0.12322619  1
  In  In57  1  0.17130314  0.33498667  0.61907753  1
  In  In58  1  0.17747210  0.67635071  0.12040033  1
  In  In59  1  0.18223087  0.67452155  0.62219504  1
  In  In60  1  0.48897245  -0.00080705  0.12371451  1
  In  In61  1  0.50488412  0.00371542  0.61428394  1
  In  In62  1  0.49664798  0.33055153  0.12862669  1
  In  In63  1  0.49510720  0.33157970  0.61740810  1
  In  In64  1  0.51296089  0.65338768  0.14939610  1
  In  In65  1  0.48530391  0.65241476  0.61214400  1
  In  In66  1  0.82631462  0.00885551  0.12446849  1
  In  In67  1  0.85239089  0.01283322  0.61861558  1
  In  In68  1  0.83250612  0.32793749  0.12754081  1
  In  In69  1  0.85596469  0.34506129  0.60481833  1
  In  In70  1  0.82578294  0.65664258  0.12761763  1
  In  In71  1  0.82797036  0.65753307  0.61487365  1
  In  In72  1  0.33266067  -0.00436122  0.24574572  1
  In  In73  1  0.00305737  0.33210069  0.25749497  1
  In  In74  1  0.66957684  0.00114695  0.74624590  1
  In  In75  1  0.00148589  0.66549882  0.24642600  1
  In  In76  1  0.66209112  0.66007981  0.73265945  1
  In  In77  1  0.00288585  0.00511461  0.24462280  1
  In  In78  1  0.67327878  0.33554203  0.74285518  1
  In  In79  1  0.83860916  0.84559595  -0.00663127  1
  In  In80  1  0.00641341  0.66382071  0.74468470  1
  In  In81  1  0.17418135  0.50157404  -0.00171214  1
  In  In82  1  0.66326427  -0.00075966  0.26004900  1
  In  In83  1  0.82990461  0.49608041  0.00456798  1
  In  In84  1  0.32523490  -0.00118223  0.74983569  1
  In  In85  1  0.49490876  0.83508262  0.00586906  1
  Cu  Cu86  1  0.17063148  0.49931943  0.25583344  1
  Cu  Cu87  1  0.82850689  0.50166897  0.26020089  1
  Cu  Cu88  1  0.33571570  0.33148344  0.00322223  1
  Cu  Cu89  1  0.00100999  0.66668212  0.50886798  1
  Cu  Cu90  1  0.33651272  0.65708610  0.00306683  1
  Cu  Cu91  1  0.33308015  -0.00109768  -0.00470315  1
  Cu  Cu92  1  0.33267043  0.66579621  0.49525280  1
  Cu  Cu93  1  0.65643267  0.33786716  0.00655583  1
  Cu  Cu94  1  0.66609380  -0.00840124  0.49460907  1
  Cu  Cu95  1  0.48798604  0.82986992  0.74312215  1
  Cu  Cu96  1  0.83352674  0.82799067  0.25632766  1
  Cu  Cu97  1  0.66165090  0.66132253  0.49254626  1
  Cu  Cu98  1  0.84508169  0.16486018  0.74905603  1
  Cu  Cu99  1  0.49192003  0.50453567  0.74938513  1
  Cu  Cu100  1  0.16684895  0.17211479  0.74799885  1
  Cu  Cu101  1  0.66004058  0.32894877  0.49510119  1
  Cu  Cu102  1  0.49611217  0.16965169  0.24841646  1
  Cu  Cu103  1  0.17118408  0.49561458  0.74274461  1
  Cu  Cu104  1  0.83665943  0.83301979  0.74237184  1
  Cu  Cu105  1  0.16721584  0.17234436  0.25395371  1
  Cu  Cu106  1  0.67063068  0.01580953  0.00021060  1
  Cu  Cu107  1  0.32682868  0.00706128  0.50405032  1
  Cu  Cu108  1  0.34166712  0.34155739  0.49669255  1
  Cu  Cu109  1  0.17347568  0.82862501  0.25546413  1
  Cu  Cu110  1  0.00169190  -0.00243594  0.50562614  1
  Cu  Cu111  1  0.49708600  0.17661773  0.74923487  1
  Cu  Cu112  1  0.82690323  0.17877947  0.25506104  1
  Cu  Cu113  1  0.00110930  0.33160094  -0.00808453  1
  Cu  Cu114  1  0.66111740  0.66244883  0.00908422  1
  Se  Se115  1  0.08544191  0.08466747  0.04457911  1
  Se  Se116  1  0.08528483  0.08360772  0.55664208  1
  Se  Se117  1  0.07646991  0.41080876  0.05717019  1
  Se  Se118  1  0.08640899  0.40628135  0.54435303  1
  Se  Se119  1  0.08722865  0.74242950  0.05042614  1
  Se  Se120  1  0.08670048  0.75120368  0.55820728  1
  Se  Se121  1  0.41867232  0.07970669  0.04873343  1
  Se  Se122  1  0.41891227  0.08868811  0.55063201  1
  Se  Se123  1  0.41169006  0.41656561  0.06115680  1
  Se  Se124  1  0.42390398  0.42561679  0.55041001  1
  Se  Se125  1  0.41650398  0.73722239  0.06488529  1
  Se  Se126  1  0.41436667  0.75222324  0.54957459  1
  Se  Se127  1  0.75246036  0.09643049  0.05607199  1
  Se  Se128  1  0.74422731  0.07096180  0.55605159  1
  Se  Se129  1  0.73599971  0.41805227  0.06885215  1
  Se  Se130  1  0.74556962  0.41043538  0.54858762  1
  Se  Se131  1  0.74780421  0.75017951  0.05618409  1
  Se  Se132  1  0.74745436  0.74267487  0.54722547  1
  Se  Se133  1  0.24747093  0.24623843  0.04999364  1
  Se  Se134  1  0.26045112  0.25571175  0.55044493  1
  Se  Se135  1  0.26493598  0.57422656  0.06788716  1
  Se  Se136  1  0.25130862  0.58286587  0.55182315  1
  Se  Se137  1  0.25840116  0.91299263  0.05337594  1
  Se  Se138  1  0.24646882  0.92123780  0.55780855  1
  Se  Se139  1  0.57614180  0.24777169  0.05633434  1
  Se  Se140  1  0.57849521  0.24632976  0.55097648  1
  Se  Se141  1  0.57966742  0.58276815  0.06512695  1
  Se  Se142  1  0.57986613  0.57813732  0.54777055  1
  Se  Se143  1  0.59629994  0.92664141  0.05849425  1
  Se  Se144  1  0.57721214  0.91164463  0.54644679  1
  Se  Se145  1  0.91481786  0.25887726  0.05208567  1
  Se  Se146  1  0.89558448  0.21924969  0.55900975  1
  Se  Se147  1  0.92320749  0.59785581  0.05267337  1
  Se  Se148  1  0.91661496  0.57509837  0.55172627  1
  Se  Se149  1  0.92432823  0.92976072  0.06098583  1
  Se  Se150  1  0.91716199  0.90979574  0.55527972  1
  Se  Se151  1  0.08354080  0.26403487  0.45914713  1
  Se  Se152  1  0.08875806  0.25160638  0.94125990  1
  Se  Se153  1  0.08411130  0.58458370  0.45395653  1
  Se  Se154  1  0.07584531  0.58933737  0.94345551  1
  Se  Se155  1  0.08600873  0.91514871  0.45150423  1
  Se  Se156  1  0.08053649  0.91551083  0.95006696  1
  Se  Se157  1  0.42134509  0.25507818  0.44099561  1
  Se  Se158  1  0.41602873  0.24769861  0.94606074  1
  Se  Se159  1  0.41781525  0.58624838  0.44029865  1
  Se  Se160  1  0.41829064  0.57601310  0.94671215  1
  Se  Se161  1  0.40689719  0.91987138  0.45105851  1
  Se  Se162  1  0.41300777  0.91914532  0.93373457  1
  Se  Se163  1  0.74778724  0.24002899  0.44942793  1
  Se  Se164  1  0.74664090  0.26248546  0.95147742  1
  Se  Se165  1  0.74899644  0.57531679  0.44479799  1
  Se  Se166  1  0.74065059  0.58997243  0.94214279  1
  Se  Se167  1  0.75212367  0.90870441  0.44413521  1
  Se  Se168  1  0.74371989  0.93566441  0.93464956  1
  Se  Se169  1  0.24441799  0.09126406  0.44957707  1
  Se  Se170  1  0.25072923  0.08410234  0.94348379  1
  Se  Se171  1  0.25843351  0.42369611  0.44157211  1
  Se  Se172  1  0.25477526  0.40587623  0.93691813  1
  Se  Se173  1  0.24190938  0.75469339  0.45262309  1
  Se  Se174  1  0.25500435  0.74283929  0.95012843  1
  Se  Se175  1  0.58211394  0.08053805  0.44697940  1
  Se  Se176  1  0.57963452  0.09225575  0.94861025  1
  Se  Se177  1  0.58088454  0.41507219  0.44040614  1
  Se  Se178  1  0.57546731  0.42368491  0.95425793  1
  Se  Se179  1  0.57853164  0.74603145  0.44059237  1
  Se  Se180  1  0.58714756  0.74412190  0.94353078  1
  Se  Se181  1  0.91905928  0.08016617  0.45050368  1
  Se  Se182  1  0.91010797  0.09895336  0.94751801  1
  Se  Se183  1  0.92317822  0.40043832  0.45663632  1
  Se  Se184  1  0.92263063  0.41756991  0.93613220  1
  Se  Se185  1  0.91630914  0.74766114  0.45253458  1
  Se  Se186  1  0.92332247  0.74652648  0.93865703  1
  Se  Se187  1  0.25013983  0.25422356  0.30655926  1
  Se  Se188  1  0.25700042  0.25362943  0.79661515  1
  Se  Se189  1  0.25027851  0.58776954  0.30583085  1
  Se  Se190  1  0.24844125  0.58070822  0.80046366  1
  Se  Se191  1  0.24599284  0.91491644  0.31519741  1
  Se  Se192  1  0.24098453  0.91173634  0.81384607  1
  Se  Se193  1  0.58175959  0.25119390  0.30051143  1
  Se  Se194  1  0.58238366  0.25201604  0.80898097  1
  Se  Se195  1  0.58123116  0.57981508  0.29851820  1
  Se  Se196  1  0.57987542  0.57930969  0.80823951  1
  Se  Se197  1  0.56990783  0.90880812  0.31281364  1
  Se  Se198  1  0.57386638  0.90497827  0.80218527  1
  Se  Se199  1  0.91091890  0.24845153  0.31910417  1
  Se  Se200  1  0.92312782  0.25189457  0.80367376  1
  Se  Se201  1  0.91901555  0.57744469  0.31404624  1
  Se  Se202  1  0.90877831  0.57696161  0.80353230  1
  Se  Se203  1  0.91892106  0.91056567  0.30834673  1
  Se  Se204  1  0.91708085  0.91388998  0.79877453  1
  Se  Se205  1  0.08317944  0.09555951  0.31255712  1
  Se  Se206  1  0.08800345  0.08753005  0.80395635  1
  Se  Se207  1  0.08740037  0.42580725  0.31735377  1
  Se  Se208  1  0.08321257  0.41576223  0.79460571  1
  Se  Se209  1  0.08742570  0.75170962  0.31247089  1
  Se  Se210  1  0.09047591  0.74989863  0.81053225  1
  Se  Se211  1  0.41763461  0.08805236  0.30838297  1
  Se  Se212  1  0.42269696  0.08889926  0.80725178  1
  Se  Se213  1  0.41281118  0.41481451  0.29399632  1
  Se  Se214  1  0.41808247  0.41514324  0.80520119  1
  Se  Se215  1  0.40743835  0.74989654  0.30387738  1
  Se  Se216  1  0.41211694  0.74226455  0.79703570  1
  Se  Se217  1  0.75639508  0.09092554  0.31466961  1
  Se  Se218  1  0.75433552  0.09316627  0.80897086  1
  Se  Se219  1  0.74863935  0.41250180  0.30931338  1
  Se  Se220  1  0.75922818  0.42531019  0.80766333  1
  Se  Se221  1  0.75257833  0.74274278  0.30653885  1
  Se  Se222  1  0.75133921  0.75415242  0.79865680  1
  Se  Se223  1  0.23805394  0.08685541  0.19001312  1
  Se  Se224  1  0.24691373  0.09333412  0.68560379  1
  Se  Se225  1  0.24550369  0.40828997  0.20284356  1
  Se  Se226  1  0.25631160  0.41253209  0.69115934  1
  Se  Se227  1  0.25283586  0.74563224  0.20034208  1
  Se  Se228  1  0.24858598  0.75516395  0.69992949  1
  Se  Se229  1  0.57742151  0.08529911  0.19153414  1
  Se  Se230  1  0.57730010  0.09541222  0.69093910  1
  Se  Se231  1  0.57257131  0.40888386  0.20399272  1
  Se  Se232  1  0.57593521  0.42704956  0.68989197  1
  Se  Se233  1  0.59076942  0.75056205  0.20813078  1
  Se  Se234  1  0.57048113  0.75539196  0.68092354  1
  Se  Se235  1  0.90837388  0.10141749  0.19358746  1
  Se  Se236  1  0.92801911  0.07887196  0.69912276  1
  Se  Se237  1  0.91113222  0.42597411  0.19770440  1
  Se  Se238  1  0.91797605  0.41100349  0.69041177  1
  Se  Se239  1  0.91239527  0.75977052  0.18657439  1
  Se  Se240  1  0.91182110  0.74828853  0.68334768  1
  Se  Se241  1  0.08390615  0.24330309  0.18891476  1
  Se  Se242  1  0.08710062  0.25539680  0.69107417  1
  Se  Se243  1  0.09328519  0.57324281  0.18895533  1
  Se  Se244  1  0.09060678  0.57381348  0.68079715  1
  Se  Se245  1  0.09772820  0.91049024  0.19283881  1
  Se  Se246  1  0.08312409  0.91662793  0.70557510  1
  Se  Se247  1  0.40719356  0.24374300  0.19266429  1
  Se  Se248  1  0.41670439  0.26039475  0.69581152  1
  Se  Se249  1  0.39709997  0.60255237  0.20420363  1
  Se  Se250  1  0.41074695  0.58681708  0.69387322  1
  Se  Se251  1  0.43016906  0.90175803  0.19607928  1
  Se  Se252  1  0.41788935  0.91841258  0.68430694  1
  Se  Se253  1  0.74485936  0.26017398  0.20107750  1
  Se  Se254  1  0.76313511  0.24182666  0.68879114  1
  Se  Se255  1  0.74935737  0.58621585  0.20409816  1
  Se  Se256  1  0.76130771  0.56484771  0.69071166  1
  Se  Se257  1  0.75757874  0.91300403  0.19542915  1
  Se  Se258  1  0.75512529  0.91217816  0.68314830  1
