# generated using pymatgen
data_In86Cu29Se144
_symmetry_space_group_name_H-M   'P 1'
_cell_length_a   17.57463288
_cell_length_b   17.57359902
_cell_length_c   23.43571191
_cell_angle_alpha   90.00630524
_cell_angle_beta   89.99357075
_cell_angle_gamma   90.00041934
_symmetry_Int_Tables_number   1
_chemical_formula_structural   In86Cu29Se144
_chemical_formula_sum   'In86 Cu29 Se144'
_cell_volume   7238.10901527
_cell_formula_units_Z   1
loop_
 _symmetry_equiv_pos_site_id
 _symmetry_equiv_pos_as_xyz
  1  'x, y, z'
loop_
 _atom_site_type_symbol
 _atom_site_label
 _atom_site_symmetry_multiplicity
 _atom_site_fract_x
 _atom_site_fract_y
 _atom_site_fract_z
 _atom_site_occupancy
  In  In0  1  0.01105799  0.17993484  0.12356125  1
  In  In1  1  -0.00364195  0.16548283  0.61854210  1
  In  In2  1  -0.00427347  0.48498250  0.12564798  1
  In  In3  1  -0.00534777  0.51044689  0.62761324  1
  In  In4  1  -0.00224627  0.83931254  0.12096948  1
  In  In5  1  -0.01503813  0.83171608  0.62709944  1
  In  In6  1  0.33742693  0.16272006  0.12782949  1
  In  In7  1  0.32664660  0.16670638  0.63738257  1
  In  In8  1  0.33890735  0.49599657  0.11853073  1
  In  In9  1  0.33335236  0.49808872  0.63400048  1
  In  In10  1  0.34700634  0.82299563  0.13273658  1
  In  In11  1  0.34395947  0.82793197  0.62972820  1
  In  In12  1  0.66568634  0.17143372  0.11192827  1
  In  In13  1  0.66734685  0.15918657  0.62370809  1
  In  In14  1  0.66265887  0.51237146  0.12659953  1
  In  In15  1  0.68055070  0.49707814  0.62608714  1
  In  In16  1  0.65635061  0.82485025  0.11566801  1
  In  In17  1  0.65855562  0.83522787  0.62721021  1
  In  In18  1  0.18835320  0.00203905  0.37604178  1
  In  In19  1  0.17085051  -0.00264611  0.86783411  1
  In  In20  1  0.16162938  0.33078710  0.36476440  1
  In  In21  1  0.21195087  0.32782713  0.88386023  1
  In  In22  1  0.17089192  0.66041105  0.36779890  1
  In  In23  1  0.16189320  0.65629553  0.87306798  1
  In  In24  1  0.48607346  0.00238785  0.37699462  1
  In  In25  1  0.50222254  -0.00210763  0.87574761  1
  In  In26  1  0.49651732  0.34411899  0.37020966  1
  In  In27  1  0.48158568  0.35407697  0.90551409  1
  In  In28  1  0.50461909  0.66776383  0.36660615  1
  In  In29  1  0.50092567  0.67165138  0.87384210  1
  In  In30  1  0.82970020  -0.00393318  0.38954675  1
  In  In31  1  0.81711386  0.00977745  0.87529441  1
  In  In32  1  0.84511944  0.32385128  0.38384018  1
  In  In33  1  0.81903300  0.32044775  0.87627590  1
  In  In34  1  0.82109151  0.67689029  0.38429411  1
  In  In35  1  0.84174537  0.67517454  0.86854284  1
  In  In36  1  -0.00215763  0.17470546  0.38030386  1
  In  In37  1  -0.00288728  0.15880504  0.87654661  1
  In  In38  1  0.00497225  0.48961751  0.37020525  1
  In  In39  1  0.00421888  0.50920613  0.87570626  1
  In  In40  1  -0.01057978  0.82656249  0.37967917  1
  In  In41  1  0.00049386  0.81882662  0.87228627  1
  In  In42  1  0.32898116  0.15988424  0.37028966  1
  In  In43  1  0.34374031  0.18060295  0.86062168  1
  In  In44  1  0.32079618  0.49951486  0.35509190  1
  In  In45  1  0.33352317  0.50504400  0.87975261  1
  In  In46  1  0.34234833  0.84232306  0.36613853  1
  In  In47  1  0.34519844  0.84327726  0.87030039  1
  In  In48  1  0.67494401  0.16796507  0.38251747  1
  In  In49  1  0.66743110  0.17054999  0.88041702  1
  In  In50  1  0.66057239  0.51057722  0.37664507  1
  In  In51  1  0.64339757  0.50092904  0.87924915  1
  In  In52  1  0.67135228  0.82593415  0.38588781  1
  In  In53  1  0.66669331  0.83402126  0.87288855  1
  In  In54  1  0.17087065  0.00658067  0.12808563  1
  In  In55  1  0.16813888  0.01427146  0.62654359  1
  In  In56  1  0.16401027  0.34564597  0.13129543  1
  In  In57  1  0.18035205  0.32877184  0.62788614  1
  In  In58  1  0.19293201  0.66115800  0.13292673  1
  In  In59  1  0.16957178  0.66018368  0.63422959  1
  In  In60  1  0.49877784  -0.00242028  0.11698892  1
  In  In61  1  0.51437204  -0.00965552  0.63509555  1
  In  In62  1  0.48329276  0.31734000  0.10336344  1
  In  In63  1  0.49432563  0.32252122  0.62990966  1
  In  In64  1  0.50225467  0.66515686  0.11794801  1
  In  In65  1  0.49102818  0.67630005  0.63316246  1
  In  In66  1  0.82830760  -0.00709527  0.12030471  1
  In  In67  1  0.80837167  -0.01795327  0.60573420  1
  In  In68  1  0.84735795  0.33060966  0.12702185  1
  In  In69  1  0.82406580  0.33116489  0.60625931  1
  In  In70  1  0.81589694  0.66501388  0.12690270  1
  In  In71  1  0.82640193  0.66789631  0.62888722  1
  In  In72  1  0.50739974  0.15836205  0.50730057  1
  In  In73  1  0.00365665  0.00331767  0.24891898  1
  In  In74  1  0.16678475  0.16678191  0.00028303  1
  In  In75  1  0.16279204  0.83397351  0.49596082  1
  In  In76  1  0.50258645  0.50258983  0.49283725  1
  In  In77  1  0.00551828  0.34271120  0.74695049  1
  In  In78  1  0.66239211  0.34139965  0.24892066  1
  In  In79  1  0.16413982  0.49656632  0.48960971  1
  In  In80  1  0.16770246  0.82957395  -0.00018535  1
  In  In81  1  0.82959165  0.49585397  0.00135784  1
  In  In82  1  0.66085626  0.00108904  0.25766186  1
  In  In83  1  0.65744326  0.33434195  0.75513487  1
  In  In84  1  0.00342330  0.66659458  0.25281437  1
  In  In85  1  -0.00187142  -0.00366705  0.74564088  1
  Cu  Cu86  1  -0.00126586  0.32890395  0.00040344  1
  Cu  Cu87  1  0.66728550  0.66992152  -0.00359031  1
  Cu  Cu88  1  0.00854867  0.33542837  0.49753358  1
  Cu  Cu89  1  0.66671033  -0.00152382  -0.00421824  1
  Cu  Cu90  1  0.33727898  -0.00202905  0.50092662  1
  Cu  Cu91  1  -0.01206696  0.66935098  0.50495052  1
  Cu  Cu92  1  -0.01563371  -0.00473271  -0.00450841  1
  Cu  Cu93  1  0.34082274  0.66811805  0.00019184  1
  Cu  Cu94  1  0.82328903  0.82832176  0.25552455  1
  Cu  Cu95  1  0.50342997  0.83379125  0.75332968  1
  Cu  Cu96  1  0.50165789  0.82778877  0.24341742  1
  Cu  Cu97  1  0.84328483  0.17412522  0.25251931  1
  Cu  Cu98  1  0.83213741  0.16170597  0.74619157  1
  Cu  Cu99  1  0.83234296  0.50019803  0.24987918  1
  Cu  Cu100  1  0.17201932  0.49603337  0.75491646  1
  Cu  Cu101  1  0.66243493  0.66842387  0.50426426  1
  Cu  Cu102  1  0.00125839  0.00662703  0.50449352  1
  Cu  Cu103  1  0.83217930  0.50605576  0.75086935  1
  Cu  Cu104  1  0.17263333  0.17195103  0.24769487  1
  Cu  Cu105  1  0.00010427  0.66697790  -0.00180962  1
  Cu  Cu106  1  0.17255000  0.82664934  0.75209321  1
  Cu  Cu107  1  0.33752508  0.32412084  0.50134272  1
  Cu  Cu108  1  0.33840680  0.00045813  -0.00023355  1
  Cu  Cu109  1  0.49218089  0.50334294  0.75823397  1
  Cu  Cu110  1  0.49736891  0.16717077  0.75492487  1
  Cu  Cu111  1  0.49581505  0.16944012  0.24653319  1
  Cu  Cu112  1  0.49197514  0.50083006  0.24188318  1
  Cu  Cu113  1  0.82697207  0.83333491  0.74681804  1
  Cu  Cu114  1  0.33724191  0.66609342  0.50180517  1
  Se  Se115  1  0.07165075  0.07059724  0.05526721  1
  Se  Se116  1  0.08905905  0.08892247  0.55213757  1
  Se  Se117  1  0.08031484  0.41363884  0.05283004  1
  Se  Se118  1  0.08259876  0.41418573  0.56339451  1
  Se  Se119  1  0.08219634  0.73934947  0.06353098  1
  Se  Se120  1  0.07962047  0.74142089  0.56186965  1
  Se  Se121  1  0.41793358  0.08805524  0.05272700  1
  Se  Se122  1  0.41248502  0.07528101  0.56729366  1
  Se  Se123  1  0.42967776  0.42970889  0.04583256  1
  Se  Se124  1  0.41277150  0.41237866  0.55774931  1
  Se  Se125  1  0.42142458  0.75600506  0.05155253  1
  Se  Se126  1  0.41932629  0.75071276  0.55303202  1
  Se  Se127  1  0.75009978  0.07895278  0.05268674  1
  Se  Se128  1  0.75996032  0.09979423  0.55178618  1
  Se  Se129  1  0.74573154  0.40984708  0.06730351  1
  Se  Se130  1  0.74937238  0.42689766  0.54577300  1
  Se  Se131  1  0.75261052  0.75047189  0.05055281  1
  Se  Se132  1  0.74509176  0.75081860  0.55952113  1
  Se  Se133  1  0.25040780  0.25536314  0.06362405  1
  Se  Se134  1  0.25566260  0.24385480  0.55693605  1
  Se  Se135  1  0.25490925  0.58550945  0.05115118  1
  Se  Se136  1  0.25437599  0.58306213  0.55619218  1
  Se  Se137  1  0.25654802  0.92088840  0.05989357  1
  Se  Se138  1  0.25290005  0.91801616  0.56026230  1
  Se  Se139  1  0.58254084  0.24687692  0.04270212  1
  Se  Se140  1  0.59240485  0.26221440  0.55904859  1
  Se  Se141  1  0.58608082  0.58255298  0.04786430  1
  Se  Se142  1  0.58223284  0.58691573  0.56414347  1
  Se  Se143  1  0.58221079  0.91573191  0.04919973  1
  Se  Se144  1  0.58522386  0.92188978  0.55533864  1
  Se  Se145  1  0.91700950  0.24429525  0.05277566  1
  Se  Se146  1  0.92168290  0.25221573  0.54850524  1
  Se  Se147  1  0.91913933  0.58890479  0.06174273  1
  Se  Se148  1  0.90797316  0.58320352  0.55758891  1
  Se  Se149  1  0.90842797  0.90844063  0.05071694  1
  Se  Se150  1  0.91983181  0.91586727  0.55136194  1
  Se  Se151  1  0.09263908  0.25324679  0.44388797  1
  Se  Se152  1  0.08183841  0.25759053  0.93528101  1
  Se  Se153  1  0.07115710  0.59727711  0.44083953  1
  Se  Se154  1  0.08563010  0.58172192  0.95089676  1
  Se  Se155  1  0.07571326  0.92945086  0.43674804  1
  Se  Se156  1  0.07551863  0.92186705  0.93880121  1
  Se  Se157  1  0.42103654  0.24892245  0.44066694  1
  Se  Se158  1  0.39419773  0.25074172  0.94811965  1
  Se  Se159  1  0.40416824  0.58370140  0.43393040  1
  Se  Se160  1  0.42445625  0.58589531  0.94528676  1
  Se  Se161  1  0.41614720  0.91161573  0.44766925  1
  Se  Se162  1  0.42116691  0.91472877  0.94803304  1
  Se  Se163  1  0.75280441  0.25135942  0.44948484  1
  Se  Se164  1  0.75639670  0.24043289  0.95287660  1
  Se  Se165  1  0.74416775  0.58433108  0.44956790  1
  Se  Se166  1  0.74810041  0.58793698  0.93639165  1
  Se  Se167  1  0.74592148  0.91396201  0.45358427  1
  Se  Se168  1  0.75146898  0.91427652  0.94380109  1
  Se  Se169  1  0.25625678  0.08672532  0.45081353  1
  Se  Se170  1  0.25480485  0.07613585  0.93978888  1
  Se  Se171  1  0.26333232  0.40817837  0.43804787  1
  Se  Se172  1  0.24422716  0.43381259  0.95217768  1
  Se  Se173  1  0.25593801  0.74383330  0.43958544  1
  Se  Se174  1  0.25828475  0.74507821  0.93714485  1
  Se  Se175  1  0.59205061  0.06951994  0.44199204  1
  Se  Se176  1  0.58206917  0.08325892  0.94469256  1
  Se  Se177  1  0.59382988  0.40425137  0.44252141  1
  Se  Se178  1  0.61046119  0.39389258  0.94821350  1
  Se  Se179  1  0.57602591  0.74318349  0.44575822  1
  Se  Se180  1  0.58327903  0.75406186  0.94386458  1
  Se  Se181  1  0.91834572  0.08655568  0.44671755  1
  Se  Se182  1  0.90822068  0.08576970  0.94425388  1
  Se  Se183  1  0.92425282  0.41985390  0.44613325  1
  Se  Se184  1  0.91946726  0.40816110  0.93723861  1
  Se  Se185  1  0.90689072  0.75653777  0.45372167  1
  Se  Se186  1  0.91611854  0.75012633  0.94751971  1
  Se  Se187  1  0.25733688  0.25293673  0.30248234  1
  Se  Se188  1  0.23599091  0.24013630  0.79970269  1
  Se  Se189  1  0.25030159  0.59479822  0.29109601  1
  Se  Se190  1  0.25431849  0.58427050  0.80487728  1
  Se  Se191  1  0.24930920  0.91672545  0.30123675  1
  Se  Se192  1  0.25309754  0.91530813  0.80086150  1
  Se  Se193  1  0.57960843  0.24116659  0.30990625  1
  Se  Se194  1  0.56758996  0.25232923  0.81877530  1
  Se  Se195  1  0.57972876  0.57636895  0.29868062  1
  Se  Se196  1  0.58294060  0.58674009  0.80280640  1
  Se  Se197  1  0.57302048  0.90562934  0.31279396  1
  Se  Se198  1  0.58695284  0.92007544  0.80392127  1
  Se  Se199  1  0.92589959  0.25718230  0.30461055  1
  Se  Se200  1  0.91248706  0.24500497  0.80380860  1
  Se  Se201  1  0.90718214  0.58277150  0.31374720  1
  Se  Se202  1  0.92130268  0.58356247  0.80324115  1
  Se  Se203  1  0.90604492  0.91444926  0.30790830  1
  Se  Se204  1  0.90861951  0.91157972  0.81023280  1
  Se  Se205  1  0.09274167  0.09145832  0.31067952  1
  Se  Se206  1  0.08746030  0.09046224  0.80281492  1
  Se  Se207  1  0.10412844  0.43665562  0.30150990  1
  Se  Se208  1  0.09530931  0.41511540  0.81753854  1
  Se  Se209  1  0.08851543  0.76484108  0.31006175  1
  Se  Se210  1  0.08534516  0.74438392  0.80213864  1
  Se  Se211  1  0.41640864  0.08207677  0.30039967  1
  Se  Se212  1  0.41643757  0.07668823  0.80434640  1
  Se  Se213  1  0.41385159  0.41395226  0.29654604  1
  Se  Se214  1  0.41903963  0.41504164  0.81555876  1
  Se  Se215  1  0.41644632  0.74798295  0.30039467  1
  Se  Se216  1  0.41612538  0.74955224  0.80256138  1
  Se  Se217  1  0.76410474  0.08951215  0.30902190  1
  Se  Se218  1  0.74186969  0.09073136  0.80226063  1
  Se  Se219  1  0.75568101  0.42003875  0.31443736  1
  Se  Se220  1  0.75305177  0.42600582  0.81224705  1
  Se  Se221  1  0.73942775  0.74544139  0.30699585  1
  Se  Se222  1  0.74794883  0.74852689  0.80292809  1
  Se  Se223  1  0.25363707  0.08290539  0.19863339  1
  Se  Se224  1  0.25465331  0.07170770  0.70260397  1
  Se  Se225  1  0.25692960  0.42206361  0.19289419  1
  Se  Se226  1  0.25383641  0.41140915  0.70124417  1
  Se  Se227  1  0.24419346  0.76517898  0.19826374  1
  Se  Se228  1  0.25617517  0.74564259  0.69611488  1
  Se  Se229  1  0.58218302  0.09181877  0.18955185  1
  Se  Se230  1  0.58432175  0.09098887  0.69910531  1
  Se  Se231  1  0.57016728  0.41683751  0.18253872  1
  Se  Se232  1  0.57117084  0.42703364  0.69145002  1
  Se  Se233  1  0.58586903  0.74453186  0.19170543  1
  Se  Se234  1  0.58514474  0.74851466  0.69966002  1
  Se  Se235  1  0.91207260  0.09009483  0.18711281  1
  Se  Se236  1  0.90576393  0.08013486  0.68365245  1
  Se  Se237  1  0.91687535  0.41355892  0.20277114  1
  Se  Se238  1  0.90104389  0.41780943  0.68825198  1
  Se  Se239  1  0.90808377  0.75588318  0.19269426  1
  Se  Se240  1  0.91412917  0.74704484  0.69959948  1
  Se  Se241  1  0.08414100  0.25526046  0.19938729  1
  Se  Se242  1  0.08623514  0.24208946  0.69037095  1
  Se  Se243  1  0.08410184  0.57941817  0.18621789  1
  Se  Se244  1  0.08516159  0.57562758  0.70023591  1
  Se  Se245  1  0.09100233  0.90815291  0.19223074  1
  Se  Se246  1  0.09222202  0.90453993  0.68798140  1
  Se  Se247  1  0.41834356  0.25545475  0.19179611  1
  Se  Se248  1  0.41236087  0.25230800  0.70355219  1
  Se  Se249  1  0.41490240  0.58886519  0.18762238  1
  Se  Se250  1  0.41280466  0.58541617  0.69956175  1
  Se  Se251  1  0.42394699  0.92124176  0.19395236  1
  Se  Se252  1  0.41849489  0.91659983  0.69930015  1
  Se  Se253  1  0.75227823  0.24357581  0.19308570  1
  Se  Se254  1  0.75511444  0.25317917  0.69174530  1
  Se  Se255  1  0.74500748  0.58371768  0.20233320  1
  Se  Se256  1  0.74370414  0.58588972  0.70006869  1
  Se  Se257  1  0.74599353  0.90999668  0.19374777  1
  Se  Se258  1  0.74655982  0.92035695  0.69431486  1
