# generated using pymatgen
data_In86Cu29Se144
_symmetry_space_group_name_H-M   'P 1'
_cell_length_a   17.57847174
_cell_length_b   17.57605325
_cell_length_c   23.43124572
_cell_angle_alpha   90.00576793
_cell_angle_beta   89.99553158
_cell_angle_gamma   89.98792573
_symmetry_Int_Tables_number   1
_chemical_formula_structural   In86Cu29Se144
_chemical_formula_sum   'In86 Cu29 Se144'
_cell_volume   7239.32109841
_cell_formula_units_Z   1
loop_
 _symmetry_equiv_pos_site_id
 _symmetry_equiv_pos_as_xyz
  1  'x, y, z'
loop_
 _atom_site_type_symbol
 _atom_site_label
 _atom_site_symmetry_multiplicity
 _atom_site_fract_x
 _atom_site_fract_y
 _atom_site_fract_z
 _atom_site_occupancy
  In  In0  1  -0.00141230  0.17492646  0.12040255  1
  In  In1  1  -0.00706280  0.17246760  0.63393735  1
  In  In2  1  -0.01086811  0.50691318  0.12235226  1
  In  In3  1  -0.00076466  0.50273604  0.63007691  1
  In  In4  1  -0.00011802  0.83302818  0.11309034  1
  In  In5  1  -0.01845351  0.84635559  0.64436860  1
  In  In6  1  0.32645962  0.16455838  0.12560461  1
  In  In7  1  0.32896458  0.15758734  0.62617066  1
  In  In8  1  0.35112391  0.49456029  0.12069986  1
  In  In9  1  0.33412879  0.51070880  0.61640040  1
  In  In10  1  0.33991477  0.82788758  0.12344926  1
  In  In11  1  0.34656330  0.82464632  0.62412763  1
  In  In12  1  0.66409279  0.15082428  0.11961222  1
  In  In13  1  0.66757279  0.15794844  0.64097856  1
  In  In14  1  0.67106113  0.51319916  0.11886200  1
  In  In15  1  0.64395912  0.51829951  0.64663570  1
  In  In16  1  0.66333845  0.82974915  0.12043394  1
  In  In17  1  0.66217821  0.83413159  0.62754309  1
  In  In18  1  0.17891817  -0.01405496  0.37441089  1
  In  In19  1  0.15790413  -0.01008195  0.86981237  1
  In  In20  1  0.17151688  0.35757686  0.36613949  1
  In  In21  1  0.16087336  0.34133935  0.87442945  1
  In  In22  1  0.16671297  0.65394350  0.37065480  1
  In  In23  1  0.17286679  0.68154503  0.88242761  1
  In  In24  1  0.49577653  -0.01173607  0.36659785  1
  In  In25  1  0.49090737  -0.00667349  0.86306052  1
  In  In26  1  0.51070298  0.34114394  0.37997110  1
  In  In27  1  0.51090450  0.33586138  0.87296648  1
  In  In28  1  0.50361230  0.66939605  0.37224321  1
  In  In29  1  0.51613174  0.65473419  0.88763944  1
  In  In30  1  0.81897243  -0.00439868  0.37348550  1
  In  In31  1  0.83673947  -0.00421333  0.87391624  1
  In  In32  1  0.84081876  0.32472627  0.37084352  1
  In  In33  1  0.83187990  0.33046040  0.87600484  1
  In  In34  1  0.83678365  0.68309318  0.37611741  1
  In  In35  1  0.83039159  0.66859351  0.86929311  1
  In  In36  1  -0.01232466  0.17220396  0.37380171  1
  In  In37  1  -0.01170795  0.15375318  0.86924501  1
  In  In38  1  0.01562310  0.50658164  0.37250286  1
  In  In39  1  -0.00870622  0.48521074  0.86817438  1
  In  In40  1  -0.00566699  0.82319123  0.37965860  1
  In  In41  1  -0.00344598  0.83292800  0.87273554  1
  In  In42  1  0.34265555  0.15668353  0.37229559  1
  In  In43  1  0.35069687  0.15520375  0.87407503  1
  In  In44  1  0.32865803  0.51143293  0.37808866  1
  In  In45  1  0.34903209  0.50565091  0.88496822  1
  In  In46  1  0.34299796  0.84369182  0.35843502  1
  In  In47  1  0.32831621  0.83437709  0.88732926  1
  In  In48  1  0.68225012  0.15957446  0.37573820  1
  In  In49  1  0.66992343  0.17854797  0.86619944  1
  In  In50  1  0.65285739  0.50126431  0.37883677  1
  In  In51  1  0.66648971  0.50480732  0.86924523  1
  In  In52  1  0.66665288  0.82941546  0.37384126  1
  In  In53  1  0.67410530  0.82646700  0.86917012  1
  In  In54  1  0.18204006  -0.00936469  0.12953619  1
  In  In55  1  0.16775706  -0.00720254  0.63374140  1
  In  In56  1  0.16619930  0.32472761  0.12607698  1
  In  In57  1  0.15381439  0.34481514  0.62608198  1
  In  In58  1  0.16843888  0.67957914  0.12800573  1
  In  In59  1  0.16561363  0.65685934  0.62386002  1
  In  In60  1  0.51183603  -0.01160396  0.12686175  1
  In  In61  1  0.52001748  -0.01920547  0.64418816  1
  In  In62  1  0.49350540  0.35442672  0.11571379  1
  In  In63  1  0.49786987  0.34861377  0.63007391  1
  In  In64  1  0.49872223  0.66955747  0.12126405  1
  In  In65  1  0.49968585  0.67344053  0.62045604  1
  In  In66  1  0.81919032  -0.01691927  0.10830465  1
  In  In67  1  0.83137784  -0.01051064  0.63824283  1
  In  In68  1  0.83832582  0.34157767  0.11424962  1
  In  In69  1  0.82945898  0.33467896  0.63424830  1
  In  In70  1  0.82774409  0.65897300  0.11546032  1
  In  In71  1  0.80964511  0.69182574  0.65134431  1
  In  In72  1  0.16778530  0.16248706  0.00676006  1
  In  In73  1  0.83063659  0.16700534  0.51224038  1
  In  In74  1  0.16068402  0.17401576  0.50752298  1
  In  In75  1  0.33425114  0.33147452  0.75866070  1
  In  In76  1  0.16847972  0.50491044  0.00261958  1
  In  In77  1  0.33207136  0.66857598  0.75598552  1
  In  In78  1  0.16615168  0.82177426  0.49656496  1
  In  In79  1  0.66883642  0.32773073  0.25444914  1
  In  In80  1  0.83233574  0.50818110  0.51007637  1
  In  In81  1  0.50737039  0.16990448  -0.00535216  1
  In  In82  1  0.00319925  0.66708036  0.24879858  1
  In  In83  1  0.49858425  0.16590471  0.50259843  1
  In  In84  1  0.00172401  0.00384705  0.24252876  1
  In  In85  1  0.33492875  0.33306672  0.24511909  1
  Cu  Cu86  1  0.16730932  0.16273916  0.74692544  1
  Cu  Cu87  1  0.33775043  -0.00464800  0.00125326  1
  Cu  Cu88  1  0.83272446  0.16342787  0.24604204  1
  Cu  Cu89  1  0.66853151  0.66897881  -0.00369508  1
  Cu  Cu90  1  0.66454381  0.66976026  0.50671520  1
  Cu  Cu91  1  0.50479966  0.82931744  0.24522984  1
  Cu  Cu92  1  0.16647313  0.83549143  0.75917258  1
  Cu  Cu93  1  0.16448621  0.50106662  0.75158773  1
  Cu  Cu94  1  -0.00637619  0.67128918  0.50564183  1
  Cu  Cu95  1  0.00775458  0.34904081  0.49737184  1
  Cu  Cu96  1  0.66997804  -0.00333542  -0.00774856  1
  Cu  Cu97  1  0.67067705  0.34027503  -0.00722176  1
  Cu  Cu98  1  0.66307686  0.34040193  0.50896550  1
  Cu  Cu99  1  0.00033936  -0.00588691  -0.00748659  1
  Cu  Cu100  1  0.83571137  0.49447352  0.75423152  1
  Cu  Cu101  1  0.33199187  0.34684180  0.50027983  1
  Cu  Cu102  1  0.82791826  0.83520237  0.24553391  1
  Cu  Cu103  1  0.33996751  -0.00734117  0.49649472  1
  Cu  Cu104  1  0.65956426  -0.01306493  0.50078181  1
  Cu  Cu105  1  0.83787789  0.16537740  0.75607270  1
  Cu  Cu106  1  0.50388760  0.50883446  0.24881143  1
  Cu  Cu107  1  0.83244231  0.50032046  0.24120780  1
  Cu  Cu108  1  0.50120415  0.82736888  0.75236448  1
  Cu  Cu109  1  -0.00722112  0.32929918  -0.00465141  1
  Cu  Cu110  1  0.49922651  0.15652395  0.24710585  1
  Cu  Cu111  1  0.33958209  0.66588087  0.49468239  1
  Cu  Cu112  1  -0.00482408  0.66396762  -0.00476216  1
  Cu  Cu113  1  -0.00948292  -0.00597777  0.51013282  1
  Cu  Cu114  1  0.16304456  0.16347084  0.24738308  1
  Se  Se115  1  0.07725402  0.06730874  0.06236847  1
  Se  Se116  1  0.07342370  0.07634840  0.56404461  1
  Se  Se117  1  0.07518700  0.40692515  0.05669453  1
  Se  Se118  1  0.08559508  0.43274172  0.55333598  1
  Se  Se119  1  0.08125520  0.74181224  0.05071632  1
  Se  Se120  1  0.07352017  0.75280630  0.56687736  1
  Se  Se121  1  0.41639319  0.08124982  0.05878806  1
  Se  Se122  1  0.41574745  0.06980591  0.56149699  1
  Se  Se123  1  0.41953252  0.42427909  0.03824369  1
  Se  Se124  1  0.42044567  0.42314318  0.55379940  1
  Se  Se125  1  0.43354246  0.76498156  0.05209515  1
  Se  Se126  1  0.42035931  0.75243574  0.54638214  1
  Se  Se127  1  0.74991739  0.08460000  0.04499383  1
  Se  Se128  1  0.73721509  0.07095229  0.56117482  1
  Se  Se129  1  0.74904824  0.42378134  0.05165014  1
  Se  Se130  1  0.74065944  0.42062504  0.56944578  1
  Se  Se131  1  0.75176488  0.75191879  0.05101855  1
  Se  Se132  1  0.74910522  0.75052073  0.56043623  1
  Se  Se133  1  0.26383168  0.26181350  0.05326151  1
  Se  Se134  1  0.25748287  0.26446419  0.56214247  1
  Se  Se135  1  0.25746299  0.58986006  0.06378089  1
  Se  Se136  1  0.24885236  0.58932019  0.54720504  1
  Se  Se137  1  0.25310315  0.91280283  0.05379637  1
  Se  Se138  1  0.25366362  0.91737814  0.55678995  1
  Se  Se139  1  0.59279771  0.26245219  0.05942970  1
  Se  Se140  1  0.59026905  0.24972331  0.56521167  1
  Se  Se141  1  0.58227692  0.58630731  0.05002488  1
  Se  Se142  1  0.58353003  0.58184843  0.55743554  1
  Se  Se143  1  0.58629801  0.91684196  0.04866649  1
  Se  Se144  1  0.57309995  0.91033186  0.55585815  1
  Se  Se145  1  0.91071579  0.24457311  0.04878388  1
  Se  Se146  1  0.92753310  0.26703205  0.55712036  1
  Se  Se147  1  0.91172038  0.57807286  0.04575323  1
  Se  Se148  1  0.91262199  0.60147957  0.57203896  1
  Se  Se149  1  0.91442324  0.90981173  0.04399699  1
  Se  Se150  1  0.90737791  0.91206306  0.56159890  1
  Se  Se151  1  0.07982896  0.26015813  0.43786875  1
  Se  Se152  1  0.07858852  0.24838155  0.94086165  1
  Se  Se153  1  0.07844020  0.59361878  0.44859274  1
  Se  Se154  1  0.07599168  0.58257064  0.93569899  1
  Se  Se155  1  0.07432233  0.92473103  0.44452614  1
  Se  Se156  1  0.08656109  0.90884445  0.94499591  1
  Se  Se157  1  0.40700999  0.26001655  0.44156314  1
  Se  Se158  1  0.41059144  0.25945994  0.94081893  1
  Se  Se159  1  0.42490894  0.58201113  0.44277715  1
  Se  Se160  1  0.39874093  0.61299529  0.94815048  1
  Se  Se161  1  0.41873493  0.90951051  0.44084880  1
  Se  Se162  1  0.42448530  0.91942320  0.94523339  1
  Se  Se163  1  0.74388115  0.26217537  0.44785778  1
  Se  Se164  1  0.74814980  0.24706795  0.94531623  1
  Se  Se165  1  0.74492192  0.59205387  0.44225619  1
  Se  Se166  1  0.74990703  0.58504621  0.94041818  1
  Se  Se167  1  0.74951542  0.91130414  0.44649723  1
  Se  Se168  1  0.75352277  0.91118261  0.94132784  1
  Se  Se169  1  0.25385366  0.08020041  0.44749798  1
  Se  Se170  1  0.25556353  0.07575326  0.94197012  1
  Se  Se171  1  0.24630910  0.42518805  0.44612872  1
  Se  Se172  1  0.25645253  0.41062922  0.94281460  1
  Se  Se173  1  0.26050542  0.74517490  0.43181716  1
  Se  Se174  1  0.25644550  0.74511594  0.95748692  1
  Se  Se175  1  0.58926829  0.07680877  0.44006469  1
  Se  Se176  1  0.58821719  0.07624961  0.93269593  1
  Se  Se177  1  0.58012556  0.42264310  0.45545763  1
  Se  Se178  1  0.58465504  0.42290261  0.94291206  1
  Se  Se179  1  0.58488690  0.74902315  0.44508721  1
  Se  Se180  1  0.58803380  0.75777489  0.94542140  1
  Se  Se181  1  0.91698790  0.07698265  0.44561223  1
  Se  Se182  1  0.91449116  0.08190793  0.94767845  1
  Se  Se183  1  0.91631896  0.42010471  0.44024859  1
  Se  Se184  1  0.91124711  0.41755220  0.94610900  1
  Se  Se185  1  0.91021013  0.75656665  0.45501227  1
  Se  Se186  1  0.91416780  0.74871891  0.94131452  1
  Se  Se187  1  0.24559593  0.24236553  0.31013212  1
  Se  Se188  1  0.24235350  0.23729767  0.81527926  1
  Se  Se189  1  0.24442517  0.57204368  0.30093663  1
  Se  Se190  1  0.24390767  0.57415112  0.81608159  1
  Se  Se191  1  0.24698165  0.91651223  0.29463950  1
  Se  Se192  1  0.25726124  0.91409584  0.80919033  1
  Se  Se193  1  0.57465759  0.23518572  0.31245653  1
  Se  Se194  1  0.56724881  0.24094601  0.80183155  1
  Se  Se195  1  0.59045833  0.58681803  0.30299670  1
  Se  Se196  1  0.57820468  0.58647571  0.80344803  1
  Se  Se197  1  0.58772730  0.91264476  0.30156681  1
  Se  Se198  1  0.58613812  0.91215445  0.80318573  1
  Se  Se199  1  0.91745936  0.24877865  0.29526669  1
  Se  Se200  1  0.92092123  0.25416336  0.80531187  1
  Se  Se201  1  0.90826448  0.57880924  0.30896192  1
  Se  Se202  1  0.91850997  0.58133909  0.80453799  1
  Se  Se203  1  0.91326016  0.91139921  0.30598290  1
  Se  Se204  1  0.92984686  0.92807032  0.80424240  1
  Se  Se205  1  0.08815551  0.08666149  0.31452087  1
  Se  Se206  1  0.08373126  0.08227360  0.80343589  1
  Se  Se207  1  0.07001778  0.41175426  0.29986211  1
  Se  Se208  1  0.08160384  0.41058284  0.79812955  1
  Se  Se209  1  0.09077899  0.75982188  0.30928630  1
  Se  Se210  1  0.08626053  0.74640926  0.80799175  1
  Se  Se211  1  0.41349354  0.07477328  0.29884057  1
  Se  Se212  1  0.41647958  0.08288129  0.79418160  1
  Se  Se213  1  0.42655509  0.42074484  0.30753027  1
  Se  Se214  1  0.42553909  0.43054703  0.80640584  1
  Se  Se215  1  0.42061185  0.74610654  0.29926469  1
  Se  Se216  1  0.42157624  0.75412828  0.81702006  1
  Se  Se217  1  0.74970687  0.07966371  0.29833306  1
  Se  Se218  1  0.75204066  0.08322712  0.80710929  1
  Se  Se219  1  0.75752478  0.42528496  0.31110089  1
  Se  Se220  1  0.74931225  0.41223647  0.80628619  1
  Se  Se221  1  0.75083124  0.74899045  0.30185811  1
  Se  Se222  1  0.75750394  0.75274746  0.79595805  1
  Se  Se223  1  0.25237061  0.08301202  0.19887436  1
  Se  Se224  1  0.25263021  0.07758834  0.69871774  1
  Se  Se225  1  0.24567294  0.42360158  0.18694299  1
  Se  Se226  1  0.25072448  0.42538292  0.69220174  1
  Se  Se227  1  0.25390068  0.75479738  0.19621815  1
  Se  Se228  1  0.24144491  0.75697070  0.69173528  1
  Se  Se229  1  0.58860097  0.07762468  0.19651216  1
  Se  Se230  1  0.56930327  0.09152266  0.70494231  1
  Se  Se231  1  0.58306472  0.42116289  0.19288787  1
  Se  Se232  1  0.59463944  0.40112569  0.70131785  1
  Se  Se233  1  0.58784651  0.74486089  0.19247987  1
  Se  Se234  1  0.58126286  0.74489823  0.69558129  1
  Se  Se235  1  0.90550194  0.08270550  0.18069800  1
  Se  Se236  1  0.91693671  0.08169499  0.69854793  1
  Se  Se237  1  0.91590552  0.41556833  0.19149143  1
  Se  Se238  1  0.92015340  0.41481388  0.69747502  1
  Se  Se239  1  0.91093952  0.75479879  0.18741087  1
  Se  Se240  1  0.92779137  0.73877763  0.70582305  1
  Se  Se241  1  0.08096277  0.24707111  0.19544900  1
  Se  Se242  1  0.08770283  0.25099608  0.69560059  1
  Se  Se243  1  0.08966795  0.57513335  0.18881636  1
  Se  Se244  1  0.08368082  0.58620754  0.69875406  1
  Se  Se245  1  0.08691297  0.90366135  0.19072229  1
  Se  Se246  1  0.08295324  0.91893491  0.70448806  1
  Se  Se247  1  0.43151222  0.24533260  0.18552976  1
  Se  Se248  1  0.41601908  0.24720924  0.68885231  1
  Se  Se249  1  0.41813649  0.58421358  0.19263649  1
  Se  Se250  1  0.41924600  0.58096495  0.69237227  1
  Se  Se251  1  0.42023457  0.91551071  0.19401572  1
  Se  Se252  1  0.41250571  0.90877389  0.69962350  1
  Se  Se253  1  0.75277968  0.24509163  0.18539585  1
  Se  Se254  1  0.75279863  0.24701821  0.70178304  1
  Se  Se255  1  0.74975189  0.58816938  0.19451922  1
  Se  Se256  1  0.74843153  0.58108529  0.70793861  1
  Se  Se257  1  0.74589822  0.91700862  0.19028434  1
  Se  Se258  1  0.72823026  0.92693993  0.69899582  1
