# generated using pymatgen
data_In86Cu29Se144
_symmetry_space_group_name_H-M   'P 1'
_cell_length_a   17.58026458
_cell_length_b   17.58501077
_cell_length_c   23.44172048
_cell_angle_alpha   90.00865682
_cell_angle_beta   90.01725217
_cell_angle_gamma   90.00754819
_symmetry_Int_Tables_number   1
_chemical_formula_structural   In86Cu29Se144
_chemical_formula_sum   'In86 Cu29 Se144'
_cell_volume   7246.98730086
_cell_formula_units_Z   1
loop_
 _symmetry_equiv_pos_site_id
 _symmetry_equiv_pos_as_xyz
  1  'x, y, z'
loop_
 _atom_site_type_symbol
 _atom_site_label
 _atom_site_symmetry_multiplicity
 _atom_site_fract_x
 _atom_site_fract_y
 _atom_site_fract_z
 _atom_site_occupancy
  In  In0  1  -0.00800676  0.17349862  0.10651941  1
  In  In1  1  -0.01450270  0.16180057  0.62915109  1
  In  In2  1  -0.00575982  0.48929293  0.10798907  1
  In  In3  1  0.00940604  0.49901326  0.63200137  1
  In  In4  1  0.00181506  0.83304888  0.11616109  1
  In  In5  1  -0.00834617  0.83984658  0.64148672  1
  In  In6  1  0.34820302  0.17420614  0.11634334  1
  In  In7  1  0.34179252  0.15064599  0.63172729  1
  In  In8  1  0.32471403  0.50395205  0.12185604  1
  In  In9  1  0.36184041  0.49802715  0.63839612  1
  In  In10  1  0.33200681  0.82968723  0.11478855  1
  In  In11  1  0.35364508  0.81760530  0.64743419  1
  In  In12  1  0.65613937  0.16084911  0.11451096  1
  In  In13  1  0.66447623  0.16101029  0.62955098  1
  In  In14  1  0.67689411  0.49984454  0.12334434  1
  In  In15  1  0.64743823  0.49981055  0.63339981  1
  In  In16  1  0.66721640  0.83666238  0.12326752  1
  In  In17  1  0.67811583  0.84144494  0.62240935  1
  In  In18  1  0.17137074  0.00434590  0.37303498  1
  In  In19  1  0.16406288  0.00132370  0.87829207  1
  In  In20  1  0.18019688  0.31967165  0.36874081  1
  In  In21  1  0.15594969  0.33886221  0.89349456  1
  In  In22  1  0.15622206  0.66304684  0.37331846  1
  In  In23  1  0.16729275  0.67105163  0.87473629  1
  In  In24  1  0.51350050  -0.01258196  0.38670076  1
  In  In25  1  0.50339372  -0.00360844  0.86521120  1
  In  In26  1  0.50287646  0.33838195  0.38622797  1
  In  In27  1  0.50014340  0.32234287  0.87351735  1
  In  In28  1  0.51059928  0.65969242  0.38374245  1
  In  In29  1  0.50158785  0.68592416  0.86482368  1
  In  In30  1  0.82312192  0.01172124  0.38394834  1
  In  In31  1  0.82954466  -0.00278461  0.87555612  1
  In  In32  1  0.81285762  0.31914922  0.37586019  1
  In  In33  1  0.81950018  0.33977973  0.89027549  1
  In  In34  1  0.82819730  0.68325054  0.38006946  1
  In  In35  1  0.84544036  0.66143041  0.87793706  1
  In  In36  1  -0.00909965  0.15073586  0.37337560  1
  In  In37  1  0.00236503  0.16266430  0.88739422  1
  In  In38  1  0.00572759  0.50173223  0.37264209  1
  In  In39  1  -0.00937267  0.50228473  0.88268788  1
  In  In40  1  -0.00615123  0.82314182  0.37425225  1
  In  In41  1  -0.00022544  0.83483356  0.87633749  1
  In  In42  1  0.33688495  0.18047689  0.37042077  1
  In  In43  1  0.34214398  0.15486799  0.88284217  1
  In  In44  1  0.36050649  0.50495027  0.36644361  1
  In  In45  1  0.32422277  0.49874593  0.87260504  1
  In  In46  1  0.33775600  0.84388907  0.37407713  1
  In  In47  1  0.33535527  0.83396789  0.86866703  1
  In  In48  1  0.67588515  0.16222585  0.38614838  1
  In  In49  1  0.66877247  0.16316643  0.87548415  1
  In  In50  1  0.63659619  0.49820837  0.36706522  1
  In  In51  1  0.68027462  0.50308086  0.87423333  1
  In  In52  1  0.66679607  0.83585282  0.37629317  1
  In  In53  1  0.64950907  0.84782244  0.87873086  1
  In  In54  1  0.16309381  -0.00525020  0.11372657  1
  In  In55  1  0.17712733  -0.01224183  0.63971502  1
  In  In56  1  0.17641522  0.34397442  0.11327475  1
  In  In57  1  0.16965194  0.33048121  0.62863723  1
  In  In58  1  0.16959540  0.66421898  0.11499909  1
  In  In59  1  0.16388079  0.67287198  0.63596908  1
  In  In60  1  0.50796469  0.00711045  0.11824479  1
  In  In61  1  0.50241702  -0.00127930  0.62673014  1
  In  In62  1  0.51113595  0.31692510  0.12414210  1
  In  In63  1  0.51792039  0.34302927  0.61303475  1
  In  In64  1  0.49429799  0.67995328  0.12487166  1
  In  In65  1  0.49736673  0.66235435  0.62369216  1
  In  In66  1  0.82469936  -0.00856734  0.11745838  1
  In  In67  1  0.83181290  -0.00247882  0.63342193  1
  In  In68  1  0.81056317  0.32411366  0.09609599  1
  In  In69  1  0.82671919  0.31118611  0.62125541  1
  In  In70  1  0.82616120  0.66299413  0.11757093  1
  In  In71  1  0.82358027  0.68133630  0.63038951  1
  In  In72  1  -0.00544684  -0.00145034  0.23633820  1
  In  In73  1  0.33730285  -0.00043716  0.25031745  1
  In  In74  1  0.17723965  0.49977189  0.50749623  1
  In  In75  1  0.66641069  0.66881021  0.75196368  1
  In  In76  1  0.17027665  0.83512185  0.49239226  1
  In  In77  1  0.33660102  0.66641232  0.24420361  1
  In  In78  1  -0.00501714  0.33557964  0.22890256  1
  In  In79  1  0.50209324  0.50007255  -0.00300635  1
  In  In80  1  0.65980828  0.33445695  0.24798153  1
  In  In81  1  0.16617940  0.16437918  0.50446373  1
  In  In82  1  -0.00759165  0.32974019  0.76487433  1
  In  In83  1  0.00010634  0.66933133  0.23973582  1
  In  In84  1  0.82472189  0.50157523  0.50186180  1
  In  In85  1  0.33440343  0.32842194  0.75854810  1
  Cu  Cu86  1  0.33577918  -0.00236748  -0.00672315  1
  Cu  Cu87  1  0.82815985  0.16945767  0.25047175  1
  Cu  Cu88  1  0.17164176  0.49055099  0.24281500  1
  Cu  Cu89  1  0.33657418  0.32942051  -0.00351045  1
  Cu  Cu90  1  0.50584658  0.16030184  0.24823164  1
  Cu  Cu91  1  0.82363790  0.84290195  0.25103729  1
  Cu  Cu92  1  0.16712077  0.51227348  0.75363530  1
  Cu  Cu93  1  0.83772253  0.49081578  0.75634655  1
  Cu  Cu94  1  0.16096833  0.16655163  0.76288502  1
  Cu  Cu95  1  0.34319277  0.33619426  0.49867434  1
  Cu  Cu96  1  0.82633107  0.15985324  0.75317945  1
  Cu  Cu97  1  0.66412168  0.67164891  0.50354549  1
  Cu  Cu98  1  0.33407701  0.67122312  -0.00568428  1
  Cu  Cu99  1  0.50422849  0.16442486  0.75084533  1
  Cu  Cu100  1  0.16042051  0.83850418  0.75940748  1
  Cu  Cu101  1  0.34078392  0.66773814  0.50639259  1
  Cu  Cu102  1  0.67151620  -0.00058646  0.50660947  1
  Cu  Cu103  1  0.50654706  0.83450960  0.24942597  1
  Cu  Cu104  1  -0.00898714  0.67688695  0.50914487  1
  Cu  Cu105  1  0.17627587  0.16812187  0.24129727  1
  Cu  Cu106  1  0.66336540  0.00021681  -0.00448843  1
  Cu  Cu107  1  -0.00289560  -0.00372732  -0.00374904  1
  Cu  Cu108  1  0.83345842  0.83074617  0.75667536  1
  Cu  Cu109  1  -0.01094009  0.32914663  0.49599841  1
  Cu  Cu110  1  0.34282619  -0.00378863  0.50585197  1
  Cu  Cu111  1  -0.00937500  -0.00327040  0.50845584  1
  Cu  Cu112  1  0.00573185  0.67183236  -0.00399064  1
  Cu  Cu113  1  0.82824364  0.50867181  0.24438942  1
  Cu  Cu114  1  0.66913663  0.67329346  -0.00530228  1
  Se  Se115  1  0.07951498  0.08097146  0.04972195  1
  Se  Se116  1  0.08067665  0.07185988  0.56601993  1
  Se  Se117  1  0.09157618  0.42101080  0.04559702  1
  Se  Se118  1  0.07489782  0.40327230  0.55573196  1
  Se  Se119  1  0.08943462  0.75314977  0.05028332  1
  Se  Se120  1  0.08079632  0.75521736  0.56224375  1
  Se  Se121  1  0.41859627  0.08020441  0.04917198  1
  Se  Se122  1  0.42371355  0.08574001  0.55407729  1
  Se  Se123  1  0.41514347  0.40934855  0.05988831  1
  Se  Se124  1  0.42040522  0.42411821  0.55337571  1
  Se  Se125  1  0.41967231  0.75253259  0.04697146  1
  Se  Se126  1  0.41785385  0.75577577  0.55921546  1
  Se  Se127  1  0.74844788  0.08157052  0.05048431  1
  Se  Se128  1  0.75431901  0.08083118  0.56162979  1
  Se  Se129  1  0.74746988  0.43412012  0.04184882  1
  Se  Se130  1  0.74238327  0.41420874  0.56705002  1
  Se  Se131  1  0.75011944  0.75552861  0.05239261  1
  Se  Se132  1  0.75345709  0.75341101  0.55057789  1
  Se  Se133  1  0.25293132  0.24687861  0.05133330  1
  Se  Se134  1  0.26311067  0.25629356  0.56016369  1
  Se  Se135  1  0.25341790  0.58360672  0.04620909  1
  Se  Se136  1  0.26019443  0.59064678  0.56984875  1
  Se  Se137  1  0.25088168  0.91475055  0.04786094  1
  Se  Se138  1  0.25610559  0.91641817  0.56024501  1
  Se  Se139  1  0.59145298  0.25663632  0.04582227  1
  Se  Se140  1  0.57489254  0.23232735  0.55835035  1
  Se  Se141  1  0.58726754  0.59470070  0.05750307  1
  Se  Se142  1  0.58477686  0.58446583  0.55531047  1
  Se  Se143  1  0.58278173  0.91538440  0.05205266  1
  Se  Se144  1  0.58486363  0.91600978  0.55625710  1
  Se  Se145  1  0.91961145  0.26371321  0.03993298  1
  Se  Se146  1  0.91606906  0.24026885  0.55077870  1
  Se  Se147  1  0.91970657  0.59110462  0.05064981  1
  Se  Se148  1  0.91905206  0.58607543  0.56562668  1
  Se  Se149  1  0.91433879  0.91356295  0.05122172  1
  Se  Se150  1  0.91380476  0.91108360  0.56355359  1
  Se  Se151  1  0.07703753  0.25172852  0.43690035  1
  Se  Se152  1  0.08283505  0.24533143  0.95580904  1
  Se  Se153  1  0.07259915  0.59103232  0.45276066  1
  Se  Se154  1  0.08532679  0.58477367  0.94276964  1
  Se  Se155  1  0.07181161  0.92873018  0.43913850  1
  Se  Se156  1  0.08458029  0.91397358  0.94669627  1
  Se  Se157  1  0.41981224  0.24479616  0.44734507  1
  Se  Se158  1  0.42219179  0.24559947  0.94769055  1
  Se  Se159  1  0.41922280  0.58163955  0.44976000  1
  Se  Se160  1  0.41586002  0.59107290  0.93422665  1
  Se  Se161  1  0.41947131  0.90905436  0.45071020  1
  Se  Se162  1  0.41896891  0.91750998  0.93787853  1
  Se  Se163  1  0.75110778  0.24785625  0.45723184  1
  Se  Se164  1  0.74594444  0.24171124  0.95034077  1
  Se  Se165  1  0.73897637  0.58938404  0.43766209  1
  Se  Se166  1  0.75372276  0.58683510  0.94656671  1
  Se  Se167  1  0.75032402  0.91613279  0.44775956  1
  Se  Se168  1  0.74738583  0.91356564  0.94589550  1
  Se  Se169  1  0.26264662  0.07704451  0.44364923  1
  Se  Se170  1  0.24636572  0.08445939  0.94877525  1
  Se  Se171  1  0.25824404  0.41339763  0.43722081  1
  Se  Se172  1  0.25504060  0.42002197  0.94963876  1
  Se  Se173  1  0.26049735  0.73563294  0.43697358  1
  Se  Se174  1  0.25156765  0.75549206  0.94160944  1
  Se  Se175  1  0.58689393  0.08113842  0.45168562  1
  Se  Se176  1  0.57874295  0.07929841  0.94001536  1
  Se  Se177  1  0.60128038  0.40965539  0.44857085  1
  Se  Se178  1  0.59054106  0.41182953  0.93707327  1
  Se  Se179  1  0.58324991  0.75555870  0.44719942  1
  Se  Se180  1  0.57844361  0.75090506  0.94539562  1
  Se  Se181  1  0.91457771  0.08564296  0.45318661  1
  Se  Se182  1  0.90939690  0.07951653  0.94784614  1
  Se  Se183  1  0.91598373  0.41359041  0.43614846  1
  Se  Se184  1  0.92486229  0.40675879  0.94874537  1
  Se  Se185  1  0.91235362  0.75895627  0.45221756  1
  Se  Se186  1  0.91641039  0.75324739  0.94705421  1
  Se  Se187  1  0.26042886  0.25198240  0.29173525  1
  Se  Se188  1  0.24047708  0.24765422  0.82210553  1
  Se  Se189  1  0.24296420  0.57488361  0.30671483  1
  Se  Se190  1  0.25483853  0.59178798  0.80436312  1
  Se  Se191  1  0.23862808  0.90752221  0.30322525  1
  Se  Se192  1  0.24747163  0.92325755  0.80671012  1
  Se  Se193  1  0.58205977  0.24033325  0.31280552  1
  Se  Se194  1  0.58701545  0.24776000  0.80397309  1
  Se  Se195  1  0.57575637  0.59389741  0.29887867  1
  Se  Se196  1  0.57834408  0.57640411  0.81028449  1
  Se  Se197  1  0.58519287  0.91912178  0.30507086  1
  Se  Se198  1  0.57983026  0.90974463  0.79541090  1
  Se  Se199  1  0.91508750  0.24920381  0.30496266  1
  Se  Se200  1  0.90109938  0.23914051  0.81920298  1
  Se  Se201  1  0.91144854  0.58350593  0.30718519  1
  Se  Se202  1  0.92021760  0.57899093  0.80356082  1
  Se  Se203  1  0.91104887  0.91774158  0.30981087  1
  Se  Se204  1  0.91627829  0.91669294  0.80696395  1
  Se  Se205  1  0.09114408  0.08970599  0.29909042  1
  Se  Se206  1  0.07447663  0.08293204  0.81076745  1
  Se  Se207  1  0.08645844  0.41309586  0.30214430  1
  Se  Se208  1  0.09170302  0.42382754  0.81124604  1
  Se  Se209  1  0.09176330  0.75979076  0.30254595  1
  Se  Se210  1  0.07804890  0.74864889  0.80615082  1
  Se  Se211  1  0.42752096  0.08457520  0.31320806  1
  Se  Se212  1  0.41471494  0.08574060  0.80229898  1
  Se  Se213  1  0.42075209  0.40010660  0.30671888  1
  Se  Se214  1  0.42621266  0.42486218  0.80977114  1
  Se  Se215  1  0.42292217  0.75607859  0.30889140  1
  Se  Se216  1  0.41612444  0.75717824  0.79435426  1
  Se  Se217  1  0.74861684  0.08675215  0.30643352  1
  Se  Se218  1  0.74304394  0.07447602  0.80440645  1
  Se  Se219  1  0.75477083  0.42453184  0.30781802  1
  Se  Se220  1  0.75097161  0.40927174  0.80595743  1
  Se  Se221  1  0.74776084  0.75236027  0.30408025  1
  Se  Se222  1  0.75187967  0.75323569  0.81819249  1
  Se  Se223  1  0.25061325  0.08266049  0.18249629  1
  Se  Se224  1  0.24315994  0.09208534  0.70131510  1
  Se  Se225  1  0.25789061  0.40977656  0.19233115  1
  Se  Se226  1  0.24504383  0.42547901  0.69521680  1
  Se  Se227  1  0.24236100  0.75522383  0.18923968  1
  Se  Se228  1  0.24353746  0.75529498  0.70480356  1
  Se  Se229  1  0.58917697  0.08044812  0.19350436  1
  Se  Se230  1  0.58538612  0.07617098  0.70001749  1
  Se  Se231  1  0.57474564  0.42662563  0.18758116  1
  Se  Se232  1  0.57325471  0.41248911  0.70058660  1
  Se  Se233  1  0.58572308  0.75118462  0.19342459  1
  Se  Se234  1  0.58382034  0.75694088  0.68669317  1
  Se  Se235  1  0.90636482  0.09719339  0.18407511  1
  Se  Se236  1  0.91652502  0.07989485  0.70363355  1
  Se  Se237  1  0.89450887  0.42356209  0.17940135  1
  Se  Se238  1  0.91233920  0.41148175  0.68926222  1
  Se  Se239  1  0.90514002  0.76409153  0.18965934  1
  Se  Se240  1  0.91413830  0.74378781  0.70425754  1
  Se  Se241  1  0.09068082  0.24104200  0.17976921  1
  Se  Se242  1  0.08517865  0.24555631  0.69736741  1
  Se  Se243  1  0.08841739  0.57120861  0.18501523  1
  Se  Se244  1  0.07740818  0.58926102  0.70163704  1
  Se  Se245  1  0.09286967  0.90562235  0.19044084  1
  Se  Se246  1  0.07796013  0.92361462  0.70581359  1
  Se  Se247  1  0.42319938  0.24473284  0.19613408  1
  Se  Se248  1  0.42302948  0.24813097  0.69172337  1
  Se  Se249  1  0.42625499  0.57338986  0.18885421  1
  Se  Se250  1  0.41543869  0.60079506  0.70396147  1
  Se  Se251  1  0.42274418  0.90907541  0.18774093  1
  Se  Se252  1  0.39126094  0.94599965  0.68979340  1
  Se  Se253  1  0.75246316  0.24935123  0.18567985  1
  Se  Se254  1  0.74716339  0.24646723  0.69963249  1
  Se  Se255  1  0.74418919  0.59311126  0.19430346  1
  Se  Se256  1  0.75825790  0.57234733  0.69351302  1
  Se  Se257  1  0.74319815  0.92516912  0.19535322  1
  Se  Se258  1  0.75024220  0.91297678  0.70288400  1
