# generated using pymatgen
data_In86Cu29Se144
_symmetry_space_group_name_H-M   'P 1'
_cell_length_a   17.58261458
_cell_length_b   17.59033548
_cell_length_c   23.44925290
_cell_angle_alpha   89.99583433
_cell_angle_beta   90.01163545
_cell_angle_gamma   89.98087693
_symmetry_Int_Tables_number   1
_chemical_formula_structural   In86Cu29Se144
_chemical_formula_sum   'In86 Cu29 Se144'
_cell_volume   7252.48025188
_cell_formula_units_Z   1
loop_
 _symmetry_equiv_pos_site_id
 _symmetry_equiv_pos_as_xyz
  1  'x, y, z'
loop_
 _atom_site_type_symbol
 _atom_site_label
 _atom_site_symmetry_multiplicity
 _atom_site_fract_x
 _atom_site_fract_y
 _atom_site_fract_z
 _atom_site_occupancy
  In  In0  1  0.00990543  0.16160481  0.13050088  1
  In  In1  1  -0.00294108  0.17158550  0.63196832  1
  In  In2  1  -0.01275972  0.49148470  0.12392768  1
  In  In3  1  -0.00319662  0.49335082  0.62806493  1
  In  In4  1  0.01300797  0.83981546  0.12637177  1
  In  In5  1  0.01881551  0.83221912  0.62265704  1
  In  In6  1  0.32835035  0.16946375  0.11796687  1
  In  In7  1  0.33506581  0.16556988  0.62769792  1
  In  In8  1  0.33964323  0.49446847  0.12374587  1
  In  In9  1  0.35294760  0.48144492  0.64083255  1
  In  In10  1  0.34941162  0.83301793  0.12945892  1
  In  In11  1  0.32683602  0.84219137  0.63320855  1
  In  In12  1  0.65340613  0.16374545  0.11851921  1
  In  In13  1  0.65294916  0.17927123  0.63927595  1
  In  In14  1  0.66353829  0.49569402  0.11846369  1
  In  In15  1  0.65440376  0.50743719  0.63624533  1
  In  In16  1  0.64989776  0.85354346  0.13099029  1
  In  In17  1  0.65934178  0.83656650  0.63468012  1
  In  In18  1  0.16554301  -0.00341528  0.37213319  1
  In  In19  1  0.19286515  0.02472317  0.86495297  1
  In  In20  1  0.16781363  0.33071774  0.36925333  1
  In  In21  1  0.16133425  0.32451511  0.87164374  1
  In  In22  1  0.18940708  0.66387261  0.37426158  1
  In  In23  1  0.17987815  0.66563988  0.87204144  1
  In  In24  1  0.50618814  0.00672488  0.36010893  1
  In  In25  1  0.49113438  -0.00390607  0.88238162  1
  In  In26  1  0.48702555  0.34017774  0.39075519  1
  In  In27  1  0.49359595  0.32423807  0.88072185  1
  In  In28  1  0.48449063  0.66467851  0.37176796  1
  In  In29  1  0.49089826  0.65885446  0.88279967  1
  In  In30  1  0.83217081  0.00165694  0.36651570  1
  In  In31  1  0.83070869  -0.00146121  0.86773614  1
  In  In32  1  0.83277368  0.32327414  0.37351959  1
  In  In33  1  0.83914231  0.33996093  0.87157345  1
  In  In34  1  0.83934123  0.66341857  0.37335690  1
  In  In35  1  0.81485867  0.66377663  0.87340069  1
  In  In36  1  0.00719207  0.16859258  0.36850913  1
  In  In37  1  0.01146614  0.17277398  0.86914281  1
  In  In38  1  0.00172632  0.49373841  0.36732448  1
  In  In39  1  0.00367674  0.48226014  0.87680391  1
  In  In40  1  0.00718367  0.85024236  0.37258049  1
  In  In41  1  -0.01114537  0.84191767  0.87579241  1
  In  In42  1  0.34732544  0.17801907  0.36807251  1
  In  In43  1  0.33248790  0.16460155  0.88459046  1
  In  In44  1  0.33682914  0.50097316  0.36830697  1
  In  In45  1  0.34102481  0.50103754  0.87431706  1
  In  In46  1  0.33397484  0.82685545  0.36806956  1
  In  In47  1  0.34575536  0.83950959  0.87940207  1
  In  In48  1  0.65892117  0.15884066  0.37122693  1
  In  In49  1  0.64935613  0.15303070  0.86591604  1
  In  In50  1  0.65904237  0.48235367  0.37566380  1
  In  In51  1  0.66245795  0.49986027  0.87520452  1
  In  In52  1  0.64872349  0.84051128  0.36969662  1
  In  In53  1  0.64844406  0.81913228  0.86707488  1
  In  In54  1  0.16303629  0.00716825  0.12963320  1
  In  In55  1  0.17637458  -0.00574578  0.63125331  1
  In  In56  1  0.18423129  0.31738819  0.13280581  1
  In  In57  1  0.17017122  0.33336116  0.63053061  1
  In  In58  1  0.17684101  0.68056139  0.12579330  1
  In  In59  1  0.17265704  0.68099908  0.62413827  1
  In  In60  1  0.49036685  0.01383521  0.11877823  1
  In  In61  1  0.48767776  0.00999638  0.63531837  1
  In  In62  1  0.47511838  0.32507322  0.09965560  1
  In  In63  1  0.49439037  0.33531200  0.62744491  1
  In  In64  1  0.48633742  0.66124441  0.11251233  1
  In  In65  1  0.50377960  0.65814475  0.63600958  1
  In  In66  1  0.83713513  -0.00065672  0.13075836  1
  In  In67  1  0.82748543  0.00731771  0.63239983  1
  In  In68  1  0.83583650  0.34746686  0.12692684  1
  In  In69  1  0.83357491  0.32818082  0.63430232  1
  In  In70  1  0.82919924  0.65574760  0.11822120  1
  In  In71  1  0.82703532  0.65481652  0.62751686  1
  In  In72  1  -0.00145240  0.66597420  0.74361920  1
  In  In73  1  0.83234102  0.83988118  0.49953638  1
  In  In74  1  0.82709366  0.82748192  0.00303198  1
  In  In75  1  0.82953968  0.49708919  0.49710657  1
  In  In76  1  0.82955654  0.17079059  -0.00599239  1
  In  In77  1  0.49114586  0.83457527  0.49857162  1
  In  In78  1  0.17514584  0.50118863  0.50260956  1
  In  In79  1  0.00598131  0.66720730  0.24564141  1
  In  In80  1  0.66341448  0.66691378  0.24063579  1
  In  In81  1  0.66489947  0.32960059  0.24366252  1
  In  In82  1  0.17638214  0.83977763  -0.00651870  1
  In  In83  1  0.17319394  0.17144287  0.50047830  1
  In  In84  1  0.82940228  0.16810619  0.50636103  1
  In  In85  1  0.17405128  0.49200968  0.00389210  1
  Cu  Cu86  1  0.16877790  0.16453083  0.74958587  1
  Cu  Cu87  1  0.66164389  -0.00734457  -0.00331320  1
  Cu  Cu88  1  0.33590339  0.66628245  0.50054874  1
  Cu  Cu89  1  0.65631881  0.33489860  0.50911574  1
  Cu  Cu90  1  0.83354883  0.16800644  0.75511804  1
  Cu  Cu91  1  0.17225794  0.49476123  0.75540982  1
  Cu  Cu92  1  0.49251064  0.16502431  0.75580000  1
  Cu  Cu93  1  0.33184477  -0.00016191  0.50363787  1
  Cu  Cu94  1  0.17444447  0.83963566  0.24756389  1
  Cu  Cu95  1  0.49526847  0.17145305  0.24027882  1
  Cu  Cu96  1  0.82966725  0.49887304  0.75158156  1
  Cu  Cu97  1  0.00129660  0.32837032  -0.00244309  1
  Cu  Cu98  1  0.49596673  0.83055893  0.75600608  1
  Cu  Cu99  1  0.67065721  0.34144613  -0.00658146  1
  Cu  Cu100  1  0.65151657  0.00748226  0.49752191  1
  Cu  Cu101  1  0.83102360  0.83881122  0.75066891  1
  Cu  Cu102  1  0.83872418  0.16561753  0.24893704  1
  Cu  Cu103  1  0.83276623  0.83280305  0.24853667  1
  Cu  Cu104  1  0.66052247  0.66370742  -0.00466456  1
  Cu  Cu105  1  0.01018435  0.00705905  -0.00038247  1
  Cu  Cu106  1  0.49869006  0.49441896  0.24446535  1
  Cu  Cu107  1  0.17265716  0.49816712  0.24746212  1
  Cu  Cu108  1  0.17192141  0.16493416  0.25046348  1
  Cu  Cu109  1  0.16708059  0.83645400  0.75246930  1
  Cu  Cu110  1  0.50122747  0.49466289  0.75884275  1
  Cu  Cu111  1  0.65856541  0.66109327  0.50808115  1
  Cu  Cu112  1  -0.00011524  0.65534289  0.00069160  1
  Cu  Cu113  1  0.00635511  0.00385129  0.49860904  1
  Cu  Cu114  1  0.01145776  0.66953322  0.49947169  1
  Se  Se115  1  0.08964182  0.08941956  0.05421783  1
  Se  Se116  1  0.08180452  0.08268222  0.56222745  1
  Se  Se117  1  0.08034263  0.40515823  0.06234581  1
  Se  Se118  1  0.07901579  0.41086313  0.55722736  1
  Se  Se119  1  0.07766102  0.74507212  0.05219194  1
  Se  Se120  1  0.09461854  0.75527461  0.54774952  1
  Se  Se121  1  0.43186098  0.11299014  0.04718818  1
  Se  Se122  1  0.41525576  0.08292992  0.55596463  1
  Se  Se123  1  0.42144083  0.43839229  0.04080900  1
  Se  Se124  1  0.41999521  0.42215179  0.55588673  1
  Se  Se125  1  0.41860289  0.76105636  0.04873342  1
  Se  Se126  1  0.41188149  0.74469586  0.56584056  1
  Se  Se127  1  0.74777129  0.07143516  0.05425445  1
  Se  Se128  1  0.73274456  0.08072652  0.56159084  1
  Se  Se129  1  0.75405737  0.41783400  0.05156878  1
  Se  Se130  1  0.74380893  0.41312406  0.56497934  1
  Se  Se131  1  0.73093928  0.74519772  0.06356429  1
  Se  Se132  1  0.74270302  0.74571292  0.55948109  1
  Se  Se133  1  0.24776210  0.25384019  0.04812810  1
  Se  Se134  1  0.26205028  0.26319599  0.55750974  1
  Se  Se135  1  0.25697753  0.59351896  0.05770275  1
  Se  Se136  1  0.26245813  0.58662642  0.56647262  1
  Se  Se137  1  0.25387143  0.92166839  0.06491637  1
  Se  Se138  1  0.24963575  0.91465401  0.55491989  1
  Se  Se139  1  0.59118606  0.25981143  0.05054219  1
  Se  Se140  1  0.57681757  0.24615958  0.55945576  1
  Se  Se141  1  0.58159761  0.58039715  0.05239143  1
  Se  Se142  1  0.57551429  0.57842595  0.55857567  1
  Se  Se143  1  0.57265679  0.92083467  0.05280362  1
  Se  Se144  1  0.58130788  0.92219173  0.56054885  1
  Se  Se145  1  0.92009932  0.25096915  0.06052031  1
  Se  Se146  1  0.92404542  0.26133985  0.55703325  1
  Se  Se147  1  0.91306592  0.57499639  0.05056966  1
  Se  Se148  1  0.92679399  0.59097743  0.55501832  1
  Se  Se149  1  0.92634182  0.92262176  0.05406478  1
  Se  Se150  1  0.92274051  0.92781860  0.56074394  1
  Se  Se151  1  0.07627821  0.25802287  0.44338976  1
  Se  Se152  1  0.08582870  0.24509463  0.94763096  1
  Se  Se153  1  0.08275243  0.58703966  0.43591771  1
  Se  Se154  1  0.08428811  0.58394420  0.93879472  1
  Se  Se155  1  0.08913115  0.91768169  0.44872984  1
  Se  Se156  1  0.08279827  0.92697059  0.93501197  1
  Se  Se157  1  0.42004095  0.23879737  0.45139737  1
  Se  Se158  1  0.43146654  0.22932542  0.95431361  1
  Se  Se159  1  0.41328205  0.58094397  0.44464050  1
  Se  Se160  1  0.42328673  0.56411769  0.95366506  1
  Se  Se161  1  0.41115397  0.92798809  0.43619088  1
  Se  Se162  1  0.41592078  0.91474070  0.95666111  1
  Se  Se163  1  0.73514413  0.25685056  0.44537882  1
  Se  Se164  1  0.73884383  0.25346655  0.93127813  1
  Se  Se165  1  0.73822952  0.59099595  0.43937737  1
  Se  Se166  1  0.74810729  0.57973538  0.94777635  1
  Se  Se167  1  0.73689735  0.92769989  0.44096017  1
  Se  Se168  1  0.74243640  0.91383404  0.93706593  1
  Se  Se169  1  0.25755050  0.08061646  0.43861311  1
  Se  Se170  1  0.24663724  0.08520779  0.95436927  1
  Se  Se171  1  0.25724897  0.40996037  0.43942613  1
  Se  Se172  1  0.25571158  0.40521394  0.93781662  1
  Se  Se173  1  0.25671313  0.75261359  0.44647673  1
  Se  Se174  1  0.26416364  0.73780444  0.94576327  1
  Se  Se175  1  0.57048045  0.08689945  0.44155884  1
  Se  Se176  1  0.58139745  0.08159309  0.94699587  1
  Se  Se177  1  0.57824120  0.42200771  0.45458526  1
  Se  Se178  1  0.57872066  0.41648448  0.94246323  1
  Se  Se179  1  0.58629584  0.74239668  0.44248991  1
  Se  Se180  1  0.57590451  0.74953120  0.94706778  1
  Se  Se181  1  0.92017739  0.08000084  0.44142444  1
  Se  Se182  1  0.92189295  0.07786303  0.93894556  1
  Se  Se183  1  0.92335956  0.40823643  0.44137258  1
  Se  Se184  1  0.91617270  0.41427554  0.94976048  1
  Se  Se185  1  0.92670307  0.74787416  0.44084331  1
  Se  Se186  1  0.92005523  0.73780473  0.94105424  1
  Se  Se187  1  0.25390293  0.25209411  0.30179333  1
  Se  Se188  1  0.25166904  0.24248855  0.80878347  1
  Se  Se189  1  0.25687835  0.58438402  0.29731206  1
  Se  Se190  1  0.25615229  0.58083726  0.80349321  1
  Se  Se191  1  0.25520215  0.92045809  0.30467146  1
  Se  Se192  1  0.25267855  0.91183936  0.80985427  1
  Se  Se193  1  0.57222569  0.24940001  0.30735575  1
  Se  Se194  1  0.57813515  0.25246996  0.80406493  1
  Se  Se195  1  0.57976424  0.57275419  0.30597423  1
  Se  Se196  1  0.57927934  0.58625707  0.80937861  1
  Se  Se197  1  0.58578179  0.92023790  0.29323916  1
  Se  Se198  1  0.57612103  0.92007650  0.80785112  1
  Se  Se199  1  0.91863340  0.25012899  0.30320686  1
  Se  Se200  1  0.91955524  0.25193885  0.80527504  1
  Se  Se201  1  0.90937509  0.57565659  0.30006262  1
  Se  Se202  1  0.91505526  0.57842935  0.81090649  1
  Se  Se203  1  0.91678587  0.91630082  0.30150866  1
  Se  Se204  1  0.91918563  0.92050571  0.79918967  1
  Se  Se205  1  0.08572060  0.08131169  0.30266481  1
  Se  Se206  1  0.08376572  0.07963892  0.80174387  1
  Se  Se207  1  0.08772001  0.41633958  0.30033810  1
  Se  Se208  1  0.08260296  0.41146068  0.80127204  1
  Se  Se209  1  0.09432792  0.75534767  0.30873907  1
  Se  Se210  1  0.08404308  0.75421138  0.81040556  1
  Se  Se211  1  0.41470722  0.08720530  0.29659655  1
  Se  Se212  1  0.41220480  0.08172461  0.81209223  1
  Se  Se213  1  0.42313312  0.41216450  0.30614419  1
  Se  Se214  1  0.41555457  0.40840072  0.80770041  1
  Se  Se215  1  0.43044939  0.75987006  0.30134336  1
  Se  Se216  1  0.41496427  0.74602925  0.81041133  1
  Se  Se217  1  0.74937752  0.08777973  0.30177542  1
  Se  Se218  1  0.74715494  0.08151977  0.80154878  1
  Se  Se219  1  0.75644037  0.41923372  0.30536171  1
  Se  Se220  1  0.74731644  0.41685812  0.80620041  1
  Se  Se221  1  0.75369891  0.75439106  0.30962582  1
  Se  Se222  1  0.74868024  0.75209730  0.80120224  1
  Se  Se223  1  0.25506220  0.08648864  0.19332969  1
  Se  Se224  1  0.25477453  0.08182049  0.69758076  1
  Se  Se225  1  0.25771747  0.41536951  0.19505050  1
  Se  Se226  1  0.25371964  0.40890560  0.70241995  1
  Se  Se227  1  0.25812931  0.75404228  0.19799719  1
  Se  Se228  1  0.25102470  0.75056212  0.70159294  1
  Se  Se229  1  0.58247188  0.08510799  0.19350396  1
  Se  Se230  1  0.58010847  0.08240111  0.70299132  1
  Se  Se231  1  0.57056807  0.41115715  0.18192819  1
  Se  Se232  1  0.58068021  0.41272491  0.69970445  1
  Se  Se233  1  0.56811495  0.75335903  0.18725633  1
  Se  Se234  1  0.58189270  0.74929649  0.70143248  1
  Se  Se235  1  0.92230541  0.08032938  0.19703037  1
  Se  Se236  1  0.91607633  0.08572731  0.69839547  1
  Se  Se237  1  0.92317320  0.41027434  0.20096017  1
  Se  Se238  1  0.91622913  0.41685432  0.69929604  1
  Se  Se239  1  0.90934037  0.75473708  0.18481865  1
  Se  Se240  1  0.90809177  0.76055676  0.68508806  1
  Se  Se241  1  0.08625781  0.24999856  0.19909725  1
  Se  Se242  1  0.08554494  0.25080776  0.69762590  1
  Se  Se243  1  0.09388625  0.57656065  0.18397689  1
  Se  Se244  1  0.09656838  0.57525130  0.68973165  1
  Se  Se245  1  0.08338376  0.92079378  0.20044431  1
  Se  Se246  1  0.08330566  0.91752221  0.69788755  1
  Se  Se247  1  0.41416307  0.25591392  0.18588920  1
  Se  Se248  1  0.41516620  0.24908564  0.69742958  1
  Se  Se249  1  0.41874020  0.58223839  0.19234856  1
  Se  Se250  1  0.41770901  0.58184122  0.70604386  1
  Se  Se251  1  0.40927074  0.93763463  0.19201951  1
  Se  Se252  1  0.41480672  0.91696592  0.70190755  1
  Se  Se253  1  0.75747566  0.23876201  0.18427438  1
  Se  Se254  1  0.74817843  0.25266726  0.70370826  1
  Se  Se255  1  0.75678112  0.56886908  0.19291228  1
  Se  Se256  1  0.74612155  0.58601760  0.70254228  1
  Se  Se257  1  0.75042105  0.91772710  0.19626125  1
  Se  Se258  1  0.74525281  0.92136163  0.69817962  1
