# generated using pymatgen
data_In86Cu29Se144
_symmetry_space_group_name_H-M   'P 1'
_cell_length_a   17.58865597
_cell_length_b   17.59552884
_cell_length_c   23.45118465
_cell_angle_alpha   90.00322559
_cell_angle_beta   90.02925873
_cell_angle_gamma   89.99164778
_symmetry_Int_Tables_number   1
_chemical_formula_structural   In86Cu29Se144
_chemical_formula_sum   'In86 Cu29 Se144'
_cell_volume   7257.71153698
_cell_formula_units_Z   1
loop_
 _symmetry_equiv_pos_site_id
 _symmetry_equiv_pos_as_xyz
  1  'x, y, z'
loop_
 _atom_site_type_symbol
 _atom_site_label
 _atom_site_symmetry_multiplicity
 _atom_site_fract_x
 _atom_site_fract_y
 _atom_site_fract_z
 _atom_site_occupancy
  In  In0  1  -0.00943492  0.19521205  0.11701703  1
  In  In1  1  -0.01490542  0.17371396  0.63596663  1
  In  In2  1  -0.03414414  0.46604271  0.09016538  1
  In  In3  1  -0.01054931  0.49518846  0.62913958  1
  In  In4  1  -0.00556671  0.82520097  0.11476959  1
  In  In5  1  0.00163313  0.83785498  0.61982997  1
  In  In6  1  0.34861180  0.17375014  0.11969055  1
  In  In7  1  0.33787953  0.16447549  0.63214692  1
  In  In8  1  0.31944057  0.49603103  0.12065627  1
  In  In9  1  0.32362156  0.48792184  0.63251427  1
  In  In10  1  0.32557068  0.83590567  0.11838419  1
  In  In11  1  0.33134572  0.85391961  0.63010973  1
  In  In12  1  0.66812782  0.16650006  0.12221461  1
  In  In13  1  0.67834849  0.17820060  0.61615194  1
  In  In14  1  0.69027701  0.48734200  0.13407869  1
  In  In15  1  0.67383499  0.49548121  0.62892213  1
  In  In16  1  0.69004852  0.82162057  0.13890541  1
  In  In17  1  0.67192970  0.81825032  0.62476635  1
  In  In18  1  0.15560236  -0.00392431  0.37691633  1
  In  In19  1  0.15316694  0.00032876  0.85790425  1
  In  In20  1  0.16774953  0.33304330  0.36787213  1
  In  In21  1  0.16025455  0.33340271  0.86984818  1
  In  In22  1  0.17301356  0.67446279  0.38009347  1
  In  In23  1  0.16543112  0.66478885  0.88022494  1
  In  In24  1  0.51602276  0.00135980  0.37476855  1
  In  In25  1  0.50495581  0.01961996  0.87361243  1
  In  In26  1  0.50026403  0.32861628  0.37343594  1
  In  In27  1  0.49816508  0.32626726  0.87532803  1
  In  In28  1  0.50691967  0.65976885  0.37447803  1
  In  In29  1  0.51364520  0.65437703  0.87613529  1
  In  In30  1  0.82307422  0.01247924  0.38264220  1
  In  In31  1  0.83864001  -0.00631821  0.87607981  1
  In  In32  1  0.82872791  0.33429474  0.37484629  1
  In  In33  1  0.83238185  0.33784795  0.88141492  1
  In  In34  1  0.82399649  0.66693038  0.38344301  1
  In  In35  1  0.83104158  0.66562980  0.87993989  1
  In  In36  1  -0.01346207  0.17041918  0.37685784  1
  In  In37  1  -0.00625558  0.16571822  0.86964206  1
  In  In38  1  -0.00898568  0.48255464  0.37164171  1
  In  In39  1  0.00171390  0.48271131  0.89695381  1
  In  In40  1  -0.00016032  0.82625126  0.38135313  1
  In  In41  1  -0.00335407  0.84135399  0.87522529  1
  In  In42  1  0.33569747  0.18054963  0.37501112  1
  In  In43  1  0.33522049  0.17999701  0.86446030  1
  In  In44  1  0.34321719  0.49668712  0.37520688  1
  In  In45  1  0.32949317  0.47973575  0.87014053  1
  In  In46  1  0.32621381  0.82966448  0.37974217  1
  In  In47  1  0.31969639  0.83532751  0.87003341  1
  In  In48  1  0.66771496  0.16837549  0.37525879  1
  In  In49  1  0.66243314  0.18251701  0.89558274  1
  In  In50  1  0.68582836  0.51224252  0.35673097  1
  In  In51  1  0.67834549  0.50456951  0.87475850  1
  In  In52  1  0.67157212  0.83958479  0.37172509  1
  In  In53  1  0.68166618  0.82330710  0.88040244  1
  In  In54  1  0.16642220  -0.00466808  0.11796869  1
  In  In55  1  0.17048135  -0.00062758  0.63434501  1
  In  In56  1  0.15308070  0.34888010  0.12699481  1
  In  In57  1  0.16572689  0.32160261  0.65454295  1
  In  In58  1  0.15548199  0.65772273  0.11207522  1
  In  In59  1  0.15019844  0.66612202  0.62775399  1
  In  In60  1  0.50762959  0.01760386  0.11738270  1
  In  In61  1  0.48607843  0.00676000  0.62639384  1
  In  In62  1  0.51612287  0.32174242  0.12756320  1
  In  In63  1  0.51448032  0.32734886  0.62844679  1
  In  In64  1  0.51423871  0.66886964  0.12910560  1
  In  In65  1  0.51246199  0.67046679  0.62928059  1
  In  In66  1  0.83221374  -0.00843485  0.12132516  1
  In  In67  1  0.83720792  0.00406528  0.62080626  1
  In  In68  1  0.82576347  0.33179698  0.11913351  1
  In  In69  1  0.83044528  0.33188261  0.62731358  1
  In  In70  1  0.80370437  0.64488765  0.09903645  1
  In  In71  1  0.82473707  0.65694549  0.61398200  1
  In  In72  1  0.50359505  0.84014569  0.49661322  1
  In  In73  1  0.33987238  0.66212286  0.75799789  1
  In  In74  1  0.15288252  0.49931116  0.50828952  1
  In  In75  1  0.66854347  0.00440222  0.75286258  1
  In  In76  1  0.50829908  0.50045333  0.49873074  1
  In  In77  1  -0.00620355  0.65628757  0.74688506  1
  In  In78  1  0.50490171  0.49301197  0.00237104  1
  In  In79  1  0.50230057  0.83525055  -0.00242561  1
  In  In80  1  0.33715630  0.66393140  0.25453632  1
  In  In81  1  -0.00891525  0.65679193  0.24142462  1
  In  In82  1  0.16422535  0.16472230  0.51488437  1
  In  In83  1  0.33753238  0.00386067  0.23685202  1
  In  In84  1  0.16356511  0.16936430  -0.01156316  1
  In  In85  1  -0.00518372  0.00719748  0.24864295  1
  Cu  Cu86  1  0.51078625  0.83929411  0.24836694  1
  Cu  Cu87  1  -0.00558854  0.66562128  0.50133197  1
  Cu  Cu88  1  0.66641474  0.00391169  0.49977912  1
  Cu  Cu89  1  0.83076081  0.17698048  0.24995461  1
  Cu  Cu90  1  0.33430172  0.33272025  0.49966312  1
  Cu  Cu91  1  0.82620419  0.17206019  0.75382552  1
  Cu  Cu92  1  0.50298411  0.17194726  0.75133156  1
  Cu  Cu93  1  0.67133840  0.33211352  0.49848568  1
  Cu  Cu94  1  0.83279178  0.49152597  0.75140824  1
  Cu  Cu95  1  0.16479467  0.83215391  0.74590083  1
  Cu  Cu96  1  0.66920575  -0.00181305  0.00055571  1
  Cu  Cu97  1  0.16269635  0.49280449  0.24649965  1
  Cu  Cu98  1  -0.00328784  -0.00788170  0.50039798  1
  Cu  Cu99  1  0.16842369  0.83104344  0.24719455  1
  Cu  Cu100  1  0.51042320  0.49567441  0.75367305  1
  Cu  Cu101  1  0.32648107  0.00761177  0.50688876  1
  Cu  Cu102  1  0.16686267  0.17941385  0.24557923  1
  Cu  Cu103  1  0.32541988  -0.00105972  -0.00409172  1
  Cu  Cu104  1  0.50460401  0.16847979  0.24767523  1
  Cu  Cu105  1  0.50794384  0.83575184  0.74805924  1
  Cu  Cu106  1  0.83216916  0.83701284  0.25399044  1
  Cu  Cu107  1  0.33002890  0.32828390  -0.00568957  1
  Cu  Cu108  1  0.50105547  0.49235327  0.25025193  1
  Cu  Cu109  1  0.32820717  0.67955048  0.50712903  1
  Cu  Cu110  1  0.00283277  0.67928214  -0.00513467  1
  Cu  Cu111  1  0.00724257  0.00108080  -0.00736278  1
  Cu  Cu112  1  0.83749679  0.83075007  0.75472591  1
  Cu  Cu113  1  0.33258463  0.66257140  -0.00388528  1
  Cu  Cu114  1  -0.00465419  0.32789345  0.50435474  1
  Se  Se115  1  0.07498188  0.08501162  0.05889217  1
  Se  Se116  1  0.06831709  0.07415096  0.56622950  1
  Se  Se117  1  0.08984535  0.41967914  0.04418625  1
  Se  Se118  1  0.08047097  0.39688745  0.56910679  1
  Se  Se119  1  0.09323556  0.76060431  0.04777903  1
  Se  Se120  1  0.08137728  0.74734268  0.55278773  1
  Se  Se121  1  0.41076228  0.08035747  0.04813093  1
  Se  Se122  1  0.41456436  0.09140237  0.55307050  1
  Se  Se123  1  0.40998834  0.40454403  0.05968852  1
  Se  Se124  1  0.41362418  0.41463714  0.55952560  1
  Se  Se125  1  0.41270089  0.73862125  0.05832204  1
  Se  Se126  1  0.41491079  0.75370454  0.56516561  1
  Se  Se127  1  0.75203843  0.07959304  0.05572686  1
  Se  Se128  1  0.75345159  0.08491549  0.55187872  1
  Se  Se129  1  0.76377446  0.43206260  0.04751379  1
  Se  Se130  1  0.75103201  0.41532791  0.55556321  1
  Se  Se131  1  0.75695115  0.76732291  0.05114126  1
  Se  Se132  1  0.75443868  0.75396895  0.54952195  1
  Se  Se133  1  0.24785188  0.25343317  0.05875258  1
  Se  Se134  1  0.25264432  0.26382416  0.56632842  1
  Se  Se135  1  0.24803426  0.57946767  0.04785619  1
  Se  Se136  1  0.25423579  0.58941981  0.56284653  1
  Se  Se137  1  0.24410775  0.91331276  0.04670016  1
  Se  Se138  1  0.24440748  0.92060852  0.55612906  1
  Se  Se139  1  0.58234490  0.24316175  0.05118813  1
  Se  Se140  1  0.58306886  0.25061546  0.54917288  1
  Se  Se141  1  0.59338827  0.58045898  0.06324665  1
  Se  Se142  1  0.59576132  0.59216098  0.55753830  1
  Se  Se143  1  0.59245952  0.91581287  0.06301595  1
  Se  Se144  1  0.58892084  0.92586254  0.56482720  1
  Se  Se145  1  0.89499565  0.24393058  0.04263563  1
  Se  Se146  1  0.91094576  0.24547557  0.55714217  1
  Se  Se147  1  0.94278696  0.61099928  0.07280804  1
  Se  Se148  1  0.91902854  0.57479652  0.55326698  1
  Se  Se149  1  0.92306256  0.92153674  0.05060276  1
  Se  Se150  1  0.90943103  0.91146207  0.55249786  1
  Se  Se151  1  0.08316003  0.25403063  0.44487509  1
  Se  Se152  1  0.06543689  0.26126561  0.94230641  1
  Se  Se153  1  0.07401087  0.58730486  0.43709311  1
  Se  Se154  1  0.08219711  0.58586474  0.94955023  1
  Se  Se155  1  0.08368633  0.91185911  0.44811821  1
  Se  Se156  1  0.09076384  0.92004526  0.93857460  1
  Se  Se157  1  0.41946592  0.25100621  0.44852018  1
  Se  Se158  1  0.41527969  0.24416879  0.94503858  1
  Se  Se159  1  0.40642497  0.59710911  0.44737913  1
  Se  Se160  1  0.41070256  0.58009660  0.93807103  1
  Se  Se161  1  0.40636160  0.93151972  0.44056586  1
  Se  Se162  1  0.41175116  0.92353040  0.93595852  1
  Se  Se163  1  0.75389432  0.24600193  0.44561963  1
  Se  Se164  1  0.77406196  0.23929189  0.95425704  1
  Se  Se165  1  0.74677460  0.57184149  0.44509445  1
  Se  Se166  1  0.74546601  0.58941247  0.94975556  1
  Se  Se167  1  0.74764741  0.91794648  0.44701390  1
  Se  Se168  1  0.75258081  0.91655069  0.94671404  1
  Se  Se169  1  0.24902827  0.08397525  0.44027141  1
  Se  Se170  1  0.25272075  0.07827406  0.93001494  1
  Se  Se171  1  0.25102231  0.41603769  0.44507598  1
  Se  Se172  1  0.24483757  0.41120624  0.94392148  1
  Se  Se173  1  0.24301253  0.75955859  0.45406965  1
  Se  Se174  1  0.25236272  0.75010883  0.94411145  1
  Se  Se175  1  0.58270444  0.08774563  0.44762279  1
  Se  Se176  1  0.58194572  0.08370541  0.95369544  1
  Se  Se177  1  0.59461964  0.41400818  0.43612086  1
  Se  Se178  1  0.59355018  0.40816436  0.93983500  1
  Se  Se179  1  0.59099192  0.74434134  0.44229857  1
  Se  Se180  1  0.59379960  0.73673274  0.94913642  1
  Se  Se181  1  0.91933775  0.08290153  0.44914211  1
  Se  Se182  1  0.91967360  0.08149714  0.94215359  1
  Se  Se183  1  0.91462318  0.41108085  0.44868149  1
  Se  Se184  1  0.88355250  0.44102664  0.95583939  1
  Se  Se185  1  0.91215684  0.74965499  0.44831281  1
  Se  Se186  1  0.91563977  0.75624883  0.94225271  1
  Se  Se187  1  0.25551672  0.25391184  0.30059622  1
  Se  Se188  1  0.25114777  0.26284704  0.80061480  1
  Se  Se189  1  0.23922987  0.57265422  0.30996680  1
  Se  Se190  1  0.24101701  0.57458799  0.80874298  1
  Se  Se191  1  0.24700003  0.91582561  0.30384131  1
  Se  Se192  1  0.24825901  0.91809790  0.79677598  1
  Se  Se193  1  0.58559361  0.24993964  0.30456646  1
  Se  Se194  1  0.58898308  0.24489707  0.81067334  1
  Se  Se195  1  0.58028837  0.58408584  0.29906767  1
  Se  Se196  1  0.59335528  0.58325337  0.80165709  1
  Se  Se197  1  0.59152812  0.92384240  0.30121129  1
  Se  Se198  1  0.58374482  0.91108588  0.81602801  1
  Se  Se199  1  0.91787217  0.25507986  0.30427709  1
  Se  Se200  1  0.90955895  0.25554652  0.80720748  1
  Se  Se201  1  0.90618377  0.57634537  0.31092804  1
  Se  Se202  1  0.91225734  0.57066561  0.81392929  1
  Se  Se203  1  0.91407077  0.91524447  0.31374929  1
  Se  Se204  1  0.92022993  0.92023932  0.80040962  1
  Se  Se205  1  0.09135038  0.09649465  0.30683215  1
  Se  Se206  1  0.08759198  0.10305862  0.79692864  1
  Se  Se207  1  0.07962705  0.41143368  0.30156345  1
  Se  Se208  1  0.06656942  0.41861298  0.81175814  1
  Se  Se209  1  0.08702530  0.75001020  0.30477562  1
  Se  Se210  1  0.08549390  0.75039121  0.80536615  1
  Se  Se211  1  0.42128721  0.08723756  0.30694696  1
  Se  Se212  1  0.41772542  0.08697574  0.80119425  1
  Se  Se213  1  0.41580064  0.41299978  0.30447877  1
  Se  Se214  1  0.42395864  0.41233496  0.80285790  1
  Se  Se215  1  0.42690944  0.76377358  0.30959224  1
  Se  Se216  1  0.43081465  0.75739462  0.81415827  1
  Se  Se217  1  0.75313631  0.08834620  0.30409822  1
  Se  Se218  1  0.74988407  0.09337952  0.81801618  1
  Se  Se219  1  0.73847729  0.39893335  0.30112889  1
  Se  Se220  1  0.74811249  0.41102706  0.80616386  1
  Se  Se221  1  0.75289742  0.74987493  0.30747942  1
  Se  Se222  1  0.75361001  0.74513279  0.80377162  1
  Se  Se223  1  0.24025679  0.09575341  0.18417581  1
  Se  Se224  1  0.25664021  0.08087712  0.69788469  1
  Se  Se225  1  0.25226409  0.41235484  0.19628487  1
  Se  Se226  1  0.25085101  0.41543832  0.70851986  1
  Se  Se227  1  0.24475638  0.74655491  0.18885018  1
  Se  Se228  1  0.24925672  0.74883650  0.69113822  1
  Se  Se229  1  0.58660660  0.08345345  0.19545376  1
  Se  Se230  1  0.58204238  0.09246560  0.68858506  1
  Se  Se231  1  0.58710698  0.41665589  0.19369770  1
  Se  Se232  1  0.59159622  0.41309357  0.69763199  1
  Se  Se233  1  0.59168791  0.74818387  0.20138737  1
  Se  Se234  1  0.59144826  0.74826908  0.70196967  1
  Se  Se235  1  0.91066208  0.09844146  0.18659021  1
  Se  Se236  1  0.90377352  0.08267029  0.70037530  1
  Se  Se237  1  0.91488595  0.41472143  0.18398173  1
  Se  Se238  1  0.91745591  0.40787901  0.69942982  1
  Se  Se239  1  0.90725137  0.75868170  0.19015443  1
  Se  Se240  1  0.91012151  0.75155240  0.68751960  1
  Se  Se241  1  0.07748269  0.25686772  0.19372995  1
  Se  Se242  1  0.08582338  0.22342107  0.70815361  1
  Se  Se243  1  0.08531707  0.57025803  0.18522249  1
  Se  Se244  1  0.09285800  0.56419625  0.69641023  1
  Se  Se245  1  0.08454228  0.91145822  0.19090359  1
  Se  Se246  1  0.07828961  0.91459420  0.69518842  1
  Se  Se247  1  0.41940574  0.25218270  0.19623081  1
  Se  Se248  1  0.42122623  0.25476294  0.69539695  1
  Se  Se249  1  0.42138618  0.57457768  0.18905923  1
  Se  Se250  1  0.42768742  0.57382272  0.69154308  1
  Se  Se251  1  0.42857378  0.90787155  0.18284222  1
  Se  Se252  1  0.42048203  0.92087794  0.70250277  1
  Se  Se253  1  0.74527103  0.25323479  0.19254793  1
  Se  Se254  1  0.74359135  0.25279922  0.69760958  1
  Se  Se255  1  0.75282140  0.59417157  0.19364004  1
  Se  Se256  1  0.75799209  0.58136327  0.69543338  1
  Se  Se257  1  0.75322596  0.92639240  0.20184916  1
  Se  Se258  1  0.75477777  0.91001038  0.69335453  1
