# generated using pymatgen
data_In86Cu29Se144
_symmetry_space_group_name_H-M   'P 1'
_cell_length_a   17.58327905
_cell_length_b   17.58288553
_cell_length_c   23.44233450
_cell_angle_alpha   89.96633088
_cell_angle_beta   89.96827607
_cell_angle_gamma   90.00037919
_symmetry_Int_Tables_number   1
_chemical_formula_structural   In86Cu29Se144
_chemical_formula_sum   'In86 Cu29 Se144'
_cell_volume   7247.54188896
_cell_formula_units_Z   1
loop_
 _symmetry_equiv_pos_site_id
 _symmetry_equiv_pos_as_xyz
  1  'x, y, z'
loop_
 _atom_site_type_symbol
 _atom_site_label
 _atom_site_symmetry_multiplicity
 _atom_site_fract_x
 _atom_site_fract_y
 _atom_site_fract_z
 _atom_site_occupancy
  In  In0  1  0.00170504  0.16335012  0.13052800  1
  In  In1  1  0.00420599  0.17772843  0.61974968  1
  In  In2  1  -0.00646201  0.49147864  0.11681820  1
  In  In3  1  0.00979268  0.49512281  0.63118145  1
  In  In4  1  0.01259502  0.83148394  0.12962729  1
  In  In5  1  -0.00432901  0.83174900  0.61697045  1
  In  In6  1  0.32425685  0.18321237  0.12247667  1
  In  In7  1  0.34004366  0.16377773  0.62767714  1
  In  In8  1  0.33325250  0.50768427  0.11966944  1
  In  In9  1  0.33173388  0.50240963  0.63004331  1
  In  In10  1  0.32113500  0.81823601  0.11263170  1
  In  In11  1  0.32982269  0.82615105  0.62434722  1
  In  In12  1  0.67755731  0.16790756  0.12514398  1
  In  In13  1  0.65929277  0.15669950  0.62043019  1
  In  In14  1  0.65555115  0.48736685  0.12542865  1
  In  In15  1  0.65922490  0.51921192  0.63223547  1
  In  In16  1  0.65997032  0.83784151  0.12183022  1
  In  In17  1  0.66170923  0.83065410  0.62542002  1
  In  In18  1  0.15021518  0.00055925  0.37853370  1
  In  In19  1  0.16839007  -0.00689827  0.88417688  1
  In  In20  1  0.17171782  0.35052692  0.37355847  1
  In  In21  1  0.17271250  0.33717694  0.87317099  1
  In  In22  1  0.17467995  0.66028331  0.38242893  1
  In  In23  1  0.16816923  0.66589813  0.87307931  1
  In  In24  1  0.50446575  -0.00271875  0.38311616  1
  In  In25  1  0.48897611  -0.03522238  0.85871043  1
  In  In26  1  0.50655537  0.32861588  0.38572445  1
  In  In27  1  0.47950567  0.34720362  0.86879587  1
  In  In28  1  0.49143544  0.67385314  0.38257891  1
  In  In29  1  0.49595715  0.66174065  0.85910283  1
  In  In30  1  0.85039296  -0.00152489  0.39015599  1
  In  In31  1  0.82421701  0.00389167  0.86975258  1
  In  In32  1  0.83057188  0.32579546  0.37272464  1
  In  In33  1  0.84546298  0.32954685  0.87431945  1
  In  In34  1  0.84468474  0.67059152  0.38169740  1
  In  In35  1  0.82459006  0.65479566  0.87022002  1
  In  In36  1  -0.00762293  0.16117568  0.37011324  1
  In  In37  1  0.00856603  0.18117369  0.86634393  1
  In  In38  1  0.01456866  0.50490025  0.37436819  1
  In  In39  1  0.00347080  0.49769837  0.87504548  1
  In  In40  1  -0.00274308  0.84448769  0.39122381  1
  In  In41  1  0.01654166  0.82989883  0.87701180  1
  In  In42  1  0.33859691  0.18133871  0.38017037  1
  In  In43  1  0.31841749  0.17233866  0.87689578  1
  In  In44  1  0.32654213  0.51017331  0.38164067  1
  In  In45  1  0.32838190  0.49409656  0.86380954  1
  In  In46  1  0.34191788  0.82177097  0.38239771  1
  In  In47  1  0.34370566  0.81478063  0.89185092  1
  In  In48  1  0.66622498  0.17328625  0.38550957  1
  In  In49  1  0.67472053  0.16030619  0.86806210  1
  In  In50  1  0.66448593  0.48668717  0.37753334  1
  In  In51  1  0.65459043  0.51796563  0.87290694  1
  In  In52  1  0.66463703  0.83719290  0.38359670  1
  In  In53  1  0.63575875  0.80095700  0.83927271  1
  In  In54  1  0.15707977  -0.00681993  0.12427466  1
  In  In55  1  0.17490630  -0.00058070  0.62090749  1
  In  In56  1  0.15896297  0.32246369  0.11108253  1
  In  In57  1  0.15076888  0.33736557  0.63587433  1
  In  In58  1  0.17757416  0.66897334  0.11423364  1
  In  In59  1  0.17050599  0.66425757  0.63005176  1
  In  In60  1  0.50929057  -0.01007954  0.12045800  1
  In  In61  1  0.50466882  0.00401969  0.62169583  1
  In  In62  1  0.50316358  0.36067531  0.13309401  1
  In  In63  1  0.49077121  0.32779386  0.62379889  1
  In  In64  1  0.46387889  0.65615755  0.11978445  1
  In  In65  1  0.49606954  0.66687456  0.63036095  1
  In  In66  1  0.83105683  0.01287470  0.12825664  1
  In  In67  1  0.82679149  -0.01540469  0.60971690  1
  In  In68  1  0.82705931  0.33707995  0.12933344  1
  In  In69  1  0.85074885  0.33759876  0.62382894  1
  In  In70  1  0.84801062  0.66497651  0.12051112  1
  In  In71  1  0.82631171  0.68056209  0.63112834  1
  In  In72  1  0.00730532  0.66647569  0.25204091  1
  In  In73  1  0.66938487  0.00221587  0.26336057  1
  In  In74  1  0.33698860  0.34062941  0.24869824  1
  In  In75  1  0.83800029  0.16518149  -0.00244188  1
  In  In76  1  0.66565274  0.33532837  0.75045218  1
  In  In77  1  0.49161250  0.50475208  -0.00469630  1
  In  In78  1  0.17072982  0.16725702  0.50009411  1
  In  In79  1  -0.00053478  0.00025879  0.74701010  1
  In  In80  1  0.33053779  -0.00136322  0.74500857  1
  In  In81  1  0.83176920  0.83390668  -0.00335728  1
  In  In82  1  0.66120865  0.66030635  0.24975185  1
  In  In83  1  0.33355138  -0.00315741  0.25179671  1
  In  In84  1  0.50181601  0.16039639  -0.00194953  1
  In  In85  1  0.83003882  0.50379506  0.50322197  1
  Cu  Cu86  1  0.66345876  0.33498047  0.50517973  1
  Cu  Cu87  1  0.00347977  0.33588340  0.50094278  1
  Cu  Cu88  1  0.83929942  0.17238906  0.25140370  1
  Cu  Cu89  1  0.00584514  0.33772230  -0.00577642  1
  Cu  Cu90  1  0.15774437  0.16921057  0.24707495  1
  Cu  Cu91  1  0.66326247  0.33799649  0.00590903  1
  Cu  Cu92  1  0.16856619  0.83167345  0.24950022  1
  Cu  Cu93  1  0.49401310  0.16729086  0.74711080  1
  Cu  Cu94  1  0.83702554  0.83456241  0.74138659  1
  Cu  Cu95  1  0.66182375  0.67311214  0.50763009  1
  Cu  Cu96  1  0.83439376  0.84080261  0.26275968  1
  Cu  Cu97  1  0.65750283  -0.01310124  -0.01224782  1
  Cu  Cu98  1  0.83125308  0.49153669  0.24655839  1
  Cu  Cu99  1  0.66055713  0.66626551  -0.00979697  1
  Cu  Cu100  1  0.00501739  0.65929527  -0.00237187  1
  Cu  Cu101  1  0.83355811  0.16259444  0.74268801  1
  Cu  Cu102  1  0.50911946  0.17204887  0.25640048  1
  Cu  Cu103  1  0.33854885  -0.00478175  0.50310208  1
  Cu  Cu104  1  0.17189509  0.82671830  0.75295049  1
  Cu  Cu105  1  0.33403615  0.34082440  0.50318078  1
  Cu  Cu106  1  0.00569878  0.66789443  0.50482097  1
  Cu  Cu107  1  0.00097780  0.00295603  0.00298257  1
  Cu  Cu108  1  0.84172773  0.49690441  0.75122774  1
  Cu  Cu109  1  0.33323643  0.66372981  0.50852391  1
  Cu  Cu110  1  0.16451510  0.50169926  0.75239836  1
  Cu  Cu111  1  0.16611223  0.50017110  0.24873786  1
  Cu  Cu112  1  0.67001320  0.00136104  0.50125760  1
  Cu  Cu113  1  0.32931560  0.00178007  -0.00246023  1
  Cu  Cu114  1  0.48799729  0.81906010  0.24800726  1
  Se  Se115  1  0.08257181  0.08665950  0.05746539  1
  Se  Se116  1  0.07811529  0.07593102  0.55542594  1
  Se  Se117  1  0.08733886  0.42232376  0.04857287  1
  Se  Se118  1  0.08588550  0.41722120  0.55538696  1
  Se  Se119  1  0.07834025  0.74748780  0.05502444  1
  Se  Se120  1  0.09071907  0.74892066  0.55835865  1
  Se  Se121  1  0.40854115  0.07668025  0.06392392  1
  Se  Se122  1  0.41689331  0.08492249  0.55423294  1
  Se  Se123  1  0.40916024  0.40515781  0.05420655  1
  Se  Se124  1  0.41657913  0.42219844  0.55855997  1
  Se  Se125  1  0.42488576  0.75803022  0.04878775  1
  Se  Se126  1  0.41922000  0.75040132  0.55592133  1
  Se  Se127  1  0.73678817  0.06958116  0.04818701  1
  Se  Se128  1  0.75282997  0.08819224  0.55162914  1
  Se  Se129  1  0.74999621  0.41939229  0.05633499  1
  Se  Se130  1  0.74191326  0.41564941  0.56689613  1
  Se  Se131  1  0.74152714  0.73970442  0.05731633  1
  Se  Se132  1  0.75204252  0.75562803  0.55389873  1
  Se  Se133  1  0.25082625  0.24980420  0.04414210  1
  Se  Se134  1  0.25354269  0.25843538  0.56344218  1
  Se  Se135  1  0.26018257  0.58784951  0.04696883  1
  Se  Se136  1  0.24649397  0.57959766  0.55748943  1
  Se  Se137  1  0.24650479  0.92013394  0.05534595  1
  Se  Se138  1  0.25261674  0.91343758  0.55371176  1
  Se  Se139  1  0.58433310  0.25537935  0.06417778  1
  Se  Se140  1  0.57987909  0.24902470  0.55686702  1
  Se  Se141  1  0.58456031  0.59027827  0.05923932  1
  Se  Se142  1  0.57850111  0.58639522  0.55561566  1
  Se  Se143  1  0.57807125  0.90606833  0.04533329  1
  Se  Se144  1  0.58523008  0.91801396  0.55414209  1
  Se  Se145  1  0.92336786  0.25822438  0.05693267  1
  Se  Se146  1  0.91662928  0.25174034  0.54846248  1
  Se  Se147  1  0.91526197  0.57937651  0.04758245  1
  Se  Se148  1  0.92155106  0.58865991  0.56464673  1
  Se  Se149  1  0.91827615  0.92388401  0.06255349  1
  Se  Se150  1  0.92766489  0.92088896  0.54607597  1
  Se  Se151  1  0.08400995  0.25821204  0.43752678  1
  Se  Se152  1  0.08682813  0.25109198  0.94239511  1
  Se  Se153  1  0.08568456  0.58181906  0.45104132  1
  Se  Se154  1  0.08852849  0.57888834  0.94316922  1
  Se  Se155  1  0.09686668  0.91102298  0.45435859  1
  Se  Se156  1  0.08243663  0.91400010  0.95336687  1
  Se  Se157  1  0.41786648  0.25162203  0.45542484  1
  Se  Se158  1  0.41330326  0.25519016  0.94316247  1
  Se  Se159  1  0.41639024  0.58331611  0.45089382  1
  Se  Se160  1  0.40562336  0.59315312  0.93381651  1
  Se  Se161  1  0.42092089  0.91235400  0.44782485  1
  Se  Se162  1  0.41746191  0.91977201  0.94909565  1
  Se  Se163  1  0.75196396  0.25720508  0.45152393  1
  Se  Se164  1  0.74000765  0.25629235  0.94310153  1
  Se  Se165  1  0.73942106  0.59423733  0.44181085  1
  Se  Se166  1  0.74756920  0.57847509  0.94660263  1
  Se  Se167  1  0.75295970  0.91706709  0.44819928  1
  Se  Se168  1  0.74052054  0.90928642  0.92970347  1
  Se  Se169  1  0.26181757  0.07554366  0.43842240  1
  Se  Se170  1  0.24553996  0.08646206  0.94864757  1
  Se  Se171  1  0.24768697  0.42200296  0.45067999  1
  Se  Se172  1  0.25434485  0.42102443  0.94110282  1
  Se  Se173  1  0.25216354  0.74720212  0.45113006  1
  Se  Se174  1  0.22558551  0.76602849  0.94340417  1
  Se  Se175  1  0.58328704  0.08446238  0.44928126  1
  Se  Se176  1  0.58157752  0.07281832  0.92964841  1
  Se  Se177  1  0.58127663  0.42074233  0.45417605  1
  Se  Se178  1  0.58581154  0.41038861  0.93858389  1
  Se  Se179  1  0.58013239  0.75391209  0.44885592  1
  Se  Se180  1  0.57984132  0.74420112  0.93217149  1
  Se  Se181  1  0.91964433  0.09773154  0.45190704  1
  Se  Se182  1  0.92708311  0.07678428  0.93531890  1
  Se  Se183  1  0.92244940  0.41780826  0.44060406  1
  Se  Se184  1  0.91519549  0.41709965  0.94511596  1
  Se  Se185  1  0.91766400  0.75039242  0.45460845  1
  Se  Se186  1  0.92181236  0.74127429  0.93929244  1
  Se  Se187  1  0.24332281  0.24549276  0.30585934  1
  Se  Se188  1  0.25851210  0.25906620  0.80219987  1
  Se  Se189  1  0.24678532  0.58268180  0.30416282  1
  Se  Se190  1  0.24976063  0.58807569  0.80038396  1
  Se  Se191  1  0.24537581  0.91012008  0.31426491  1
  Se  Se192  1  0.24974568  0.90933802  0.81245144  1
  Se  Se193  1  0.58926258  0.25367253  0.31139331  1
  Se  Se194  1  0.57280394  0.24593060  0.81168318  1
  Se  Se195  1  0.57550942  0.57817697  0.31572501  1
  Se  Se196  1  0.59082395  0.59044860  0.79228412  1
  Se  Se197  1  0.56969118  0.90222399  0.30566690  1
  Se  Se198  1  0.60379376  0.93223058  0.79663553  1
  Se  Se199  1  0.92355479  0.25732077  0.30274951  1
  Se  Se200  1  0.91261126  0.24661662  0.79791663  1
  Se  Se201  1  0.90836773  0.57518604  0.30684251  1
  Se  Se202  1  0.92132657  0.58292302  0.80570419  1
  Se  Se203  1  0.92236610  0.91935660  0.31267799  1
  Se  Se204  1  0.91348749  0.90789223  0.81023326  1
  Se  Se205  1  0.08152817  0.08271231  0.30248819  1
  Se  Se206  1  0.09341218  0.08210155  0.80900802  1
  Se  Se207  1  0.08184301  0.41726523  0.30047454  1
  Se  Se208  1  0.08235427  0.41430479  0.80407034  1
  Se  Se209  1  0.08917283  0.75663306  0.31590654  1
  Se  Se210  1  0.08130052  0.74606517  0.80143625  1
  Se  Se211  1  0.42433876  0.09129728  0.31117478  1
  Se  Se212  1  0.41846039  0.08594207  0.81216300  1
  Se  Se213  1  0.41958711  0.41941728  0.31915363  1
  Se  Se214  1  0.42830245  0.43746589  0.79336756  1
  Se  Se215  1  0.40690479  0.73891944  0.30391970  1
  Se  Se216  1  0.42636695  0.77348941  0.80691987  1
  Se  Se217  1  0.76296830  0.09235692  0.31672836  1
  Se  Se218  1  0.74847839  0.08004982  0.79340897  1
  Se  Se219  1  0.75035940  0.41450904  0.30613086  1
  Se  Se220  1  0.75523655  0.42308241  0.81303648  1
  Se  Se221  1  0.75268125  0.75257585  0.31204148  1
  Se  Se222  1  0.76021255  0.74684887  0.79745662  1
  Se  Se223  1  0.24554843  0.09070412  0.19175506  1
  Se  Se224  1  0.23668755  0.09471907  0.69431491  1
  Se  Se225  1  0.24117916  0.41857013  0.18539386  1
  Se  Se226  1  0.24491719  0.41718966  0.69668506  1
  Se  Se227  1  0.24744508  0.74811439  0.19337781  1
  Se  Se228  1  0.25655060  0.74543763  0.69948149  1
  Se  Se229  1  0.58070342  0.08592422  0.19389510  1
  Se  Se230  1  0.57991874  0.08497421  0.69708247  1
  Se  Se231  1  0.59352286  0.41471110  0.20838982  1
  Se  Se232  1  0.57506567  0.42122521  0.69095199  1
  Se  Se233  1  0.57329401  0.74742524  0.18542111  1
  Se  Se234  1  0.59380077  0.73925113  0.69547690  1
  Se  Se235  1  0.91705905  0.08199618  0.19993898  1
  Se  Se236  1  0.91088872  0.08252528  0.68116681  1
  Se  Se237  1  0.92044981  0.41433658  0.19405965  1
  Se  Se238  1  0.92478870  0.41247122  0.70022729  1
  Se  Se239  1  0.90893569  0.75969942  0.19771983  1
  Se  Se240  1  0.92610739  0.75162156  0.69450264  1
  Se  Se241  1  0.08179597  0.25736921  0.19250621  1
  Se  Se242  1  0.07726829  0.24247040  0.70011371  1
  Se  Se243  1  0.08827006  0.57912344  0.18497583  1
  Se  Se244  1  0.08150293  0.58671884  0.69939425  1
  Se  Se245  1  0.08193571  0.91807300  0.20249664  1
  Se  Se246  1  0.09461551  0.90958450  0.69163108  1
  Se  Se247  1  0.42900491  0.24528859  0.19106776  1
  Se  Se248  1  0.40991913  0.25284884  0.69941626  1
  Se  Se249  1  0.42857562  0.55789985  0.19506316  1
  Se  Se250  1  0.40391381  0.59399760  0.69799906  1
  Se  Se251  1  0.41781382  0.90741142  0.18723541  1
  Se  Se252  1  0.42480748  0.91064427  0.68925030  1
  Se  Se253  1  0.74935780  0.24916571  0.19869718  1
  Se  Se254  1  0.75413208  0.24901500  0.68580339  1
  Se  Se255  1  0.75877443  0.57924601  0.18748714  1
  Se  Se256  1  0.76048434  0.58062345  0.69704949  1
  Se  Se257  1  0.75341756  0.91088665  0.19533905  1
  Se  Se258  1  0.75196122  0.91636226  0.68981502  1
