# generated using pymatgen
data_In86Cu29Se144
_symmetry_space_group_name_H-M   'P 1'
_cell_length_a   17.57849957
_cell_length_b   17.57656127
_cell_length_c   23.44240841
_cell_angle_alpha   89.96947427
_cell_angle_beta   89.99344658
_cell_angle_gamma   89.99618374
_symmetry_Int_Tables_number   1
_chemical_formula_structural   In86Cu29Se144
_chemical_formula_sum   'In86 Cu29 Se144'
_cell_volume   7242.98986505
_cell_formula_units_Z   1
loop_
 _symmetry_equiv_pos_site_id
 _symmetry_equiv_pos_as_xyz
  1  'x, y, z'
loop_
 _atom_site_type_symbol
 _atom_site_label
 _atom_site_symmetry_multiplicity
 _atom_site_fract_x
 _atom_site_fract_y
 _atom_site_fract_z
 _atom_site_occupancy
  In  In0  1  -0.00223485  0.16012411  0.11039142  1
  In  In1  1  -0.00024837  0.15529896  0.62340864  1
  In  In2  1  0.00144271  0.51711632  0.12470335  1
  In  In3  1  0.00836376  0.48938210  0.63987610  1
  In  In4  1  0.00012335  0.82911613  0.12033796  1
  In  In5  1  -0.01510479  0.85179093  0.63766736  1
  In  In6  1  0.32508776  0.17080640  0.11637356  1
  In  In7  1  0.33192196  0.17815335  0.63925724  1
  In  In8  1  0.34422536  0.50691860  0.12377229  1
  In  In9  1  0.32423904  0.49141258  0.61571492  1
  In  In10  1  0.32127691  0.81234745  0.10072461  1
  In  In11  1  0.34464498  0.83198883  0.62174269  1
  In  In12  1  0.67032708  0.15275402  0.12542515  1
  In  In13  1  0.66571885  0.13982574  0.63745734  1
  In  In14  1  0.68214034  0.50138211  0.12173357  1
  In  In15  1  0.67313977  0.51186249  0.61884478  1
  In  In16  1  0.66713314  0.83340645  0.12420414  1
  In  In17  1  0.67605213  0.84105628  0.61519995  1
  In  In18  1  0.17247861  0.00115370  0.38667709  1
  In  In19  1  0.16478489  0.00134867  0.87203933  1
  In  In20  1  0.17294738  0.32724074  0.38177097  1
  In  In21  1  0.14916885  0.31928850  0.86427076  1
  In  In22  1  0.15422741  0.66497820  0.37017038  1
  In  In23  1  0.15905698  0.68448004  0.88422893  1
  In  In24  1  0.49867329  -0.03511311  0.38405304  1
  In  In25  1  0.49301107  -0.00273965  0.85958897  1
  In  In26  1  0.51289802  0.34032024  0.38289149  1
  In  In27  1  0.48453730  0.33181157  0.86567126  1
  In  In28  1  0.49979657  0.66908549  0.37243757  1
  In  In29  1  0.50587553  0.66969875  0.88059038  1
  In  In30  1  0.82782767  0.00557761  0.38312639  1
  In  In31  1  0.83364718  -0.00062048  0.87007987  1
  In  In32  1  0.82985512  0.32248670  0.38248802  1
  In  In33  1  0.83983910  0.32558760  0.87433224  1
  In  In34  1  0.84285822  0.67707547  0.36707541  1
  In  In35  1  0.84138572  0.66116059  0.88444193  1
  In  In36  1  0.00578604  0.15534151  0.39572865  1
  In  In37  1  -0.00983969  0.16788044  0.86645155  1
  In  In38  1  -0.00127819  0.51606126  0.37830693  1
  In  In39  1  -0.01659989  0.48856261  0.85805972  1
  In  In40  1  0.00237006  0.82005455  0.37732943  1
  In  In41  1  0.00013122  0.83347657  0.87453959  1
  In  In42  1  0.32286383  0.14805586  0.38488553  1
  In  In43  1  0.31641904  0.14571141  0.85165690  1
  In  In44  1  0.32251115  0.50954553  0.38371109  1
  In  In45  1  0.33816566  0.49925915  0.87080941  1
  In  In46  1  0.34034705  0.84187348  0.37825152  1
  In  In47  1  0.32159780  0.84199342  0.88520629  1
  In  In48  1  0.68084875  0.16151395  0.38257321  1
  In  In49  1  0.68823996  0.15799770  0.86924553  1
  In  In50  1  0.65518919  0.50120235  0.38085146  1
  In  In51  1  0.66491384  0.51206025  0.87760743  1
  In  In52  1  0.66764680  0.83133448  0.37123878  1
  In  In53  1  0.66191601  0.84479038  0.88256205  1
  In  In54  1  0.16297298  -0.00624610  0.11340932  1
  In  In55  1  0.15536806  0.01387226  0.62966945  1
  In  In56  1  0.17113048  0.32476268  0.11952154  1
  In  In57  1  0.16696134  0.33152776  0.62660974  1
  In  In58  1  0.16542321  0.67573131  0.13370770  1
  In  In59  1  0.16785129  0.65788961  0.62163451  1
  In  In60  1  0.51803794  -0.00590507  0.12969703  1
  In  In61  1  0.50487098  -0.00645263  0.63383124  1
  In  In62  1  0.49339268  0.33938487  0.12144366  1
  In  In63  1  0.48780678  0.32788648  0.62638893  1
  In  In64  1  0.48597588  0.68571118  0.13705523  1
  In  In65  1  0.50230653  0.67084732  0.61119075  1
  In  In66  1  0.83068135  -0.00943570  0.11310439  1
  In  In67  1  0.83633339  -0.00489907  0.62555222  1
  In  In68  1  0.83368429  0.33392657  0.11188967  1
  In  In69  1  0.86386155  0.32199741  0.64372163  1
  In  In70  1  0.83413359  0.67043265  0.12399227  1
  In  In71  1  0.83225571  0.67624138  0.62845734  1
  In  In72  1  0.83910377  0.49606157  0.50343270  1
  In  In73  1  0.50244177  0.16361929  -0.00234767  1
  In  In74  1  -0.00098220  0.33551918  0.25637597  1
  In  In75  1  0.67048330  0.67111499  0.75001427  1
  In  In76  1  -0.00143683  -0.00949593  0.24603159  1
  In  In77  1  0.33077871  0.66978160  0.75181156  1
  In  In78  1  0.50292142  0.50514659  -0.00031787  1
  In  In79  1  0.33648167  0.33727489  0.24548886  1
  In  In80  1  0.67183103  0.34029654  0.25385259  1
  In  In81  1  0.66532819  0.33556423  0.75205946  1
  In  In82  1  0.16098228  0.83775649  0.50245622  1
  In  In83  1  0.33714085  -0.00771261  0.25339044  1
  In  In84  1  0.49594426  0.16577165  0.50866560  1
  In  In85  1  0.16142274  0.49953474  0.00182231  1
  Cu  Cu86  1  -0.00209545  0.66584381  0.00130024  1
  Cu  Cu87  1  0.50228237  0.83225819  0.75004275  1
  Cu  Cu88  1  0.66504699  0.66920827  0.49460679  1
  Cu  Cu89  1  0.31714101  0.32154142  -0.01098651  1
  Cu  Cu90  1  0.00289756  0.66636113  0.50155291  1
  Cu  Cu91  1  0.66217559  -0.00756010  0.50288814  1
  Cu  Cu92  1  0.16663695  0.84115312  0.75352999  1
  Cu  Cu93  1  0.67222194  0.33056440  0.50821884  1
  Cu  Cu94  1  0.33802122  0.66717631  0.49796178  1
  Cu  Cu95  1  0.50346339  0.15788402  0.25280393  1
  Cu  Cu96  1  0.16314316  0.16093161  0.24988396  1
  Cu  Cu97  1  0.01040028  0.33287190  0.51096907  1
  Cu  Cu98  1  0.33904599  0.00077286  -0.01107170  1
  Cu  Cu99  1  0.50263760  0.83310091  0.25038746  1
  Cu  Cu100  1  0.67029495  0.32994200  -0.00816597  1
  Cu  Cu101  1  0.82704754  0.83607763  0.24369044  1
  Cu  Cu102  1  0.83342965  0.83534121  0.75086153  1
  Cu  Cu103  1  0.49914195  0.50955358  0.25380757  1
  Cu  Cu104  1  0.83645183  0.50971873  0.24805943  1
  Cu  Cu105  1  0.16079003  0.17047519  0.74775112  1
  Cu  Cu106  1  0.67420429  0.00184783  -0.00056064  1
  Cu  Cu107  1  0.16895719  0.50010626  0.74629530  1
  Cu  Cu108  1  0.83009217  0.15876547  0.25410833  1
  Cu  Cu109  1  0.00526135  0.00086936  -0.01046233  1
  Cu  Cu110  1  0.67094613  0.67176539  0.00289184  1
  Cu  Cu111  1  0.33322534  0.33463884  0.50560519  1
  Cu  Cu112  1  0.17016193  0.51194177  0.25342172  1
  Cu  Cu113  1  0.49043542  0.49897305  0.74143500  1
  Cu  Cu114  1  -0.00677112  0.33021551  -0.01067051  1
  Se  Se115  1  0.08906929  0.08394908  0.04548834  1
  Se  Se116  1  0.08342307  0.08223768  0.54908863  1
  Se  Se117  1  0.06845834  0.40506013  0.05985359  1
  Se  Se118  1  0.08760599  0.42399695  0.56022803  1
  Se  Se119  1  0.08591593  0.74414527  0.05476219  1
  Se  Se120  1  0.07370600  0.74968232  0.56587312  1
  Se  Se121  1  0.41356891  0.07340612  0.06043143  1
  Se  Se122  1  0.40972837  0.08035325  0.57110916  1
  Se  Se123  1  0.40003110  0.40565860  0.04683295  1
  Se  Se124  1  0.42277768  0.41722501  0.55279386  1
  Se  Se125  1  0.43413673  0.75130653  0.04776568  1
  Se  Se126  1  0.42003640  0.75650504  0.54493662  1
  Se  Se127  1  0.75592386  0.08952625  0.05007829  1
  Se  Se128  1  0.74313444  0.07479022  0.55780826  1
  Se  Se129  1  0.74933888  0.41802945  0.04561613  1
  Se  Se130  1  0.75756724  0.40545362  0.56905665  1
  Se  Se131  1  0.75465538  0.75606787  0.05471317  1
  Se  Se132  1  0.75082181  0.74472218  0.55179126  1
  Se  Se133  1  0.23630739  0.23904804  0.04406695  1
  Se  Se134  1  0.25475343  0.24924997  0.56013090  1
  Se  Se135  1  0.25308220  0.58786590  0.05966544  1
  Se  Se136  1  0.25116841  0.58504531  0.54884433  1
  Se  Se137  1  0.25358195  0.92000925  0.04480098  1
  Se  Se138  1  0.24909619  0.92163392  0.56640986  1
  Se  Se139  1  0.59083447  0.25862427  0.05919737  1
  Se  Se140  1  0.59322675  0.24876432  0.56883210  1
  Se  Se141  1  0.58836093  0.59131730  0.06384757  1
  Se  Se142  1  0.58526998  0.58204496  0.54788886  1
  Se  Se143  1  0.58825103  0.91902970  0.05163240  1
  Se  Se144  1  0.57348026  0.91314589  0.55503595  1
  Se  Se145  1  0.91256932  0.24574205  0.04654237  1
  Se  Se146  1  0.91997169  0.25072622  0.55707172  1
  Se  Se147  1  0.91193392  0.58236044  0.05279232  1
  Se  Se148  1  0.92529314  0.58600870  0.56516955  1
  Se  Se149  1  0.92812591  0.91936564  0.05038707  1
  Se  Se150  1  0.90616903  0.90409237  0.55447934  1
  Se  Se151  1  0.08998871  0.24988997  0.45220001  1
  Se  Se152  1  0.07726791  0.24409892  0.94114144  1
  Se  Se153  1  0.08795174  0.58351477  0.45010999  1
  Se  Se154  1  0.07154633  0.58254475  0.93814185  1
  Se  Se155  1  0.06549034  0.92520862  0.44387713  1
  Se  Se156  1  0.08938764  0.91327107  0.94241489  1
  Se  Se157  1  0.41002003  0.25515039  0.44004508  1
  Se  Se158  1  0.40572270  0.24320597  0.93520995  1
  Se  Se159  1  0.42228317  0.58304936  0.44416765  1
  Se  Se160  1  0.40533527  0.59163747  0.94361935  1
  Se  Se161  1  0.38725757  0.94216170  0.45136458  1
  Se  Se162  1  0.42676568  0.91921487  0.93934355  1
  Se  Se163  1  0.75308909  0.24493806  0.45658974  1
  Se  Se164  1  0.75515049  0.24447271  0.94392403  1
  Se  Se165  1  0.75288978  0.58736653  0.43976514  1
  Se  Se166  1  0.74849474  0.58363760  0.94999369  1
  Se  Se167  1  0.74524915  0.91354460  0.44443774  1
  Se  Se168  1  0.75770326  0.91824060  0.94651534  1
  Se  Se169  1  0.23382973  0.09174382  0.45980048  1
  Se  Se170  1  0.25304158  0.08477516  0.93962053  1
  Se  Se171  1  0.24912210  0.41607195  0.44937920  1
  Se  Se172  1  0.24458168  0.41187796  0.93297959  1
  Se  Se173  1  0.25107606  0.74695799  0.44037217  1
  Se  Se174  1  0.25805588  0.74303784  0.95065273  1
  Se  Se175  1  0.58155013  0.07643739  0.44189996  1
  Se  Se176  1  0.59076916  0.07650446  0.93614414  1
  Se  Se177  1  0.58970505  0.41614887  0.45777851  1
  Se  Se178  1  0.58290348  0.40662260  0.93596046  1
  Se  Se179  1  0.58180960  0.75282136  0.44201872  1
  Se  Se180  1  0.58568016  0.75143798  0.94864627  1
  Se  Se181  1  0.89824326  0.09548107  0.45262531  1
  Se  Se182  1  0.91707921  0.08268134  0.93999769  1
  Se  Se183  1  0.93209016  0.40534452  0.44173730  1
  Se  Se184  1  0.91327093  0.42126168  0.94162208  1
  Se  Se185  1  0.91600631  0.74593010  0.44860612  1
  Se  Se186  1  0.91858366  0.75394905  0.94838920  1
  Se  Se187  1  0.25018059  0.23952219  0.30573222  1
  Se  Se188  1  0.24937987  0.25584693  0.79731771  1
  Se  Se189  1  0.25478096  0.59131959  0.30712258  1
  Se  Se190  1  0.23809316  0.58222454  0.81266080  1
  Se  Se191  1  0.23692533  0.91067185  0.31063391  1
  Se  Se192  1  0.25523396  0.91954224  0.80554158  1
  Se  Se193  1  0.58145324  0.24432176  0.31083597  1
  Se  Se194  1  0.58290158  0.24318288  0.81437572  1
  Se  Se195  1  0.58916041  0.58588345  0.30573180  1
  Se  Se196  1  0.56953494  0.57731227  0.80237456  1
  Se  Se197  1  0.58479032  0.91877639  0.30238682  1
  Se  Se198  1  0.58921379  0.91412421  0.80128428  1
  Se  Se199  1  0.91456396  0.23556705  0.31326615  1
  Se  Se200  1  0.91985561  0.26049298  0.79694316  1
  Se  Se201  1  0.92414531  0.58834579  0.30063372  1
  Se  Se202  1  0.92118122  0.60079344  0.80427922  1
  Se  Se203  1  0.90663095  0.91065836  0.31067719  1
  Se  Se204  1  0.92017310  0.91549966  0.80336219  1
  Se  Se205  1  0.08419974  0.08427534  0.31131583  1
  Se  Se206  1  0.08280716  0.08563731  0.80371695  1
  Se  Se207  1  0.09515843  0.42460869  0.31255203  1
  Se  Se208  1  0.08254652  0.41615949  0.79674812  1
  Se  Se209  1  0.08164443  0.75433098  0.30101349  1
  Se  Se210  1  0.08564710  0.75245374  0.80373003  1
  Se  Se211  1  0.42458208  0.08334271  0.31648174  1
  Se  Se212  1  0.42763105  0.09310033  0.79254509  1
  Se  Se213  1  0.42290975  0.42173408  0.31236346  1
  Se  Se214  1  0.40775154  0.41725862  0.79517495  1
  Se  Se215  1  0.41589112  0.75652067  0.30720072  1
  Se  Se216  1  0.42234675  0.75611645  0.81246560  1
  Se  Se217  1  0.74547139  0.07750855  0.30563410  1
  Se  Se218  1  0.75872795  0.07917372  0.79440506  1
  Se  Se219  1  0.76491887  0.42826031  0.31492361  1
  Se  Se220  1  0.75105429  0.42608702  0.81316967  1
  Se  Se221  1  0.74962963  0.74968241  0.30071157  1
  Se  Se222  1  0.75449874  0.75712481  0.81497902  1
  Se  Se223  1  0.24586542  0.08434433  0.18941509  1
  Se  Se224  1  0.24736830  0.08482601  0.69935678  1
  Se  Se225  1  0.23968628  0.42700926  0.18829181  1
  Se  Se226  1  0.25318217  0.41704536  0.69417741  1
  Se  Se227  1  0.26398085  0.75463594  0.19112578  1
  Se  Se228  1  0.24239185  0.75957048  0.69041890  1
  Se  Se229  1  0.59206599  0.07970154  0.20134261  1
  Se  Se230  1  0.56860670  0.08478358  0.70760606  1
  Se  Se231  1  0.57559701  0.42582701  0.19169867  1
  Se  Se232  1  0.58137694  0.42745928  0.68606165  1
  Se  Se233  1  0.58980711  0.75099673  0.19829783  1
  Se  Se234  1  0.57862472  0.75452369  0.68724624  1
  Se  Se235  1  0.91188966  0.08808531  0.18811368  1
  Se  Se236  1  0.91197918  0.08225299  0.69438041  1
  Se  Se237  1  0.91035198  0.42033527  0.18962983  1
  Se  Se238  1  0.91064973  0.42851422  0.70853830  1
  Se  Se239  1  0.91591865  0.75490918  0.19323081  1
  Se  Se240  1  0.91677333  0.74874445  0.70070835  1
  Se  Se241  1  0.08356669  0.24283490  0.19074806  1
  Se  Se242  1  0.07809486  0.24883430  0.69039371  1
  Se  Se243  1  0.08158104  0.58861237  0.19943954  1
  Se  Se244  1  0.08715979  0.58937256  0.69804728  1
  Se  Se245  1  0.09706450  0.90684079  0.19017858  1
  Se  Se246  1  0.08249711  0.92435074  0.70046106  1
  Se  Se247  1  0.42622209  0.23651882  0.19002198  1
  Se  Se248  1  0.42391716  0.25305204  0.70599586  1
  Se  Se249  1  0.41168570  0.58743088  0.20007207  1
  Se  Se250  1  0.41678646  0.58569745  0.68291140  1
  Se  Se251  1  0.42122518  0.90792744  0.18629254  1
  Se  Se252  1  0.41330144  0.91171653  0.69905639  1
  Se  Se253  1  0.75936144  0.24832023  0.19213464  1
  Se  Se254  1  0.75117613  0.24370095  0.69193553  1
  Se  Se255  1  0.74978967  0.58769815  0.19506494  1
  Se  Se256  1  0.75999468  0.57530592  0.69628057  1
  Se  Se257  1  0.74926711  0.92354407  0.19067036  1
  Se  Se258  1  0.74735485  0.91266925  0.69469816  1
