# generated using pymatgen
data_In86Cu29Se144
_symmetry_space_group_name_H-M   'P 1'
_cell_length_a   17.58192356
_cell_length_b   17.58281530
_cell_length_c   23.43747943
_cell_angle_alpha   89.98597050
_cell_angle_beta   89.98328613
_cell_angle_gamma   89.99515504
_symmetry_Int_Tables_number   1
_chemical_formula_structural   In86Cu29Se144
_chemical_formula_sum   'In86 Cu29 Se144'
_cell_volume   7245.45515095
_cell_formula_units_Z   1
loop_
 _symmetry_equiv_pos_site_id
 _symmetry_equiv_pos_as_xyz
  1  'x, y, z'
loop_
 _atom_site_type_symbol
 _atom_site_label
 _atom_site_symmetry_multiplicity
 _atom_site_fract_x
 _atom_site_fract_y
 _atom_site_fract_z
 _atom_site_occupancy
  In  In0  1  -0.00221532  0.18130510  0.12194999  1
  In  In1  1  -0.00397301  0.15119972  0.62739207  1
  In  In2  1  0.00355939  0.51693111  0.12074319  1
  In  In3  1  0.00133745  0.51444788  0.62664311  1
  In  In4  1  -0.00554548  0.83203476  0.12213279  1
  In  In5  1  -0.00543515  0.83383120  0.62689962  1
  In  In6  1  0.34462284  0.16467161  0.11659832  1
  In  In7  1  0.33887268  0.16367285  0.63232138  1
  In  In8  1  0.36646275  0.52349119  0.10024870  1
  In  In9  1  0.33542103  0.49305758  0.64272407  1
  In  In10  1  0.32141642  0.82730682  0.11535384  1
  In  In11  1  0.33948578  0.81964201  0.62823087  1
  In  In12  1  0.65529709  0.15233097  0.12046185  1
  In  In13  1  0.65004635  0.16882206  0.64111425  1
  In  In14  1  0.67110516  0.50328083  0.12019510  1
  In  In15  1  0.66430025  0.48626964  0.62347720  1
  In  In16  1  0.67268482  0.82348732  0.12821875  1
  In  In17  1  0.67497646  0.84195618  0.62160705  1
  In  In18  1  0.18347885  -0.00030555  0.38050567  1
  In  In19  1  0.16419300  -0.00687605  0.86906855  1
  In  In20  1  0.16688392  0.33121262  0.38294889  1
  In  In21  1  0.17864672  0.33460529  0.86963016  1
  In  In22  1  0.16412854  0.67752830  0.35900772  1
  In  In23  1  0.18930130  0.68236055  0.86711503  1
  In  In24  1  0.50136112  -0.00187804  0.38248716  1
  In  In25  1  0.51691026  0.01698621  0.85496417  1
  In  In26  1  0.49025140  0.32940899  0.37813683  1
  In  In27  1  0.50164588  0.32754789  0.87776395  1
  In  In28  1  0.52021655  0.67775301  0.35759708  1
  In  In29  1  0.47586685  0.66291033  0.88137644  1
  In  In30  1  0.81304602  -0.00085677  0.37482197  1
  In  In31  1  0.83492425  -0.00150953  0.87752201  1
  In  In32  1  0.84601286  0.33849447  0.38101607  1
  In  In33  1  0.81785653  0.34068788  0.87958136  1
  In  In34  1  0.83100693  0.67181662  0.37523445  1
  In  In35  1  0.83912435  0.65944731  0.88225602  1
  In  In36  1  0.00622507  0.17694037  0.37972930  1
  In  In37  1  0.00107618  0.14968901  0.87259453  1
  In  In38  1  -0.01217821  0.50840825  0.37582629  1
  In  In39  1  -0.01569326  0.50697922  0.87657598  1
  In  In40  1  -0.00194933  0.81671882  0.37212094  1
  In  In41  1  0.00245986  0.83310740  0.87693924  1
  In  In42  1  0.33952522  0.16212610  0.38831329  1
  In  In43  1  0.36464994  0.18572791  0.85010616  1
  In  In44  1  0.32605133  0.50372786  0.37177620  1
  In  In45  1  0.34126219  0.50775623  0.87772315  1
  In  In46  1  0.34454490  0.83707067  0.37371547  1
  In  In47  1  0.32461119  0.82764680  0.86971191  1
  In  In48  1  0.66226902  0.15203076  0.37240748  1
  In  In49  1  0.66294743  0.16902743  0.87360449  1
  In  In50  1  0.66609432  0.51665463  0.37260929  1
  In  In51  1  0.66910803  0.49061256  0.88154454  1
  In  In52  1  0.66435031  0.83664714  0.37715186  1
  In  In53  1  0.66675314  0.84654920  0.87622746  1
  In  In54  1  0.18252253  -0.00561306  0.11777033  1
  In  In55  1  0.15661888  0.00657083  0.62935679  1
  In  In56  1  0.16719386  0.33460334  0.12246868  1
  In  In57  1  0.19590638  0.33101285  0.63769791  1
  In  In58  1  0.15677420  0.68258279  0.13685862  1
  In  In59  1  0.16489332  0.65455154  0.63885176  1
  In  In60  1  0.50677505  0.01354061  0.12346486  1
  In  In61  1  0.50223792  -0.00327810  0.63125661  1
  In  In62  1  0.50089923  0.33244055  0.11624892  1
  In  In63  1  0.50616208  0.32196962  0.64149776  1
  In  In64  1  0.50492008  0.65913091  0.13377114  1
  In  In65  1  0.48734678  0.66606361  0.62361774  1
  In  In66  1  0.81998441  -0.01410849  0.11631043  1
  In  In67  1  0.83975702  -0.00783657  0.63219396  1
  In  In68  1  0.83449986  0.33530169  0.11194972  1
  In  In69  1  0.81761291  0.32962223  0.62662881  1
  In  In70  1  0.83119030  0.66845020  0.12086224  1
  In  In71  1  0.83920892  0.67653939  0.61778654  1
  In  In72  1  0.82738914  0.15985915  0.50511701  1
  In  In73  1  -0.00085079  0.34081536  0.25360323  1
  In  In74  1  -0.00079591  0.33166211  0.75622474  1
  In  In75  1  0.34020176  -0.00706872  0.25427657  1
  In  In76  1  0.17052597  0.15538596  -0.00986588  1
  In  In77  1  0.66472137  0.33694675  0.24866237  1
  In  In78  1  0.16752137  0.50531982  -0.00771297  1
  In  In79  1  0.50193163  0.50104042  0.49821955  1
  In  In80  1  0.66758453  0.66556522  0.75143375  1
  In  In81  1  0.16508886  0.49816195  0.50765924  1
  In  In82  1  0.33681049  0.34181741  0.23915896  1
  In  In83  1  -0.00209381  -0.00314671  0.24456264  1
  In  In84  1  0.16555703  0.83672865  0.50146693  1
  In  In85  1  0.49932146  0.83714910  -0.00707147  1
  Cu  Cu86  1  0.17692062  0.16373798  0.25782580  1
  Cu  Cu87  1  0.66881844  0.67125716  0.49271370  1
  Cu  Cu88  1  0.66917177  0.00496394  -0.00520587  1
  Cu  Cu89  1  0.34309853  0.32411847  0.51085628  1
  Cu  Cu90  1  -0.00270899  0.66543574  0.49940895  1
  Cu  Cu91  1  0.66619584  0.32923858  0.50599303  1
  Cu  Cu92  1  0.66337606  0.32876243  -0.00181223  1
  Cu  Cu93  1  0.16837501  0.50989645  0.24697437  1
  Cu  Cu94  1  0.49679251  0.83025533  0.75329835  1
  Cu  Cu95  1  0.33548467  0.66605937  0.50010402  1
  Cu  Cu96  1  0.82659225  0.83053168  0.24743960  1
  Cu  Cu97  1  -0.00612733  0.33239718  -0.00832983  1
  Cu  Cu98  1  0.00786759  0.33331943  0.50337845  1
  Cu  Cu99  1  0.65970289  -0.00270280  0.50407123  1
  Cu  Cu100  1  0.33681659  0.00676693  0.50734737  1
  Cu  Cu101  1  -0.00073464  -0.00305229  -0.00288363  1
  Cu  Cu102  1  0.82503388  0.16164539  0.24385976  1
  Cu  Cu103  1  0.16253018  0.83368280  0.74738352  1
  Cu  Cu104  1  0.66592012  0.66549952  0.00371348  1
  Cu  Cu105  1  0.50067152  0.49757918  0.75547422  1
  Cu  Cu106  1  0.84020450  0.83340612  0.75096741  1
  Cu  Cu107  1  0.50216382  0.83685736  0.24878826  1
  Cu  Cu108  1  0.83185356  0.51142467  0.24773139  1
  Cu  Cu109  1  0.16717187  0.15918149  0.75072112  1
  Cu  Cu110  1  0.82505261  0.16077407  0.75321366  1
  Cu  Cu111  1  -0.00594643  -0.00445361  0.50464887  1
  Cu  Cu112  1  0.83107427  0.50104942  0.75387212  1
  Cu  Cu113  1  0.33727197  0.00048270  -0.01188615  1
  Cu  Cu114  1  -0.00279071  0.67229012  0.00193397  1
  Se  Se115  1  0.07772677  0.07746874  0.06045769  1
  Se  Se116  1  0.07917740  0.08151383  0.55187058  1
  Se  Se117  1  0.07367307  0.41052076  0.05411755  1
  Se  Se118  1  0.08349487  0.40577260  0.57165962  1
  Se  Se119  1  0.08354180  0.75227625  0.05537272  1
  Se  Se120  1  0.08325978  0.73862251  0.56081131  1
  Se  Se121  1  0.41966363  0.07814285  0.04726965  1
  Se  Se122  1  0.42289056  0.08482602  0.56165588  1
  Se  Se123  1  0.40055707  0.39769946  0.05301778  1
  Se  Se124  1  0.41773788  0.41521312  0.56595537  1
  Se  Se125  1  0.42128553  0.74563101  0.05839354  1
  Se  Se126  1  0.41971785  0.75222593  0.54886919  1
  Se  Se127  1  0.75180676  0.08581852  0.05208740  1
  Se  Se128  1  0.73857808  0.07613741  0.56848413  1
  Se  Se129  1  0.74647745  0.41734215  0.04894136  1
  Se  Se130  1  0.75257748  0.41658163  0.55071124  1
  Se  Se131  1  0.75040535  0.75312500  0.05037432  1
  Se  Se132  1  0.74896369  0.75281986  0.55162184  1
  Se  Se133  1  0.25165027  0.25078490  0.05425787  1
  Se  Se134  1  0.25258009  0.24468453  0.56000951  1
  Se  Se135  1  0.24076652  0.59163075  0.06453998  1
  Se  Se136  1  0.26128392  0.58657463  0.56340776  1
  Se  Se137  1  0.25439175  0.91698150  0.04130142  1
  Se  Se138  1  0.25534537  0.92190660  0.56434828  1
  Se  Se139  1  0.58226217  0.24358619  0.05223262  1
  Se  Se140  1  0.58338214  0.25104793  0.56265329  1
  Se  Se141  1  0.58025729  0.58402648  0.05517570  1
  Se  Se142  1  0.59273546  0.59243732  0.55882527  1
  Se  Se143  1  0.59107926  0.92071569  0.05666739  1
  Se  Se144  1  0.57733729  0.91221552  0.55691339  1
  Se  Se145  1  0.91459437  0.24631100  0.04578232  1
  Se  Se146  1  0.92128994  0.25404634  0.56116071  1
  Se  Se147  1  0.91320527  0.58390923  0.05019063  1
  Se  Se148  1  0.91486936  0.58097417  0.55232187  1
  Se  Se149  1  0.91544646  0.91459654  0.05127979  1
  Se  Se150  1  0.91094999  0.91180349  0.55495156  1
  Se  Se151  1  0.09052862  0.24707484  0.45357775  1
  Se  Se152  1  0.07917872  0.25452416  0.93515787  1
  Se  Se153  1  0.08553178  0.59144753  0.44016576  1
  Se  Se154  1  0.07586124  0.59678605  0.93691607  1
  Se  Se155  1  0.07398267  0.92248239  0.43752461  1
  Se  Se156  1  0.08726589  0.91718247  0.94545213  1
  Se  Se157  1  0.42591669  0.24492818  0.45442649  1
  Se  Se158  1  0.42011593  0.23695510  0.94261638  1
  Se  Se159  1  0.41501398  0.59015497  0.43615946  1
  Se  Se160  1  0.41210268  0.58040430  0.95808169  1
  Se  Se161  1  0.41174904  0.91977974  0.44969887  1
  Se  Se162  1  0.41960733  0.92531599  0.92564032  1
  Se  Se163  1  0.74527061  0.25312209  0.43942490  1
  Se  Se164  1  0.74864184  0.24552549  0.94641953  1
  Se  Se165  1  0.75322919  0.58337384  0.44564079  1
  Se  Se166  1  0.74771804  0.58166942  0.94715000  1
  Se  Se167  1  0.74635689  0.91678368  0.45068674  1
  Se  Se168  1  0.75304380  0.91539853  0.94913760  1
  Se  Se169  1  0.24828958  0.08598703  0.45494823  1
  Se  Se170  1  0.26430176  0.08266163  0.92400879  1
  Se  Se171  1  0.26455188  0.40880272  0.45052533  1
  Se  Se172  1  0.26017709  0.40707769  0.94519409  1
  Se  Se173  1  0.25236783  0.74405818  0.44022114  1
  Se  Se174  1  0.25933636  0.74864403  0.94905938  1
  Se  Se175  1  0.58239748  0.08598322  0.45057922  1
  Se  Se176  1  0.58011447  0.08227220  0.94219646  1
  Se  Se177  1  0.59396307  0.40959278  0.43885308  1
  Se  Se178  1  0.57900451  0.41558642  0.94895473  1
  Se  Se179  1  0.57821292  0.75018119  0.44329316  1
  Se  Se180  1  0.58939388  0.74035199  0.93586721  1
  Se  Se181  1  0.91936873  0.07714744  0.43848781  1
  Se  Se182  1  0.91642144  0.08401161  0.94809079  1
  Se  Se183  1  0.92587739  0.41864739  0.45155795  1
  Se  Se184  1  0.90885837  0.41994505  0.94537212  1
  Se  Se185  1  0.91477273  0.75128352  0.44803803  1
  Se  Se186  1  0.91415955  0.75441945  0.94633470  1
  Se  Se187  1  0.25493379  0.25063657  0.31243677  1
  Se  Se188  1  0.24885665  0.24900301  0.79770222  1
  Se  Se189  1  0.25404321  0.58960518  0.30062991  1
  Se  Se190  1  0.24778075  0.57418851  0.80754451  1
  Se  Se191  1  0.23976846  0.90408179  0.30575297  1
  Se  Se192  1  0.24975462  0.91492248  0.79903945  1
  Se  Se193  1  0.57664470  0.24576275  0.30893322  1
  Se  Se194  1  0.58440854  0.25305239  0.80435057  1
  Se  Se195  1  0.58267606  0.57468994  0.29554609  1
  Se  Se196  1  0.57707671  0.58184829  0.81573208  1
  Se  Se197  1  0.57922387  0.91927631  0.30853354  1
  Se  Se198  1  0.58911442  0.91232625  0.79697851  1
  Se  Se199  1  0.90645204  0.23927900  0.30526223  1
  Se  Se200  1  0.90602620  0.24224928  0.81376600  1
  Se  Se201  1  0.91596902  0.59135411  0.30335443  1
  Se  Se202  1  0.91301478  0.58927875  0.80100318  1
  Se  Se203  1  0.90623481  0.91271324  0.30895854  1
  Se  Se204  1  0.91965197  0.91738717  0.80762990  1
  Se  Se205  1  0.08934941  0.08537600  0.31161312  1
  Se  Se206  1  0.08039936  0.07556972  0.79878979  1
  Se  Se207  1  0.09532938  0.42839576  0.31224766  1
  Se  Se208  1  0.08413148  0.42594633  0.81414719  1
  Se  Se209  1  0.07605069  0.75401957  0.29366139  1
  Se  Se210  1  0.08523696  0.75074058  0.80670309  1
  Se  Se211  1  0.42269611  0.09179340  0.31054786  1
  Se  Se212  1  0.41223055  0.07302652  0.79003931  1
  Se  Se213  1  0.42475042  0.42555851  0.30751748  1
  Se  Se214  1  0.41771828  0.41663151  0.81077158  1
  Se  Se215  1  0.41684719  0.75325202  0.30094463  1
  Se  Se216  1  0.41262038  0.74490243  0.80259154  1
  Se  Se217  1  0.74387669  0.07919155  0.29779647  1
  Se  Se218  1  0.74648963  0.07701248  0.80952032  1
  Se  Se219  1  0.76303266  0.42195888  0.30911630  1
  Se  Se220  1  0.74462526  0.41764497  0.80226408  1
  Se  Se221  1  0.74466890  0.75165930  0.30703910  1
  Se  Se222  1  0.75713849  0.75542523  0.81168612  1
  Se  Se223  1  0.25170791  0.08895252  0.19180063  1
  Se  Se224  1  0.25056189  0.07717617  0.69623811  1
  Se  Se225  1  0.24361629  0.43165270  0.18389055  1
  Se  Se226  1  0.23006938  0.43824790  0.70663042  1
  Se  Se227  1  0.25824571  0.75369933  0.19675420  1
  Se  Se228  1  0.24834046  0.74776406  0.69736148  1
  Se  Se229  1  0.58558159  0.08073108  0.20090088  1
  Se  Se230  1  0.57300782  0.08080018  0.70630076  1
  Se  Se231  1  0.57496202  0.42340450  0.18798041  1
  Se  Se232  1  0.58679044  0.41791942  0.70148134  1
  Se  Se233  1  0.58507319  0.74978387  0.19803959  1
  Se  Se234  1  0.57842053  0.75313147  0.68934252  1
  Se  Se235  1  0.91076740  0.08868762  0.18371593  1
  Se  Se236  1  0.91435153  0.08101297  0.70215635  1
  Se  Se237  1  0.91017389  0.42499761  0.18884989  1
  Se  Se238  1  0.90917197  0.41811930  0.69149876  1
  Se  Se239  1  0.91173259  0.75202648  0.19213374  1
  Se  Se240  1  0.91722481  0.74598128  0.69621489  1
  Se  Se241  1  0.09416627  0.24392906  0.19881527  1
  Se  Se242  1  0.08622037  0.24317009  0.69084999  1
  Se  Se243  1  0.07544763  0.58845747  0.19952887  1
  Se  Se244  1  0.07223475  0.58464106  0.70529608  1
  Se  Se245  1  0.09484979  0.91396057  0.18730757  1
  Se  Se246  1  0.07739952  0.91639806  0.69455292  1
  Se  Se247  1  0.42696013  0.24041097  0.19206365  1
  Se  Se248  1  0.39285260  0.27029288  0.69829565  1
  Se  Se249  1  0.41053949  0.57925103  0.19488852  1
  Se  Se250  1  0.42150032  0.58458333  0.70123608  1
  Se  Se251  1  0.42327856  0.91087200  0.18313849  1
  Se  Se252  1  0.41436136  0.91007305  0.69566019  1
  Se  Se253  1  0.75388735  0.25011805  0.18501325  1
  Se  Se254  1  0.74651357  0.24916487  0.70120200  1
  Se  Se255  1  0.74668910  0.58814198  0.19189762  1
  Se  Se256  1  0.75451748  0.57810109  0.68716994  1
  Se  Se257  1  0.74463330  0.91784029  0.19659164  1
  Se  Se258  1  0.75102864  0.91386851  0.69994894  1
