# generated using pymatgen
data_In86Cu29Se144
_symmetry_space_group_name_H-M   'P 1'
_cell_length_a   17.58273806
_cell_length_b   17.59334149
_cell_length_c   23.44856269
_cell_angle_alpha   90.01736934
_cell_angle_beta   89.99818151
_cell_angle_gamma   89.99551487
_symmetry_Int_Tables_number   1
_chemical_formula_structural   In86Cu29Se144
_chemical_formula_sum   'In86 Cu29 Se144'
_cell_volume   7253.55727319
_cell_formula_units_Z   1
loop_
 _symmetry_equiv_pos_site_id
 _symmetry_equiv_pos_as_xyz
  1  'x, y, z'
loop_
 _atom_site_type_symbol
 _atom_site_label
 _atom_site_symmetry_multiplicity
 _atom_site_fract_x
 _atom_site_fract_y
 _atom_site_fract_z
 _atom_site_occupancy
  In  In0  1  0.01814078  0.17118497  0.12499020  1
  In  In1  1  0.00031342  0.18462249  0.62695079  1
  In  In2  1  -0.00528516  0.49645282  0.12968441  1
  In  In3  1  0.00263223  0.49833281  0.62594999  1
  In  In4  1  0.00267768  0.82435258  0.12281167  1
  In  In5  1  -0.01121862  0.82734216  0.62667312  1
  In  In6  1  0.32583694  0.15833548  0.11526786  1
  In  In7  1  0.34747310  0.15496026  0.63439661  1
  In  In8  1  0.34780840  0.49366619  0.12873915  1
  In  In9  1  0.33139296  0.50060539  0.62415370  1
  In  In10  1  0.33160947  0.84361400  0.13060605  1
  In  In11  1  0.36548094  0.81244446  0.64891189  1
  In  In12  1  0.64967189  0.16466963  0.12069886  1
  In  In13  1  0.66434919  0.17033507  0.62400156  1
  In  In14  1  0.65325594  0.50476858  0.12479333  1
  In  In15  1  0.66575062  0.49733012  0.62572241  1
  In  In16  1  0.67047569  0.83952477  0.13402285  1
  In  In17  1  0.64140660  0.84912789  0.64161951  1
  In  In18  1  0.17573099  -0.00987082  0.37117920  1
  In  In19  1  0.18186314  -0.00295303  0.88343522  1
  In  In20  1  0.17600595  0.34581591  0.37425333  1
  In  In21  1  0.16344811  0.32475602  0.87509408  1
  In  In22  1  0.17698387  0.65587267  0.38035623  1
  In  In23  1  0.17364882  0.67169415  0.86639075  1
  In  In24  1  0.50388941  -0.00026872  0.37432075  1
  In  In25  1  0.50767603  0.00761323  0.86557629  1
  In  In26  1  0.49577085  0.33281892  0.38767164  1
  In  In27  1  0.49705423  0.33184733  0.87211777  1
  In  In28  1  0.49704849  0.66488119  0.38156412  1
  In  In29  1  0.48716776  0.65695123  0.85760335  1
  In  In30  1  0.83112082  0.01451611  0.37576747  1
  In  In31  1  0.81829816  0.00415089  0.87259693  1
  In  In32  1  0.83824429  0.32899696  0.38361871  1
  In  In33  1  0.83935916  0.33644883  0.86571409  1
  In  In34  1  0.81935572  0.66395131  0.38195809  1
  In  In35  1  0.82908480  0.65962586  0.86528732  1
  In  In36  1  -0.00940510  0.16731358  0.37368564  1
  In  In37  1  0.01050650  0.18225092  0.87613609  1
  In  In38  1  0.00989183  0.49257644  0.38376291  1
  In  In39  1  -0.00193922  0.49386389  0.86766700  1
  In  In40  1  0.00235516  0.83561062  0.37473278  1
  In  In41  1  0.01643493  0.83651728  0.87663477  1
  In  In42  1  0.34420014  0.17121352  0.37591427  1
  In  In43  1  0.34039070  0.17284050  0.87600626  1
  In  In44  1  0.33308246  0.50181397  0.38270599  1
  In  In45  1  0.33756764  0.50352631  0.86857313  1
  In  In46  1  0.36104906  0.84555652  0.35478325  1
  In  In47  1  0.33143716  0.82452138  0.86357283  1
  In  In48  1  0.66825815  0.16379732  0.38183417  1
  In  In49  1  0.65285100  0.16122736  0.86492798  1
  In  In50  1  0.66372147  0.50511379  0.39133025  1
  In  In51  1  0.65609027  0.48687337  0.86141121  1
  In  In52  1  0.64667317  0.83082659  0.37217568  1
  In  In53  1  0.65099867  0.82770952  0.85623301  1
  In  In54  1  0.18574784  0.01261879  0.11698379  1
  In  In55  1  0.18358212  0.00544034  0.62469936  1
  In  In56  1  0.16237025  0.30844854  0.12209588  1
  In  In57  1  0.15730309  0.33936874  0.63399179  1
  In  In58  1  0.16955543  0.68190542  0.11712728  1
  In  In59  1  0.18056174  0.65646653  0.63241369  1
  In  In60  1  0.48571766  0.00508982  0.13946737  1
  In  In61  1  0.49791036  0.00215082  0.62268030  1
  In  In62  1  0.48690845  0.33078633  0.10611964  1
  In  In63  1  0.49826133  0.33388814  0.62623049  1
  In  In64  1  0.49071837  0.64961719  0.12444211  1
  In  In65  1  0.50430853  0.66220792  0.62648426  1
  In  In66  1  0.82175951  -0.00547259  0.13158036  1
  In  In67  1  0.81318201  -0.00016719  0.62255111  1
  In  In68  1  0.83991307  0.34467471  0.12777185  1
  In  In69  1  0.83338910  0.33404015  0.62497996  1
  In  In70  1  0.83684788  0.66669746  0.12754966  1
  In  In71  1  0.83644356  0.66048071  0.62866159  1
  In  In72  1  -0.00113995  0.66831182  0.24739808  1
  In  In73  1  0.83850412  0.16961452  -0.00630303  1
  In  In74  1  0.17577143  0.82916040  0.49961857  1
  In  In75  1  0.83041595  0.49543376  -0.01336216  1
  In  In76  1  0.83300341  0.83420161  0.00549792  1
  In  In77  1  0.65865442  0.66783448  0.25932029  1
  In  In78  1  0.66424579  0.33405755  0.24721290  1
  In  In79  1  0.17060265  0.49215161  -0.00097825  1
  In  In80  1  -0.00411485  -0.00316323  0.75272825  1
  In  In81  1  0.82202222  0.82930372  0.50085184  1
  In  In82  1  0.00190527  0.00390063  0.24967578  1
  In  In83  1  0.33074771  0.32902844  0.24874082  1
  In  In84  1  0.16915047  0.17340706  0.50113251  1
  In  In85  1  0.49658695  0.83831462  -0.00119491  1
  Cu  Cu86  1  0.66552802  0.33375155  0.50703109  1
  Cu  Cu87  1  0.33902970  0.66848690  0.50470685  1
  Cu  Cu88  1  -0.00305462  0.34041646  0.50430902  1
  Cu  Cu89  1  0.17147265  0.16865361  0.75230057  1
  Cu  Cu90  1  0.83667287  0.49812056  0.74329736  1
  Cu  Cu91  1  0.16273797  0.83247770  0.75103429  1
  Cu  Cu92  1  0.66241708  0.33480641  -0.00744611  1
  Cu  Cu93  1  0.49896186  0.16158646  0.25107078  1
  Cu  Cu94  1  0.49847668  0.49707990  0.74302905  1
  Cu  Cu95  1  0.01091479  0.00512340  -0.00047695  1
  Cu  Cu96  1  0.50056087  0.17169114  0.74787530  1
  Cu  Cu97  1  0.33577637  0.00318163  -0.00052722  1
  Cu  Cu98  1  -0.00650080  0.01179736  0.49889034  1
  Cu  Cu99  1  0.00228513  0.65899679  0.50510160  1
  Cu  Cu100  1  0.16903370  0.50068684  0.75129891  1
  Cu  Cu101  1  0.65792458  0.00516582  0.50179528  1
  Cu  Cu102  1  0.33152724  0.33475635  0.50624546  1
  Cu  Cu103  1  0.83372355  0.49694040  0.25651039  1
  Cu  Cu104  1  0.82945566  0.82419107  0.74689942  1
  Cu  Cu105  1  0.34333026  -0.00623704  0.50030538  1
  Cu  Cu106  1  0.82993945  0.17046120  0.25526723  1
  Cu  Cu107  1  0.66538532  0.66530818  0.50866371  1
  Cu  Cu108  1  0.17162567  0.83491382  0.24547642  1
  Cu  Cu109  1  0.83000966  0.16671529  0.74841181  1
  Cu  Cu110  1  0.16864523  0.49791932  0.25452885  1
  Cu  Cu111  1  0.66070837  -0.00124068  -0.00506817  1
  Cu  Cu112  1  0.65216618  0.66551986  -0.00104072  1
  Cu  Cu113  1  0.33207042  0.66865294  -0.01009565  1
  Cu  Cu114  1  0.00338061  0.66752916  -0.00465072  1
  Se  Se115  1  0.09228881  0.08972084  0.05199131  1
  Se  Se116  1  0.07868423  0.08056006  0.56200132  1
  Se  Se117  1  0.07621375  0.41052372  0.06141909  1
  Se  Se118  1  0.08774403  0.41751002  0.55551645  1
  Se  Se119  1  0.08329437  0.75564933  0.04587728  1
  Se  Se120  1  0.08142529  0.74439064  0.56132725  1
  Se  Se121  1  0.42361922  0.07885209  0.05559059  1
  Se  Se122  1  0.41779778  0.08724670  0.55133449  1
  Se  Se123  1  0.41641857  0.43035963  0.04545864  1
  Se  Se124  1  0.41723599  0.41870799  0.55648295  1
  Se  Se125  1  0.40887640  0.74480496  0.05703262  1
  Se  Se126  1  0.42242823  0.75144220  0.55838099  1
  Se  Se127  1  0.74659194  0.07754529  0.05298263  1
  Se  Se128  1  0.74616445  0.08778713  0.55076582  1
  Se  Se129  1  0.74081740  0.41243169  0.05634333  1
  Se  Se130  1  0.75204381  0.41791245  0.55587290  1
  Se  Se131  1  0.73691499  0.73889889  0.05926259  1
  Se  Se132  1  0.73772525  0.75085409  0.57064820  1
  Se  Se133  1  0.27488290  0.27259316  0.05834592  1
  Se  Se134  1  0.25551643  0.25312953  0.56910783  1
  Se  Se135  1  0.25636379  0.58980560  0.05588044  1
  Se  Se136  1  0.25052477  0.58455139  0.55195788  1
  Se  Se137  1  0.25505622  0.91443167  0.05177120  1
  Se  Se138  1  0.26586173  0.91378429  0.56187796  1
  Se  Se139  1  0.58236966  0.24896375  0.04659506  1
  Se  Se140  1  0.57824060  0.24979835  0.55514908  1
  Se  Se141  1  0.57368929  0.57712256  0.04971895  1
  Se  Se142  1  0.58080059  0.57716877  0.55530671  1
  Se  Se143  1  0.58688794  0.92332650  0.06231241  1
  Se  Se144  1  0.58082161  0.91583070  0.55441749  1
  Se  Se145  1  0.92182382  0.25634734  0.05979611  1
  Se  Se146  1  0.91527612  0.25090322  0.55261809  1
  Se  Se147  1  0.92096491  0.58729618  0.05322533  1
  Se  Se148  1  0.91567653  0.57981442  0.55707980  1
  Se  Se149  1  0.92556055  0.93070139  0.06018885  1
  Se  Se150  1  0.91771517  0.92382991  0.55642672  1
  Se  Se151  1  0.07657339  0.26013261  0.44084175  1
  Se  Se152  1  0.08956328  0.24876635  0.95237145  1
  Se  Se153  1  0.08885123  0.58253437  0.44938282  1
  Se  Se154  1  0.08152818  0.58471409  0.93714566  1
  Se  Se155  1  0.07734962  0.92683026  0.44626740  1
  Se  Se156  1  0.09128466  0.91663503  0.94912437  1
  Se  Se157  1  0.41273970  0.24789364  0.45429781  1
  Se  Se158  1  0.43528285  0.23905644  0.94497154  1
  Se  Se159  1  0.41970528  0.57960281  0.45211596  1
  Se  Se160  1  0.41808628  0.58656899  0.93980252  1
  Se  Se161  1  0.42180507  0.91130909  0.44244127  1
  Se  Se162  1  0.41103835  0.92509476  0.93403184  1
  Se  Se163  1  0.74686704  0.25216875  0.44850861  1
  Se  Se164  1  0.74424173  0.25573430  0.93382371  1
  Se  Se165  1  0.75331861  0.58292523  0.45854855  1
  Se  Se166  1  0.73418571  0.58847267  0.93708721  1
  Se  Se167  1  0.73913562  0.92432873  0.43968981  1
  Se  Se168  1  0.73748970  0.91105293  0.93951495  1
  Se  Se169  1  0.25650269  0.07424169  0.44434297  1
  Se  Se170  1  0.25495167  0.09186691  0.94764174  1
  Se  Se171  1  0.24921295  0.41830606  0.45193882  1
  Se  Se172  1  0.26103977  0.40921391  0.93721988  1
  Se  Se173  1  0.26895859  0.74909798  0.43663377  1
  Se  Se174  1  0.24917356  0.75386943  0.93999200  1
  Se  Se175  1  0.57552296  0.08765775  0.44686479  1
  Se  Se176  1  0.58113270  0.08541595  0.94358644  1
  Se  Se177  1  0.58054629  0.41616918  0.45362419  1
  Se  Se178  1  0.57996504  0.42013466  0.94105069  1
  Se  Se179  1  0.58560983  0.74497732  0.44891967  1
  Se  Se180  1  0.57941087  0.74559651  0.93563847  1
  Se  Se181  1  0.90949380  0.09400983  0.44862554  1
  Se  Se182  1  0.92588335  0.07265541  0.93521587  1
  Se  Se183  1  0.91323989  0.42252261  0.44933698  1
  Se  Se184  1  0.93028102  0.40168247  0.94371072  1
  Se  Se185  1  0.92537334  0.74309260  0.44448788  1
  Se  Se186  1  0.91608248  0.74492747  0.93839657  1
  Se  Se187  1  0.24113919  0.23993640  0.31032245  1
  Se  Se188  1  0.25395243  0.25218501  0.80580593  1
  Se  Se189  1  0.25389049  0.57852564  0.30638570  1
  Se  Se190  1  0.25492693  0.58670814  0.80011018  1
  Se  Se191  1  0.25612112  0.91864400  0.29724378  1
  Se  Se192  1  0.24548000  0.91685003  0.80383983  1
  Se  Se193  1  0.57482487  0.24738179  0.31079676  1
  Se  Se194  1  0.58511668  0.25780615  0.79892153  1
  Se  Se195  1  0.57674572  0.56634343  0.31193338  1
  Se  Se196  1  0.58410929  0.58139353  0.79560162  1
  Se  Se197  1  0.57472181  0.91330783  0.30075129  1
  Se  Se198  1  0.59018117  0.93000699  0.79468698  1
  Se  Se199  1  0.91362394  0.25471127  0.30512813  1
  Se  Se200  1  0.91826857  0.24354715  0.80262087  1
  Se  Se201  1  0.91231032  0.58201604  0.31409028  1
  Se  Se202  1  0.91858725  0.58021913  0.80061316  1
  Se  Se203  1  0.91027511  0.91485636  0.31047102  1
  Se  Se204  1  0.90508901  0.90458725  0.81270842  1
  Se  Se205  1  0.09240917  0.08918709  0.31191180  1
  Se  Se206  1  0.09021411  0.08382977  0.81078506  1
  Se  Se207  1  0.08257924  0.41665035  0.30565431  1
  Se  Se208  1  0.08815633  0.41373815  0.80443562  1
  Se  Se209  1  0.09473000  0.75535441  0.30857032  1
  Se  Se210  1  0.07801303  0.74827881  0.80184129  1
  Se  Se211  1  0.41461157  0.08223775  0.30627485  1
  Se  Se212  1  0.41697882  0.08894152  0.80255145  1
  Se  Se213  1  0.41963810  0.41589009  0.31178729  1
  Se  Se214  1  0.41763035  0.41651038  0.80143696  1
  Se  Se215  1  0.41232477  0.72690316  0.30413063  1
  Se  Se216  1  0.43193530  0.76572124  0.79682553  1
  Se  Se217  1  0.74442407  0.08736001  0.30449706  1
  Se  Se218  1  0.74463764  0.08247701  0.79861001  1
  Se  Se219  1  0.74824542  0.42155983  0.31465924  1
  Se  Se220  1  0.75372723  0.41468960  0.79800943  1
  Se  Se221  1  0.75650063  0.75963302  0.31090810  1
  Se  Se222  1  0.74417578  0.74180735  0.79888547  1
  Se  Se223  1  0.25459589  0.08715775  0.19519800  1
  Se  Se224  1  0.25319179  0.08214305  0.70204164  1
  Se  Se225  1  0.23994008  0.41858635  0.18739130  1
  Se  Se226  1  0.25115749  0.41786559  0.69622330  1
  Se  Se227  1  0.25185317  0.74781489  0.19331853  1
  Se  Se228  1  0.25011120  0.75020165  0.70051684  1
  Se  Se229  1  0.58718610  0.08210976  0.19826458  1
  Se  Se230  1  0.58107126  0.08679793  0.69193643  1
  Se  Se231  1  0.56800528  0.41467876  0.18723556  1
  Se  Se232  1  0.58579101  0.41247913  0.69525548  1
  Se  Se233  1  0.57572046  0.74689001  0.18745656  1
  Se  Se234  1  0.57637137  0.74630381  0.70115175  1
  Se  Se235  1  0.90953198  0.09377391  0.18896104  1
  Se  Se236  1  0.91084650  0.08532892  0.68766355  1
  Se  Se237  1  0.91935308  0.41640413  0.20393702  1
  Se  Se238  1  0.92179215  0.41210618  0.69424561  1
  Se  Se239  1  0.90365700  0.76509635  0.19690660  1
  Se  Se240  1  0.91918778  0.74334477  0.69939273  1
  Se  Se241  1  0.07860492  0.25404032  0.20258124  1
  Se  Se242  1  0.08202261  0.25015728  0.70376584  1
  Se  Se243  1  0.09416318  0.58032522  0.18933441  1
  Se  Se244  1  0.08454188  0.58236791  0.69601349  1
  Se  Se245  1  0.08982924  0.91449260  0.18580047  1
  Se  Se246  1  0.08822204  0.91348328  0.68675674  1
  Se  Se247  1  0.42533299  0.24432840  0.18836889  1
  Se  Se248  1  0.41353293  0.25586646  0.69834341  1
  Se  Se249  1  0.40930252  0.58396906  0.20133691  1
  Se  Se250  1  0.41362326  0.58308912  0.69383594  1
  Se  Se251  1  0.42593425  0.90256187  0.20242562  1
  Se  Se252  1  0.39949550  0.94092602  0.69227661  1
  Se  Se253  1  0.75417607  0.24327390  0.18544770  1
  Se  Se254  1  0.74944067  0.25109569  0.69368291  1
  Se  Se255  1  0.75441518  0.57545601  0.19461860  1
  Se  Se256  1  0.74842138  0.58136740  0.69539065  1
  Se  Se257  1  0.74726304  0.91875672  0.20530064  1
  Se  Se258  1  0.75021462  0.91612041  0.69906000  1
