# generated using pymatgen
data_In86Cu29Se144
_symmetry_space_group_name_H-M   'P 1'
_cell_length_a   17.58464901
_cell_length_b   17.58998914
_cell_length_c   23.45266015
_cell_angle_alpha   90.02841817
_cell_angle_beta   90.00243139
_cell_angle_gamma   89.98662088
_symmetry_Int_Tables_number   1
_chemical_formula_structural   In86Cu29Se144
_chemical_formula_sum   'In86 Cu29 Se144'
_cell_volume   7254.22998522
_cell_formula_units_Z   1
loop_
 _symmetry_equiv_pos_site_id
 _symmetry_equiv_pos_as_xyz
  1  'x, y, z'
loop_
 _atom_site_type_symbol
 _atom_site_label
 _atom_site_symmetry_multiplicity
 _atom_site_fract_x
 _atom_site_fract_y
 _atom_site_fract_z
 _atom_site_occupancy
  In  In0  1  0.00237454  0.15278221  0.12242887  1
  In  In1  1  -0.00266892  0.16598559  0.63132784  1
  In  In2  1  0.01073939  0.50758405  0.11648528  1
  In  In3  1  -0.01058650  0.50258235  0.62839129  1
  In  In4  1  -0.01226120  0.84284275  0.12982530  1
  In  In5  1  0.01615038  0.82372783  0.63892398  1
  In  In6  1  0.33009013  0.16405988  0.11580268  1
  In  In7  1  0.33389238  0.17530603  0.62685537  1
  In  In8  1  0.33021170  0.50990662  0.12322086  1
  In  In9  1  0.33275470  0.50022488  0.63646297  1
  In  In10  1  0.32106724  0.82605704  0.12470342  1
  In  In11  1  0.31716943  0.83509389  0.63452967  1
  In  In12  1  0.66366692  0.17512148  0.12993698  1
  In  In13  1  0.68742465  0.17972450  0.61553763  1
  In  In14  1  0.67431188  0.49336243  0.12840051  1
  In  In15  1  0.67911077  0.49305619  0.62597973  1
  In  In16  1  0.67855634  0.81993892  0.13199133  1
  In  In17  1  0.66869861  0.81854854  0.62607445  1
  In  In18  1  0.15117035  0.01340628  0.38762742  1
  In  In19  1  0.16553997  0.00954628  0.87372009  1
  In  In20  1  0.14764364  0.32560997  0.38291695  1
  In  In21  1  0.16474556  0.33508131  0.87226028  1
  In  In22  1  0.17313597  0.67585266  0.37111812  1
  In  In23  1  0.14663231  0.65893230  0.86052923  1
  In  In24  1  0.50037754  -0.00929221  0.37230363  1
  In  In25  1  0.51373388  0.00486509  0.87899267  1
  In  In26  1  0.51008633  0.32404994  0.37652608  1
  In  In27  1  0.49557532  0.32844448  0.86815796  1
  In  In28  1  0.50170799  0.66877900  0.36978571  1
  In  In29  1  0.49917983  0.66847185  0.86380657  1
  In  In30  1  0.84335747  0.00798282  0.36544151  1
  In  In31  1  0.83649849  -0.01409899  0.87889864  1
  In  In32  1  0.81848702  0.35092604  0.39608203  1
  In  In33  1  0.84555946  0.34788496  0.86611111  1
  In  In34  1  0.82448570  0.65543159  0.37159421  1
  In  In35  1  0.83425187  0.66698399  0.87426584  1
  In  In36  1  -0.00156062  0.16423439  0.38194026  1
  In  In37  1  0.00229980  0.17409825  0.86889738  1
  In  In38  1  -0.02346262  0.50088554  0.38205964  1
  In  In39  1  -0.00197008  0.50256340  0.87520952  1
  In  In40  1  0.00665046  0.84008427  0.37048089  1
  In  In41  1  -0.00271504  0.82328091  0.86520087  1
  In  In42  1  0.31698909  0.15677330  0.37935798  1
  In  In43  1  0.32637018  0.17734746  0.87748354  1
  In  In44  1  0.32263123  0.50716190  0.37481467  1
  In  In45  1  0.32554733  0.49028298  0.86830900  1
  In  In46  1  0.33165689  0.82606469  0.37714089  1
  In  In47  1  0.32414422  0.81791701  0.86533081  1
  In  In48  1  0.68396741  0.18097645  0.36383611  1
  In  In49  1  0.65659818  0.16837011  0.87790449  1
  In  In50  1  0.67775057  0.50853353  0.37184815  1
  In  In51  1  0.67857032  0.51083707  0.87107543  1
  In  In52  1  0.66074532  0.82722563  0.36694744  1
  In  In53  1  0.67924743  0.83715731  0.87343910  1
  In  In54  1  0.14945780  0.00197160  0.12061268  1
  In  In55  1  0.15465615  -0.01691965  0.61569816  1
  In  In56  1  0.16164063  0.33082721  0.11546666  1
  In  In57  1  0.16838067  0.32793707  0.63046465  1
  In  In58  1  0.17026382  0.66413140  0.12798043  1
  In  In59  1  0.15942613  0.67315504  0.63453417  1
  In  In60  1  0.50023880  0.01421225  0.12320404  1
  In  In61  1  0.49873093  -0.00090617  0.62438577  1
  In  In62  1  0.51536503  0.33693544  0.12394915  1
  In  In63  1  0.50281240  0.33267571  0.63317719  1
  In  In64  1  0.49673155  0.66890970  0.13059505  1
  In  In65  1  0.50541858  0.66458504  0.63732372  1
  In  In66  1  0.84614201  -0.01352210  0.13386834  1
  In  In67  1  0.83989167  0.01870355  0.62187088  1
  In  In68  1  0.82280030  0.33674665  0.12348376  1
  In  In69  1  0.83342432  0.33419464  0.62678419  1
  In  In70  1  0.83650617  0.66627265  0.12343024  1
  In  In71  1  0.83912430  0.65788938  0.62451775  1
  In  In72  1  0.33202566  -0.00555331  0.25219985  1
  In  In73  1  0.49595182  0.82997048  0.49436059  1
  In  In74  1  0.83526014  0.16771093  0.00182121  1
  In  In75  1  0.15577011  0.49663981  0.50981138  1
  In  In76  1  0.32862589  0.00033103  0.75290898  1
  In  In77  1  0.83808237  0.83704340  0.49658558  1
  In  In78  1  0.50721074  0.50069057  0.50377549  1
  In  In79  1  -0.00641417  0.33440372  0.25935106  1
  In  In80  1  0.50174700  0.83762906  -0.00709992  1
  In  In81  1  0.50001654  0.49616674  0.00081820  1
  In  In82  1  0.15847204  0.83721350  -0.00108310  1
  In  In83  1  0.67054671  0.00000647  0.75001760  1
  In  In84  1  0.50257314  0.16530201  0.50590706  1
  In  In85  1  0.33857999  0.33979818  0.25101044  1
  Cu  Cu86  1  -0.00103287  -0.00052932  0.50169916  1
  Cu  Cu87  1  0.16221893  0.49710164  0.74963830  1
  Cu  Cu88  1  0.33132774  0.32844869  -0.00859906  1
  Cu  Cu89  1  0.00192151  0.33689047  -0.00820326  1
  Cu  Cu90  1  0.33583320  0.00724141  -0.00597863  1
  Cu  Cu91  1  0.50499483  0.16786571  0.74834410  1
  Cu  Cu92  1  0.15981909  0.16252120  0.25454229  1
  Cu  Cu93  1  0.50470310  0.49827486  0.75232920  1
  Cu  Cu94  1  0.66915366  0.33401523  0.00136354  1
  Cu  Cu95  1  0.50247355  0.83148626  0.25020758  1
  Cu  Cu96  1  0.16302024  0.83023960  0.24954039  1
  Cu  Cu97  1  0.50538163  0.50429077  0.24770413  1
  Cu  Cu98  1  0.66491706  -0.00019942  0.49371939  1
  Cu  Cu99  1  0.16530753  0.16918382  0.75103275  1
  Cu  Cu100  1  0.83264650  0.17215183  0.74845287  1
  Cu  Cu101  1  0.50768718  0.16865891  0.24875741  1
  Cu  Cu102  1  0.67073768  0.00051644  0.00436634  1
  Cu  Cu103  1  0.32762866  0.32982689  0.50528865  1
  Cu  Cu104  1  0.00308218  0.67014881  0.50410291  1
  Cu  Cu105  1  0.16323666  0.50951716  0.24942203  1
  Cu  Cu106  1  0.83295929  0.50200204  0.24933574  1
  Cu  Cu107  1  0.32676933  0.65928059  -0.00281923  1
  Cu  Cu108  1  0.83168802  0.50261697  0.74964924  1
  Cu  Cu109  1  0.32964016  0.67247650  0.50375799  1
  Cu  Cu110  1  0.83428752  0.82894925  0.74928663  1
  Cu  Cu111  1  0.83301729  0.16524105  0.24854286  1
  Cu  Cu112  1  -0.00420212  0.66785517  -0.00507632  1
  Cu  Cu113  1  0.67741628  0.66567446  0.00138576  1
  Cu  Cu114  1  0.83287428  0.82782259  0.25277328  1
  Se  Se115  1  0.09130143  0.09344110  0.04807290  1
  Se  Se116  1  0.07824082  0.08365563  0.55847655  1
  Se  Se117  1  0.08601212  0.41882832  0.04774786  1
  Se  Se118  1  0.06826769  0.40247557  0.56406304  1
  Se  Se119  1  0.07397780  0.74511999  0.06093224  1
  Se  Se120  1  0.08634869  0.75103727  0.55734839  1
  Se  Se121  1  0.42026353  0.08736246  0.04861325  1
  Se  Se122  1  0.40597401  0.07456105  0.55775986  1
  Se  Se123  1  0.40673941  0.40555744  0.05976130  1
  Se  Se124  1  0.40966235  0.41176214  0.56038167  1
  Se  Se125  1  0.40888337  0.74407792  0.05254596  1
  Se  Se126  1  0.41522407  0.74494390  0.56428899  1
  Se  Se127  1  0.74960992  0.07956955  0.06626499  1
  Se  Se128  1  0.74917862  0.08069728  0.54742832  1
  Se  Se129  1  0.75172941  0.42173434  0.05008491  1
  Se  Se130  1  0.76553364  0.42453687  0.55377333  1
  Se  Se131  1  0.75715486  0.75372205  0.05301289  1
  Se  Se132  1  0.74996099  0.74189969  0.55233599  1
  Se  Se133  1  0.24808030  0.24898087  0.05006326  1
  Se  Se134  1  0.24469217  0.24649295  0.55612920  1
  Se  Se135  1  0.24243667  0.58041848  0.05222549  1
  Se  Se136  1  0.25465483  0.58590182  0.56177516  1
  Se  Se137  1  0.25792644  0.92694139  0.05596096  1
  Se  Se138  1  0.25414055  0.91168142  0.55502528  1
  Se  Se139  1  0.58535613  0.24937288  0.05220948  1
  Se  Se140  1  0.59082830  0.26621312  0.55462752  1
  Se  Se141  1  0.58806069  0.59084005  0.05907796  1
  Se  Se142  1  0.59293502  0.59225743  0.56236482  1
  Se  Se143  1  0.58832288  0.91758986  0.06249805  1
  Se  Se144  1  0.59154369  0.91906608  0.55619242  1
  Se  Se145  1  0.92678046  0.26071758  0.06071005  1
  Se  Se146  1  0.89246177  0.22427298  0.56650394  1
  Se  Se147  1  0.91677900  0.58328973  0.05230742  1
  Se  Se148  1  0.91941513  0.58182628  0.55002532  1
  Se  Se149  1  0.92668399  0.92858887  0.05342500  1
  Se  Se150  1  0.92461650  0.91696216  0.56502618  1
  Se  Se151  1  0.08678175  0.23525336  0.45370472  1
  Se  Se152  1  0.08395609  0.25011989  0.94225537  1
  Se  Se153  1  0.07990815  0.58804936  0.43991815  1
  Se  Se154  1  0.08328445  0.58598125  0.94402029  1
  Se  Se155  1  0.08045808  0.91195697  0.44984278  1
  Se  Se156  1  0.07247539  0.92235187  0.93554590  1
  Se  Se157  1  0.40747496  0.25358885  0.44180368  1
  Se  Se158  1  0.42285669  0.24827191  0.94418798  1
  Se  Se159  1  0.41011712  0.59086860  0.44471746  1
  Se  Se160  1  0.41360737  0.58618592  0.93811276  1
  Se  Se161  1  0.40378451  0.92788718  0.44357060  1
  Se  Se162  1  0.40529506  0.92155813  0.93248007  1
  Se  Se163  1  0.74775344  0.24339599  0.44955553  1
  Se  Se164  1  0.75075883  0.25826991  0.93797151  1
  Se  Se165  1  0.76588930  0.56814617  0.44842022  1
  Se  Se166  1  0.75792513  0.58149334  0.94753031  1
  Se  Se167  1  0.74479033  0.92035907  0.43337311  1
  Se  Se168  1  0.74978218  0.91458936  0.95119384  1
  Se  Se169  1  0.24587851  0.08178213  0.45442354  1
  Se  Se170  1  0.24787216  0.08834785  0.94392457  1
  Se  Se171  1  0.25095248  0.41143864  0.44383994  1
  Se  Se172  1  0.24797800  0.41674553  0.94429038  1
  Se  Se173  1  0.24591756  0.75238941  0.44916981  1
  Se  Se174  1  0.24429520  0.74066260  0.94062118  1
  Se  Se175  1  0.58628994  0.08268793  0.43522169  1
  Se  Se176  1  0.58662370  0.08513326  0.95366391  1
  Se  Se177  1  0.59340813  0.41288068  0.44099173  1
  Se  Se178  1  0.59024899  0.41243827  0.93735186  1
  Se  Se179  1  0.59372992  0.73763637  0.44450225  1
  Se  Se180  1  0.59241365  0.74057839  0.94043331  1
  Se  Se181  1  0.91227365  0.07803391  0.44745277  1
  Se  Se182  1  0.92251134  0.08117610  0.93937028  1
  Se  Se183  1  0.94843896  0.38282128  0.44133508  1
  Se  Se184  1  0.91405202  0.42179920  0.94670306  1
  Se  Se185  1  0.92368009  0.74268584  0.43699034  1
  Se  Se186  1  0.91593188  0.75412094  0.94228552  1
  Se  Se187  1  0.24131298  0.24971737  0.30753763  1
  Se  Se188  1  0.25057739  0.25343850  0.80226218  1
  Se  Se189  1  0.25248680  0.58900075  0.30097215  1
  Se  Se190  1  0.24685848  0.58056011  0.80287545  1
  Se  Se191  1  0.23760158  0.91358069  0.31351317  1
  Se  Se192  1  0.23402388  0.90771083  0.80573054  1
  Se  Se193  1  0.58890243  0.25644986  0.29879086  1
  Se  Se194  1  0.58850467  0.25083688  0.80198298  1
  Se  Se195  1  0.58720347  0.58527147  0.30491539  1
  Se  Se196  1  0.58815498  0.58438959  0.80253616  1
  Se  Se197  1  0.58440631  0.91854861  0.30004349  1
  Se  Se198  1  0.57703566  0.90975734  0.80690005  1
  Se  Se199  1  0.90235676  0.24546967  0.31617068  1
  Se  Se200  1  0.91891364  0.25520393  0.80003244  1
  Se  Se201  1  0.91822981  0.58363085  0.30224808  1
  Se  Se202  1  0.91638434  0.58478284  0.80439007  1
  Se  Se203  1  0.91873008  0.91472127  0.30067498  1
  Se  Se204  1  0.91431282  0.91606740  0.80156210  1
  Se  Se205  1  0.07557301  0.08190440  0.30748352  1
  Se  Se206  1  0.08177969  0.08480863  0.80201035  1
  Se  Se207  1  0.08891858  0.42879936  0.31300232  1
  Se  Se208  1  0.07835951  0.41704803  0.80564669  1
  Se  Se209  1  0.07992130  0.74654955  0.30296830  1
  Se  Se210  1  0.08367080  0.75415586  0.79252332  1
  Se  Se211  1  0.42099988  0.09427884  0.30830880  1
  Se  Se212  1  0.42610484  0.08922606  0.81030050  1
  Se  Se213  1  0.42810491  0.42825855  0.31443717  1
  Se  Se214  1  0.41659151  0.41502071  0.80126614  1
  Se  Se215  1  0.41564310  0.75235947  0.30437675  1
  Se  Se216  1  0.41899983  0.75424327  0.79904822  1
  Se  Se217  1  0.74748122  0.07913398  0.29905987  1
  Se  Se218  1  0.75782723  0.08998080  0.81338757  1
  Se  Se219  1  0.75723685  0.41542890  0.30732158  1
  Se  Se220  1  0.74704073  0.41716440  0.80163989  1
  Se  Se221  1  0.74779518  0.74378761  0.30321030  1
  Se  Se222  1  0.74946273  0.74838190  0.80318893  1
  Se  Se223  1  0.24425459  0.08852895  0.19265315  1
  Se  Se224  1  0.24320579  0.08794360  0.68947848  1
  Se  Se225  1  0.23940041  0.42117282  0.19158588  1
  Se  Se226  1  0.24859234  0.41315158  0.69910300  1
  Se  Se227  1  0.25058576  0.74722810  0.19987346  1
  Se  Se228  1  0.25833827  0.73608614  0.70102439  1
  Se  Se229  1  0.58707211  0.08164976  0.19638581  1
  Se  Se230  1  0.58567668  0.09237658  0.68509958  1
  Se  Se231  1  0.58742033  0.41636496  0.19859660  1
  Se  Se232  1  0.58764797  0.41899955  0.69541691  1
  Se  Se233  1  0.58457687  0.74579712  0.19764567  1
  Se  Se234  1  0.58256439  0.75843530  0.70031946  1
  Se  Se235  1  0.92068203  0.08389318  0.19802037  1
  Se  Se236  1  0.91602945  0.08166713  0.70332123  1
  Se  Se237  1  0.91509188  0.42253887  0.18903915  1
  Se  Se238  1  0.91466211  0.41583575  0.69894894  1
  Se  Se239  1  0.91664725  0.74811887  0.19571803  1
  Se  Se240  1  0.91603603  0.74447303  0.69470416  1
  Se  Se241  1  0.08512605  0.24852284  0.19410954  1
  Se  Se242  1  0.07987963  0.25193489  0.69904581  1
  Se  Se243  1  0.07797854  0.58801448  0.19486048  1
  Se  Se244  1  0.07874568  0.58009190  0.69571448  1
  Se  Se245  1  0.08412066  0.91714399  0.19563778  1
  Se  Se246  1  0.08058500  0.92740204  0.70013289  1
  Se  Se247  1  0.42081050  0.24416764  0.18910227  1
  Se  Se248  1  0.41666832  0.25044357  0.69898762  1
  Se  Se249  1  0.41510480  0.58104484  0.19599087  1
  Se  Se250  1  0.41827175  0.58207262  0.70188486  1
  Se  Se251  1  0.42237791  0.90840498  0.18644682  1
  Se  Se252  1  0.42369895  0.91211620  0.69445141  1
  Se  Se253  1  0.75214666  0.25377245  0.19748307  1
  Se  Se254  1  0.74587651  0.25468334  0.69902636  1
  Se  Se255  1  0.75110769  0.58492712  0.19340017  1
  Se  Se256  1  0.74937282  0.58650338  0.69546658  1
  Se  Se257  1  0.75075254  0.91383988  0.19872187  1
  Se  Se258  1  0.76024716  0.91295728  0.68587909  1
