# generated using pymatgen
data_In86Cu29Se144
_symmetry_space_group_name_H-M   'P 1'
_cell_length_a   17.57944342
_cell_length_b   17.57955014
_cell_length_c   23.44576552
_cell_angle_alpha   89.99545232
_cell_angle_beta   89.99550695
_cell_angle_gamma   90.01824282
_symmetry_Int_Tables_number   1
_chemical_formula_structural   In86Cu29Se144
_chemical_formula_sum   'In86 Cu29 Se144'
_cell_volume   7245.64865160
_cell_formula_units_Z   1
loop_
 _symmetry_equiv_pos_site_id
 _symmetry_equiv_pos_as_xyz
  1  'x, y, z'
loop_
 _atom_site_type_symbol
 _atom_site_label
 _atom_site_symmetry_multiplicity
 _atom_site_fract_x
 _atom_site_fract_y
 _atom_site_fract_z
 _atom_site_occupancy
  In  In0  1  -0.01370699  0.17666712  0.13021474  1
  In  In1  1  -0.00852112  0.17207866  0.62872754  1
  In  In2  1  -0.00350910  0.49965560  0.12778311  1
  In  In3  1  0.00693165  0.49331245  0.62832551  1
  In  In4  1  0.01636023  0.83392355  0.12267552  1
  In  In5  1  0.01368979  0.82208571  0.63522738  1
  In  In6  1  0.33883776  0.16802474  0.12274895  1
  In  In7  1  0.34324018  0.15526179  0.63290795  1
  In  In8  1  0.34215925  0.49125776  0.12015554  1
  In  In9  1  0.33380121  0.50064317  0.62770170  1
  In  In10  1  0.33192834  0.83747788  0.10689120  1
  In  In11  1  0.33318763  0.83240936  0.62834938  1
  In  In12  1  0.67761055  0.15552980  0.13067028  1
  In  In13  1  0.67950312  0.16938484  0.61499977  1
  In  In14  1  0.65493106  0.49858821  0.13340441  1
  In  In15  1  0.65754363  0.50802338  0.63024659  1
  In  In16  1  0.66574235  0.85335982  0.12119661  1
  In  In17  1  0.64994976  0.83562734  0.62467344  1
  In  In18  1  0.15176155  -0.00029076  0.37797064  1
  In  In19  1  0.16434215  -0.00760526  0.87110107  1
  In  In20  1  0.16259458  0.34622457  0.37595483  1
  In  In21  1  0.16529373  0.33086443  0.86241249  1
  In  In22  1  0.17320162  0.65943043  0.38660727  1
  In  In23  1  0.17073425  0.67141794  0.86897490  1
  In  In24  1  0.51094609  -0.00727508  0.38423630  1
  In  In25  1  0.48819245  -0.00304036  0.87565125  1
  In  In26  1  0.50468201  0.32508057  0.38421850  1
  In  In27  1  0.50780455  0.34116119  0.86594390  1
  In  In28  1  0.49898492  0.66867181  0.38791193  1
  In  In29  1  0.49917005  0.66566413  0.87306459  1
  In  In30  1  0.83950410  0.01137276  0.37284449  1
  In  In31  1  0.84349336  -0.00070361  0.87833348  1
  In  In32  1  0.81725602  0.32612785  0.36524152  1
  In  In33  1  0.82825849  0.32736951  0.87106784  1
  In  In34  1  0.83764206  0.66541653  0.37570138  1
  In  In35  1  0.83284389  0.66871928  0.86490963  1
  In  In36  1  -0.01185322  0.16111849  0.37408297  1
  In  In37  1  -0.00636827  0.15794498  0.87109748  1
  In  In38  1  0.01241373  0.49554770  0.37189520  1
  In  In39  1  0.00501677  0.50277601  0.86667098  1
  In  In40  1  -0.00035945  0.84456905  0.37855789  1
  In  In41  1  0.00498777  0.83916193  0.87089434  1
  In  In42  1  0.34345473  0.17682577  0.38105621  1
  In  In43  1  0.32862193  0.16076549  0.86111022  1
  In  In44  1  0.33149077  0.50059465  0.38579038  1
  In  In45  1  0.34430677  0.51179859  0.86402434  1
  In  In46  1  0.33532073  0.82975278  0.38526509  1
  In  In47  1  0.33722753  0.83315273  0.87417727  1
  In  In48  1  0.66521649  0.16700954  0.37821783  1
  In  In49  1  0.66247965  0.17929313  0.87576154  1
  In  In50  1  0.65806316  0.48660441  0.37037437  1
  In  In51  1  0.66063245  0.49359570  0.86922610  1
  In  In52  1  0.65153128  0.83342490  0.37710975  1
  In  In53  1  0.66934735  0.82090653  0.87402992  1
  In  In54  1  0.16575684  -0.01792082  0.12368655  1
  In  In55  1  0.17770758  -0.01144838  0.63299212  1
  In  In56  1  0.16480612  0.32343730  0.12736957  1
  In  In57  1  0.15777035  0.34182804  0.62983705  1
  In  In58  1  0.15791685  0.68487397  0.11819402  1
  In  In59  1  0.17069396  0.66507226  0.62785177  1
  In  In60  1  0.51189984  0.00426849  0.11884179  1
  In  In61  1  0.49952041  -0.01209131  0.61540035  1
  In  In62  1  0.50606055  0.34722236  0.12512301  1
  In  In63  1  0.50152823  0.33343416  0.62651185  1
  In  In64  1  0.49525587  0.66366306  0.11825132  1
  In  In65  1  0.49597401  0.66478973  0.62769238  1
  In  In66  1  0.82073895  0.01485489  0.13045375  1
  In  In67  1  0.83122832  0.01657123  0.62166167  1
  In  In68  1  0.84036875  0.32889245  0.13237332  1
  In  In69  1  0.83786854  0.32618977  0.62766219  1
  In  In70  1  0.83618377  0.66638937  0.12215079  1
  In  In71  1  0.83721982  0.66212982  0.63663840  1
  In  In72  1  0.00306272  0.66499593  0.24563365  1
  In  In73  1  0.83429938  0.50258686  0.00707372  1
  In  In74  1  0.66725153  0.66500810  0.25351174  1
  In  In75  1  0.66654197  0.00099917  0.74456104  1
  In  In76  1  0.83402390  0.83852693  -0.00329018  1
  In  In77  1  0.82971701  0.49610194  0.49081398  1
  In  In78  1  0.50034872  0.16114156  -0.00029370  1
  In  In79  1  0.17416274  0.50535347  -0.00660277  1
  In  In80  1  0.33331057  0.66155258  0.25342629  1
  In  In81  1  0.33310352  0.00270798  0.24526094  1
  In  In82  1  0.17401334  0.16286872  0.50389848  1
  In  In83  1  0.16462738  0.15920280  -0.00874855  1
  In  In84  1  0.82990350  0.83984894  0.50250745  1
  In  In85  1  0.32864230  0.33551767  0.25667954  1
  Cu  Cu86  1  0.33700264  -0.00479484  0.50727925  1
  Cu  Cu87  1  0.33442047  0.33867325  0.50622614  1
  Cu  Cu88  1  0.16891813  0.83198507  0.75186498  1
  Cu  Cu89  1  0.65907679  0.66862144  0.50641928  1
  Cu  Cu90  1  0.50875137  0.17060489  0.25465490  1
  Cu  Cu91  1  -0.00631944  0.33383282  0.00344174  1
  Cu  Cu92  1  0.16552400  0.50211581  0.74666027  1
  Cu  Cu93  1  0.16607191  0.83274327  0.25164146  1
  Cu  Cu94  1  0.83030616  0.16766313  0.25214437  1
  Cu  Cu95  1  0.15203419  0.16381625  0.25117021  1
  Cu  Cu96  1  0.83605698  0.83450214  0.75280202  1
  Cu  Cu97  1  0.50536121  0.83843201  0.24892141  1
  Cu  Cu98  1  0.33724867  0.66656670  -0.00988791  1
  Cu  Cu99  1  0.34161002  0.33524195  -0.00746587  1
  Cu  Cu100  1  0.00785100  0.66292252  0.50720379  1
  Cu  Cu101  1  -0.00194582  0.32837993  0.50457991  1
  Cu  Cu102  1  0.83514187  0.16900012  0.74875348  1
  Cu  Cu103  1  0.49770437  0.50009460  0.74785944  1
  Cu  Cu104  1  0.49471530  0.82895943  0.74734572  1
  Cu  Cu105  1  -0.00622656  0.00721497  0.00053922  1
  Cu  Cu106  1  0.00564550  -0.00461114  0.50233315  1
  Cu  Cu107  1  0.66089335  0.66267236  -0.00171043  1
  Cu  Cu108  1  0.50255757  0.16947840  0.74855074  1
  Cu  Cu109  1  0.83384785  0.84732019  0.25084541  1
  Cu  Cu110  1  0.83164179  0.49382355  0.74963209  1
  Cu  Cu111  1  0.33230367  0.66808316  0.50955057  1
  Cu  Cu112  1  0.66570203  0.33368484  0.49933529  1
  Cu  Cu113  1  0.16481401  0.16765266  0.74431646  1
  Cu  Cu114  1  0.66536972  0.33320560  -0.00474810  1
  Se  Se115  1  0.07731979  0.08265210  0.06299922  1
  Se  Se116  1  0.08219603  0.07708058  0.56512529  1
  Se  Se117  1  0.08327670  0.41270513  0.05582983  1
  Se  Se118  1  0.08186289  0.41574019  0.55167276  1
  Se  Se119  1  0.08288763  0.75878471  0.04361247  1
  Se  Se120  1  0.08901094  0.75008412  0.55710938  1
  Se  Se121  1  0.40281156  0.07029560  0.05441315  1
  Se  Se122  1  0.41891452  0.08429900  0.55443511  1
  Se  Se123  1  0.42373071  0.41590003  0.04793307  1
  Se  Se124  1  0.42000832  0.42043799  0.55862661  1
  Se  Se125  1  0.41889538  0.74790166  0.04806011  1
  Se  Se126  1  0.41864461  0.75277861  0.55840174  1
  Se  Se127  1  0.74112300  0.07717053  0.05121461  1
  Se  Se128  1  0.74736694  0.07691026  0.54542126  1
  Se  Se129  1  0.74195819  0.41067865  0.06198365  1
  Se  Se130  1  0.74551697  0.41470268  0.56073780  1
  Se  Se131  1  0.74159431  0.74484381  0.05745523  1
  Se  Se132  1  0.74867773  0.74138119  0.56310694  1
  Se  Se133  1  0.25825990  0.25637961  0.05093843  1
  Se  Se134  1  0.25638235  0.25469611  0.56682766  1
  Se  Se135  1  0.26004928  0.59369447  0.05996305  1
  Se  Se136  1  0.24797528  0.57959051  0.55687354  1
  Se  Se137  1  0.23948996  0.91487508  0.04509950  1
  Se  Se138  1  0.24956747  0.91235269  0.55555827  1
  Se  Se139  1  0.58849784  0.25287161  0.06013957  1
  Se  Se140  1  0.58438412  0.25170472  0.55574229  1
  Se  Se141  1  0.58484014  0.57845913  0.05639621  1
  Se  Se142  1  0.57668426  0.58110903  0.55571581  1
  Se  Se143  1  0.57189636  0.90888783  0.04902272  1
  Se  Se144  1  0.59818039  0.92484401  0.54833069  1
  Se  Se145  1  0.90917886  0.24993475  0.05311224  1
  Se  Se146  1  0.91156215  0.24463108  0.55216401  1
  Se  Se147  1  0.93409627  0.59764602  0.05406933  1
  Se  Se148  1  0.91681174  0.58350425  0.55775883  1
  Se  Se149  1  0.91901449  0.92459538  0.06401256  1
  Se  Se150  1  0.92652175  0.91734437  0.56603091  1
  Se  Se151  1  0.08126857  0.24902926  0.44267724  1
  Se  Se152  1  0.07611014  0.25940422  0.94001636  1
  Se  Se153  1  0.08182160  0.57701764  0.44853386  1
  Se  Se154  1  0.07681774  0.59176003  0.93998134  1
  Se  Se155  1  0.08907090  0.90989049  0.45255347  1
  Se  Se156  1  0.07556272  0.92478114  0.94523459  1
  Se  Se157  1  0.41781629  0.25165455  0.45689698  1
  Se  Se158  1  0.41480534  0.24857509  0.93302930  1
  Se  Se159  1  0.41367655  0.58494846  0.45259476  1
  Se  Se160  1  0.42105725  0.57771373  0.94431682  1
  Se  Se161  1  0.41997547  0.91413644  0.44956502  1
  Se  Se162  1  0.42342206  0.90696100  0.94623309  1
  Se  Se163  1  0.75118728  0.25166784  0.44627209  1
  Se  Se164  1  0.75190871  0.24980024  0.94704691  1
  Se  Se165  1  0.73570877  0.59397464  0.43944195  1
  Se  Se166  1  0.74729052  0.58724876  0.94003522  1
  Se  Se167  1  0.74522560  0.92305066  0.43645574  1
  Se  Se168  1  0.73925772  0.92448545  0.93912437  1
  Se  Se169  1  0.26109083  0.07218689  0.43966780  1
  Se  Se170  1  0.26203973  0.07276373  0.93858942  1
  Se  Se171  1  0.24717175  0.41440605  0.45068671  1
  Se  Se172  1  0.25757329  0.41063522  0.93277737  1
  Se  Se173  1  0.24943361  0.74967229  0.45220800  1
  Se  Se174  1  0.24998386  0.74950187  0.94178742  1
  Se  Se175  1  0.56352161  0.10341309  0.44300858  1
  Se  Se176  1  0.59039007  0.07547005  0.93753198  1
  Se  Se177  1  0.58116724  0.41979573  0.45003531  1
  Se  Se178  1  0.58163619  0.41685022  0.94424568  1
  Se  Se179  1  0.57882727  0.75649267  0.45420031  1
  Se  Se180  1  0.58199126  0.74784878  0.94400522  1
  Se  Se181  1  0.92049099  0.07931663  0.45151245  1
  Se  Se182  1  0.91122428  0.09144553  0.94927756  1
  Se  Se183  1  0.92291997  0.40467377  0.43687656  1
  Se  Se184  1  0.92075544  0.41693676  0.94044507  1
  Se  Se185  1  0.92507263  0.74260477  0.44737592  1
  Se  Se186  1  0.91967183  0.74544679  0.93792495  1
  Se  Se187  1  0.23842649  0.23725308  0.31194260  1
  Se  Se188  1  0.25158487  0.25108885  0.79561240  1
  Se  Se189  1  0.24056642  0.57113083  0.30895489  1
  Se  Se190  1  0.24905657  0.58518294  0.80032472  1
  Se  Se191  1  0.24814742  0.91246843  0.31153026  1
  Se  Se192  1  0.25383598  0.91570163  0.80383359  1
  Se  Se193  1  0.58764426  0.25680385  0.30778282  1
  Se  Se194  1  0.58830418  0.25304004  0.79868569  1
  Se  Se195  1  0.56860183  0.58236413  0.31043762  1
  Se  Se196  1  0.58200296  0.58261917  0.80314109  1
  Se  Se197  1  0.58508925  0.92203673  0.30319184  1
  Se  Se198  1  0.57951785  0.90969431  0.80634996  1
  Se  Se199  1  0.91594216  0.25049913  0.30426279  1
  Se  Se200  1  0.91895518  0.25050753  0.80439219  1
  Se  Se201  1  0.91270165  0.57671097  0.30664516  1
  Se  Se202  1  0.91511700  0.58077867  0.80070733  1
  Se  Se203  1  0.92132951  0.92235543  0.30632856  1
  Se  Se204  1  0.91745008  0.92113403  0.80365069  1
  Se  Se205  1  0.07431668  0.07848879  0.30591432  1
  Se  Se206  1  0.08751790  0.08527806  0.80542935  1
  Se  Se207  1  0.08325423  0.41168083  0.29875530  1
  Se  Se208  1  0.08096142  0.41594884  0.79777929  1
  Se  Se209  1  0.08984360  0.75091657  0.31358823  1
  Se  Se210  1  0.08068936  0.74985271  0.80246710  1
  Se  Se211  1  0.42162584  0.08938741  0.30886671  1
  Se  Se212  1  0.42182636  0.08049792  0.79903006  1
  Se  Se213  1  0.42081353  0.42054959  0.31613465  1
  Se  Se214  1  0.41377933  0.41340116  0.79935009  1
  Se  Se215  1  0.42563454  0.75807870  0.30834283  1
  Se  Se216  1  0.41419730  0.74590557  0.80352825  1
  Se  Se217  1  0.74682553  0.08505067  0.30639066  1
  Se  Se218  1  0.75412139  0.08820583  0.80954738  1
  Se  Se219  1  0.75661789  0.43058033  0.30301846  1
  Se  Se220  1  0.74731833  0.41181858  0.80338516  1
  Se  Se221  1  0.75882349  0.76189187  0.31054047  1
  Se  Se222  1  0.74690115  0.74895982  0.79716205  1
  Se  Se223  1  0.23733524  0.09349715  0.18795623  1
  Se  Se224  1  0.25237139  0.08000823  0.69994590  1
  Se  Se225  1  0.24448520  0.42319223  0.18934238  1
  Se  Se226  1  0.24978593  0.41640572  0.69633606  1
  Se  Se227  1  0.25112117  0.75930917  0.19110264  1
  Se  Se228  1  0.25201759  0.74864065  0.69761362  1
  Se  Se229  1  0.58121671  0.08241385  0.19660577  1
  Se  Se230  1  0.57895959  0.09004301  0.68411944  1
  Se  Se231  1  0.58400331  0.41145123  0.20373269  1
  Se  Se232  1  0.58377849  0.41587431  0.69744457  1
  Se  Se233  1  0.58045286  0.75345317  0.18831475  1
  Se  Se234  1  0.58246747  0.74718292  0.69678842  1
  Se  Se235  1  0.91519320  0.08394061  0.19862348  1
  Se  Se236  1  0.91658947  0.08136912  0.69794935  1
  Se  Se237  1  0.91813507  0.42003617  0.19611662  1
  Se  Se238  1  0.91709372  0.41425161  0.69431269  1
  Se  Se239  1  0.91011972  0.76269876  0.19103856  1
  Se  Se240  1  0.92005330  0.74813766  0.70146119  1
  Se  Se241  1  0.07686482  0.25377573  0.19786824  1
  Se  Se242  1  0.07850532  0.25188794  0.69568848  1
  Se  Se243  1  0.10018840  0.58080087  0.18712956  1
  Se  Se244  1  0.08003302  0.58606554  0.69517324  1
  Se  Se245  1  0.08172090  0.91707090  0.20088969  1
  Se  Se246  1  0.08368571  0.91872226  0.70146582  1
  Se  Se247  1  0.42219177  0.24637048  0.19493090  1
  Se  Se248  1  0.41667565  0.25209770  0.69658859  1
  Se  Se249  1  0.42500595  0.57266521  0.19425680  1
  Se  Se250  1  0.41245740  0.58553560  0.69852653  1
  Se  Se251  1  0.41962501  0.90862150  0.18630337  1
  Se  Se252  1  0.41961833  0.91937014  0.69343700  1
  Se  Se253  1  0.74786348  0.25064270  0.19694173  1
  Se  Se254  1  0.74822786  0.24723893  0.69453875  1
  Se  Se255  1  0.76023934  0.57901800  0.19237667  1
  Se  Se256  1  0.74793409  0.58074181  0.69976850  1
  Se  Se257  1  0.74424838  0.92319682  0.19829910  1
  Se  Se258  1  0.75875833  0.90950115  0.68617886  1
