# generated using pymatgen
data_In86Cu29Se144
_symmetry_space_group_name_H-M   'P 1'
_cell_length_a   17.58315820
_cell_length_b   17.58704885
_cell_length_c   23.45291591
_cell_angle_alpha   90.02967545
_cell_angle_beta   89.99624553
_cell_angle_gamma   90.04141600
_symmetry_Int_Tables_number   1
_chemical_formula_structural   In86Cu29Se144
_chemical_formula_sum   'In86 Cu29 Se144'
_cell_volume   7252.47979293
_cell_formula_units_Z   1
loop_
 _symmetry_equiv_pos_site_id
 _symmetry_equiv_pos_as_xyz
  1  'x, y, z'
loop_
 _atom_site_type_symbol
 _atom_site_label
 _atom_site_symmetry_multiplicity
 _atom_site_fract_x
 _atom_site_fract_y
 _atom_site_fract_z
 _atom_site_occupancy
  In  In0  1  0.00689083  0.19873181  0.12311335  1
  In  In1  1  0.01532707  0.17613019  0.61867181  1
  In  In2  1  0.02420331  0.48360887  0.14255478  1
  In  In3  1  0.01435583  0.48205548  0.62933511  1
  In  In4  1  0.01064695  0.81579129  0.13668161  1
  In  In5  1  0.00022357  0.83275037  0.61434233  1
  In  In6  1  0.33054104  0.14515022  0.12396863  1
  In  In7  1  0.32299717  0.17533736  0.63531221  1
  In  In8  1  0.31243981  0.50475629  0.12269893  1
  In  In9  1  0.32856936  0.49572222  0.62515645  1
  In  In10  1  0.34202332  0.83884783  0.11311756  1
  In  In11  1  0.32655432  0.84158926  0.63155233  1
  In  In12  1  0.66926030  0.16545309  0.11951070  1
  In  In13  1  0.66154938  0.17260335  0.63466000  1
  In  In14  1  0.65723218  0.49175770  0.12724160  1
  In  In15  1  0.65901451  0.50581216  0.63340417  1
  In  In16  1  0.66518896  0.84681119  0.12253191  1
  In  In17  1  0.66767124  0.83103135  0.62878539  1
  In  In18  1  0.17449341  -0.00986261  0.37772855  1
  In  In19  1  0.16944997  -0.01429329  0.87702922  1
  In  In20  1  0.15208135  0.33967546  0.38950255  1
  In  In21  1  0.17129999  0.34052282  0.86603336  1
  In  In22  1  0.15948776  0.66899564  0.37740449  1
  In  In23  1  0.18540308  0.65349415  0.89198449  1
  In  In24  1  0.50284272  -0.00178259  0.36270952  1
  In  In25  1  0.49923045  -0.00042321  0.87279006  1
  In  In26  1  0.50886036  0.33367505  0.37828320  1
  In  In27  1  0.49455385  0.32866444  0.87234127  1
  In  In28  1  0.48492122  0.66450664  0.37650256  1
  In  In29  1  0.49773327  0.67172815  0.86956679  1
  In  In30  1  0.81934772  0.00330806  0.37340248  1
  In  In31  1  0.83591488  0.01382527  0.87723683  1
  In  In32  1  0.83242076  0.33626217  0.36861056  1
  In  In33  1  0.82759036  0.33082159  0.86903938  1
  In  In34  1  0.85333140  0.66315122  0.37609502  1
  In  In35  1  0.82633341  0.67491478  0.87160366  1
  In  In36  1  0.00977323  0.18498230  0.37238228  1
  In  In37  1  -0.01207331  0.17169090  0.88195151  1
  In  In38  1  0.01054691  0.49839528  0.36795040  1
  In  In39  1  0.02034375  0.49570082  0.87462617  1
  In  In40  1  0.01300291  0.82019260  0.38060211  1
  In  In41  1  0.00915695  0.84199660  0.88100147  1
  In  In42  1  0.33153153  0.14975510  0.37199972  1
  In  In43  1  0.34519978  0.17732056  0.87076299  1
  In  In44  1  0.32667493  0.50390005  0.38569118  1
  In  In45  1  0.32159997  0.49420447  0.86552887  1
  In  In46  1  0.31395366  0.83207843  0.36991050  1
  In  In47  1  0.32967799  0.83337955  0.87004602  1
  In  In48  1  0.67172522  0.16857037  0.36583030  1
  In  In49  1  0.66754530  0.16507199  0.87563133  1
  In  In50  1  0.67007306  0.48934506  0.37714948  1
  In  In51  1  0.66055391  0.49970069  0.86453538  1
  In  In52  1  0.66171681  0.84722699  0.37498513  1
  In  In53  1  0.65147371  0.82446696  0.86671115  1
  In  In54  1  0.18669391  0.00627497  0.13591845  1
  In  In55  1  0.17270800  0.00059366  0.61962760  1
  In  In56  1  0.15358165  0.33268847  0.13101177  1
  In  In57  1  0.17073520  0.33492122  0.62381325  1
  In  In58  1  0.16850287  0.66300358  0.11644148  1
  In  In59  1  0.17069089  0.66785628  0.62355384  1
  In  In60  1  0.50238140  0.00307549  0.11800644  1
  In  In61  1  0.49783524  0.00559468  0.63492451  1
  In  In62  1  0.51567252  0.33493492  0.12181511  1
  In  In63  1  0.48515563  0.34662162  0.63475091  1
  In  In64  1  0.47293841  0.67103546  0.11486905  1
  In  In65  1  0.50395725  0.65550404  0.63160562  1
  In  In66  1  0.81967397  0.00052835  0.12576028  1
  In  In67  1  0.83652039  -0.00887364  0.62359724  1
  In  In68  1  0.84818909  0.31989090  0.12713947  1
  In  In69  1  0.83553103  0.33052638  0.63431625  1
  In  In70  1  0.84272796  0.67707954  0.12604072  1
  In  In71  1  0.82217677  0.66773295  0.62286500  1
  In  In72  1  0.32485217  0.66751623  0.25013320  1
  In  In73  1  0.83923891  0.16611121  0.49730971  1
  In  In74  1  0.84016607  0.49865813  -0.00057828  1
  In  In75  1  0.32980144  0.32526149  0.24704784  1
  In  In76  1  -0.00181172  0.00565245  0.75154560  1
  In  In77  1  0.84111549  0.50344457  0.50054661  1
  In  In78  1  0.49378331  0.49764699  -0.00689749  1
  In  In79  1  0.00270778  0.66157781  0.74345722  1
  In  In80  1  -0.00342826  0.00281212  0.25153662  1
  In  In81  1  0.16835176  0.16693625  0.00433979  1
  In  In82  1  0.83517289  0.83894497  -0.00015271  1
  In  In83  1  0.66843619  0.66766744  0.24484942  1
  In  In84  1  0.49492925  0.16704728  0.50177834  1
  In  In85  1  0.49510755  0.82911604  0.49964337  1
  Cu  Cu86  1  0.83068765  0.16871574  0.75253661  1
  Cu  Cu87  1  0.34007428  -0.00095570  -0.00362933  1
  Cu  Cu88  1  0.32704257  -0.00503887  0.49949839  1
  Cu  Cu89  1  -0.00017288  0.00285246  0.00968061  1
  Cu  Cu90  1  0.49901383  0.49324512  0.25179393  1
  Cu  Cu91  1  0.82148876  0.83620624  0.74901928  1
  Cu  Cu92  1  0.16603086  0.82892219  0.75154465  1
  Cu  Cu93  1  0.83570916  0.49540790  0.25363215  1
  Cu  Cu94  1  0.49991009  0.84244152  0.24001386  1
  Cu  Cu95  1  0.49594011  0.83532690  0.74954483  1
  Cu  Cu96  1  0.82854654  0.16580560  0.24575697  1
  Cu  Cu97  1  0.16474560  0.16854236  0.74923279  1
  Cu  Cu98  1  0.00926274  0.66338079  0.00522827  1
  Cu  Cu99  1  0.32787278  0.33176653  0.50839795  1
  Cu  Cu100  1  0.83535034  0.83177685  0.25086032  1
  Cu  Cu101  1  0.83319297  0.50289064  0.74839048  1
  Cu  Cu102  1  0.49451239  0.50085207  0.75059255  1
  Cu  Cu103  1  0.00365285  -0.00381433  0.49667572  1
  Cu  Cu104  1  0.65676946  0.66891195  -0.00572753  1
  Cu  Cu105  1  0.00631565  0.66571323  0.49995955  1
  Cu  Cu106  1  0.66171777  0.00080244  -0.00331645  1
  Cu  Cu107  1  0.50765494  0.16449071  0.24477197  1
  Cu  Cu108  1  0.67538825  0.32225650  -0.00097609  1
  Cu  Cu109  1  0.50645075  0.16295193  0.75630363  1
  Cu  Cu110  1  0.66213023  0.34243241  0.50347572  1
  Cu  Cu111  1  0.33257345  0.33223816  -0.00525820  1
  Cu  Cu112  1  0.33178959  0.65955133  0.50314963  1
  Cu  Cu113  1  0.66783789  -0.00016386  0.49932733  1
  Cu  Cu114  1  0.66899642  0.66939693  0.50889599  1
  Se  Se115  1  0.08013156  0.08121884  0.07028364  1
  Se  Se116  1  0.08251450  0.07880240  0.55355527  1
  Se  Se117  1  0.08231610  0.41294954  0.05690441  1
  Se  Se118  1  0.08779088  0.41263228  0.55162885  1
  Se  Se119  1  0.08630537  0.75707697  0.05328137  1
  Se  Se120  1  0.08963742  0.75014442  0.55272565  1
  Se  Se121  1  0.42003413  0.08697069  0.04809182  1
  Se  Se122  1  0.40575618  0.07606812  0.56096093  1
  Se  Se123  1  0.40842047  0.41210056  0.06157146  1
  Se  Se124  1  0.41676980  0.41761557  0.55323310  1
  Se  Se125  1  0.40940824  0.75170936  0.03918012  1
  Se  Se126  1  0.40960871  0.74213470  0.56376669  1
  Se  Se127  1  0.75026173  0.08018229  0.04901175  1
  Se  Se128  1  0.74224146  0.08445927  0.55992218  1
  Se  Se129  1  0.74631153  0.41065159  0.05940683  1
  Se  Se130  1  0.74884657  0.41597503  0.56253126  1
  Se  Se131  1  0.74179058  0.74335366  0.05611225  1
  Se  Se132  1  0.75171026  0.75942715  0.55348434  1
  Se  Se133  1  0.25901880  0.25730028  0.06462783  1
  Se  Se134  1  0.24698151  0.24081790  0.55487795  1
  Se  Se135  1  0.26144282  0.59476339  0.04715511  1
  Se  Se136  1  0.24592704  0.57794113  0.55499945  1
  Se  Se137  1  0.25054801  0.92877466  0.05485104  1
  Se  Se138  1  0.24702112  0.90792217  0.55211165  1
  Se  Se139  1  0.58315428  0.24642336  0.04991644  1
  Se  Se140  1  0.58331067  0.25926975  0.56163682  1
  Se  Se141  1  0.58358188  0.58795929  0.05855447  1
  Se  Se142  1  0.58505435  0.58240725  0.55588300  1
  Se  Se143  1  0.58066385  0.91384037  0.04834179  1
  Se  Se144  1  0.58155853  0.92517884  0.55826233  1
  Se  Se145  1  0.91588325  0.24852914  0.04616735  1
  Se  Se146  1  0.92165010  0.26287067  0.55563144  1
  Se  Se147  1  0.92632801  0.58546182  0.06387669  1
  Se  Se148  1  0.92900467  0.58948534  0.56620105  1
  Se  Se149  1  0.92470793  0.91624509  0.06907738  1
  Se  Se150  1  0.91497285  0.91712219  0.54872386  1
  Se  Se151  1  0.08119403  0.24445171  0.45602361  1
  Se  Se152  1  0.08532542  0.25600509  0.94031468  1
  Se  Se153  1  0.08254816  0.57881533  0.44453397  1
  Se  Se154  1  0.08795377  0.57631172  0.95231613  1
  Se  Se155  1  0.08920952  0.91129742  0.44707084  1
  Se  Se156  1  0.08319039  0.92290044  0.95446927  1
  Se  Se157  1  0.40590041  0.25616334  0.44079920  1
  Se  Se158  1  0.42152133  0.24944428  0.94929441  1
  Se  Se159  1  0.42009786  0.57981406  0.45154059  1
  Se  Se160  1  0.40629032  0.58667241  0.93488454  1
  Se  Se161  1  0.41319621  0.92291205  0.43741948  1
  Se  Se162  1  0.41640431  0.91398194  0.93961822  1
  Se  Se163  1  0.74041412  0.25888933  0.44370128  1
  Se  Se164  1  0.75852235  0.24408621  0.94300014  1
  Se  Se165  1  0.74590636  0.59266268  0.44153279  1
  Se  Se166  1  0.74099031  0.58697205  0.94092696  1
  Se  Se167  1  0.75049025  0.91591745  0.44747333  1
  Se  Se168  1  0.74222876  0.91890562  0.93572806  1
  Se  Se169  1  0.24764467  0.08255270  0.44766697  1
  Se  Se170  1  0.25666762  0.08154446  0.93846834  1
  Se  Se171  1  0.24770740  0.41650572  0.45220655  1
  Se  Se172  1  0.24970075  0.41486399  0.94301082  1
  Se  Se173  1  0.25384375  0.74322923  0.44507320  1
  Se  Se174  1  0.22485339  0.77907159  0.93775038  1
  Se  Se175  1  0.58840474  0.08032007  0.43883977  1
  Se  Se176  1  0.58000477  0.08467746  0.94271587  1
  Se  Se177  1  0.57913502  0.42399724  0.44956236  1
  Se  Se178  1  0.59509476  0.40874390  0.94237865  1
  Se  Se179  1  0.59001001  0.74104141  0.43981244  1
  Se  Se180  1  0.57435357  0.75311963  0.94430257  1
  Se  Se181  1  0.92558368  0.07605862  0.43464842  1
  Se  Se182  1  0.91779470  0.08193531  0.95342341  1
  Se  Se183  1  0.92255178  0.41042656  0.43953081  1
  Se  Se184  1  0.92419204  0.41036787  0.93658909  1
  Se  Se185  1  0.91924128  0.74932227  0.45029166  1
  Se  Se186  1  0.92578555  0.74031383  0.94391787  1
  Se  Se187  1  0.24673517  0.25140062  0.32023542  1
  Se  Se188  1  0.25224649  0.24867552  0.80294524  1
  Se  Se189  1  0.24054129  0.57279187  0.30908937  1
  Se  Se190  1  0.24727705  0.59242615  0.80469556  1
  Se  Se191  1  0.26410740  0.93208690  0.30086646  1
  Se  Se192  1  0.24857193  0.91948573  0.79875438  1
  Se  Se193  1  0.58074516  0.25074861  0.30395714  1
  Se  Se194  1  0.58694996  0.25176244  0.80727341  1
  Se  Se195  1  0.57696520  0.58078809  0.30867361  1
  Se  Se196  1  0.57956448  0.58734628  0.80059008  1
  Se  Se197  1  0.58887545  0.91754544  0.29509253  1
  Se  Se198  1  0.58216277  0.91945024  0.80039138  1
  Se  Se199  1  0.91025060  0.24528925  0.30390949  1
  Se  Se200  1  0.91892975  0.24942096  0.80356550  1
  Se  Se201  1  0.92134511  0.58030382  0.30202328  1
  Se  Se202  1  0.91236827  0.57974338  0.81221685  1
  Se  Se203  1  0.91238215  0.91003353  0.31479573  1
  Se  Se204  1  0.90820434  0.90901115  0.80993760  1
  Se  Se205  1  0.08914482  0.08559424  0.31288391  1
  Se  Se206  1  0.08863029  0.09085340  0.81517343  1
  Se  Se207  1  0.07678986  0.39727736  0.30524893  1
  Se  Se208  1  0.08164391  0.41415414  0.79721488  1
  Se  Se209  1  0.09514677  0.75706196  0.30348449  1
  Se  Se210  1  0.08221421  0.75245691  0.81020970  1
  Se  Se211  1  0.42095807  0.08489583  0.29826252  1
  Se  Se212  1  0.41478025  0.08208794  0.80366148  1
  Se  Se213  1  0.41519741  0.41946411  0.31244246  1
  Se  Se214  1  0.41521568  0.41360215  0.80411093  1
  Se  Se215  1  0.42379169  0.76197384  0.30375460  1
  Se  Se216  1  0.41217482  0.75028294  0.80049968  1
  Se  Se217  1  0.74552144  0.07974885  0.29655011  1
  Se  Se218  1  0.75015380  0.08167240  0.80400017  1
  Se  Se219  1  0.74464640  0.41484932  0.30077990  1
  Se  Se220  1  0.74942402  0.41831930  0.80101611  1
  Se  Se221  1  0.75358389  0.75204529  0.31284786  1
  Se  Se222  1  0.74249765  0.74678271  0.79966725  1
  Se  Se223  1  0.24483522  0.10328969  0.20619046  1
  Se  Se224  1  0.24388111  0.07961505  0.69704119  1
  Se  Se225  1  0.23843084  0.42565874  0.19925235  1
  Se  Se226  1  0.27031625  0.39436621  0.69266886  1
  Se  Se227  1  0.24989103  0.75958694  0.18414250  1
  Se  Se228  1  0.24924783  0.74851387  0.69607896  1
  Se  Se229  1  0.58820671  0.08075736  0.18907057  1
  Se  Se230  1  0.58905123  0.08014662  0.70143235  1
  Se  Se231  1  0.58535758  0.41083724  0.20198559  1
  Se  Se232  1  0.58258465  0.41630645  0.70045736  1
  Se  Se233  1  0.57128581  0.75024515  0.18304496  1
  Se  Se234  1  0.57952892  0.75207685  0.69449708  1
  Se  Se235  1  0.91323298  0.09083112  0.18507071  1
  Se  Se236  1  0.91226096  0.09498833  0.68693716  1
  Se  Se237  1  0.91692349  0.41222512  0.19731391  1
  Se  Se238  1  0.91802513  0.41872553  0.69838602  1
  Se  Se239  1  0.91944677  0.74363782  0.20563467  1
  Se  Se240  1  0.90945741  0.76008859  0.69090169  1
  Se  Se241  1  0.08878983  0.24604070  0.20598638  1
  Se  Se242  1  0.08450022  0.25364940  0.69584982  1
  Se  Se243  1  0.08433289  0.59780711  0.19275273  1
  Se  Se244  1  0.10045970  0.57010691  0.69514830  1
  Se  Se245  1  0.09248252  0.91470637  0.19565750  1
  Se  Se246  1  0.08325504  0.91030780  0.69202455  1
  Se  Se247  1  0.42599436  0.24344949  0.18483110  1
  Se  Se248  1  0.42388744  0.24237096  0.69812300  1
  Se  Se249  1  0.41873415  0.57262209  0.19181323  1
  Se  Se250  1  0.40996967  0.58133688  0.69573452  1
  Se  Se251  1  0.41534216  0.92270635  0.18690663  1
  Se  Se252  1  0.41261241  0.92126988  0.69903135  1
  Se  Se253  1  0.74780854  0.25092229  0.19082247  1
  Se  Se254  1  0.74649530  0.25445245  0.70138351  1
  Se  Se255  1  0.76003345  0.57379444  0.18753905  1
  Se  Se256  1  0.74947692  0.58801236  0.69743798  1
  Se  Se257  1  0.75006900  0.91243390  0.19845385  1
  Se  Se258  1  0.74572828  0.92387774  0.69440128  1
