# generated using pymatgen
data_In86Cu29Se144
_symmetry_space_group_name_H-M   'P 1'
_cell_length_a   17.57973379
_cell_length_b   17.57910370
_cell_length_c   23.43790982
_cell_angle_alpha   90.01816903
_cell_angle_beta   89.99580049
_cell_angle_gamma   90.00408215
_symmetry_Int_Tables_number   1
_chemical_formula_structural   In86Cu29Se144
_chemical_formula_sum   'In86 Cu29 Se144'
_cell_volume   7243.15663819
_cell_formula_units_Z   1
loop_
 _symmetry_equiv_pos_site_id
 _symmetry_equiv_pos_as_xyz
  1  'x, y, z'
loop_
 _atom_site_type_symbol
 _atom_site_label
 _atom_site_symmetry_multiplicity
 _atom_site_fract_x
 _atom_site_fract_y
 _atom_site_fract_z
 _atom_site_occupancy
  In  In0  1  -0.01448879  0.16053434  0.12810800  1
  In  In1  1  -0.00158323  0.16502224  0.61727199  1
  In  In2  1  0.00974584  0.51426713  0.11916738  1
  In  In3  1  -0.01193565  0.50376560  0.63283629  1
  In  In4  1  -0.01089562  0.83978785  0.12765167  1
  In  In5  1  -0.03081537  0.84386673  0.65018111  1
  In  In6  1  0.34484892  0.16044097  0.12546526  1
  In  In7  1  0.32217854  0.16395153  0.62386038  1
  In  In8  1  0.32487462  0.49884663  0.11906464  1
  In  In9  1  0.33907205  0.50322092  0.62544745  1
  In  In10  1  0.34239720  0.81897894  0.11875901  1
  In  In11  1  0.33882637  0.83015942  0.63698505  1
  In  In12  1  0.66406230  0.17872268  0.12902707  1
  In  In13  1  0.67901058  0.15044616  0.62251081  1
  In  In14  1  0.67008986  0.50047770  0.12387776  1
  In  In15  1  0.66847681  0.50430007  0.61729470  1
  In  In16  1  0.65938260  0.82205015  0.11946027  1
  In  In17  1  0.68799296  0.84140111  0.62297687  1
  In  In18  1  0.15901898  0.02001388  0.38767151  1
  In  In19  1  0.15876027  -0.01306609  0.86511357  1
  In  In20  1  0.15929300  0.31800338  0.37638930  1
  In  In21  1  0.16339547  0.35034930  0.87353352  1
  In  In22  1  0.16249156  0.68015914  0.37414510  1
  In  In23  1  0.16353264  0.65703246  0.86952425  1
  In  In24  1  0.50650999  0.00385090  0.37753523  1
  In  In25  1  0.50224426  -0.00059089  0.87430282  1
  In  In26  1  0.51696956  0.34325896  0.36185189  1
  In  In27  1  0.49306560  0.33916057  0.88639426  1
  In  In28  1  0.49817152  0.64202600  0.37373085  1
  In  In29  1  0.49396039  0.67238459  0.88565612  1
  In  In30  1  0.85027289  -0.01852681  0.40345140  1
  In  In31  1  0.81958362  -0.01716220  0.85188345  1
  In  In32  1  0.82970413  0.34740259  0.38483501  1
  In  In33  1  0.84450374  0.33831056  0.86980366  1
  In  In34  1  0.83243183  0.66538204  0.37272031  1
  In  In35  1  0.83689629  0.66345942  0.87601302  1
  In  In36  1  0.00077671  0.16131121  0.39698469  1
  In  In37  1  -0.00807910  0.15923892  0.86499068  1
  In  In38  1  -0.01757273  0.50140362  0.37821241  1
  In  In39  1  -0.00640621  0.51080008  0.86963003  1
  In  In40  1  -0.00769970  0.82617802  0.37324802  1
  In  In41  1  -0.01376482  0.81909503  0.86187675  1
  In  In42  1  0.31941924  0.17252791  0.37628565  1
  In  In43  1  0.34473485  0.16801222  0.87409875  1
  In  In44  1  0.35729203  0.50326759  0.37423382  1
  In  In45  1  0.32506026  0.50925031  0.88867334  1
  In  In46  1  0.32901737  0.83384331  0.37638515  1
  In  In47  1  0.34094710  0.83558809  0.86963716  1
  In  In48  1  0.66651716  0.17192614  0.37422024  1
  In  In49  1  0.67089292  0.15494604  0.87368642  1
  In  In50  1  0.66990684  0.49891805  0.37089053  1
  In  In51  1  0.66742354  0.49950000  0.88137617  1
  In  In52  1  0.68538418  0.83336643  0.37589180  1
  In  In53  1  0.66255826  0.83682147  0.87937376  1
  In  In54  1  0.15240003  -0.00848733  0.12290772  1
  In  In55  1  0.15249717  0.01163281  0.63011122  1
  In  In56  1  0.16407727  0.35157903  0.12714496  1
  In  In57  1  0.16008176  0.31440180  0.61644363  1
  In  In58  1  0.16837782  0.65655197  0.12371759  1
  In  In59  1  0.16049346  0.67088301  0.63343050  1
  In  In60  1  0.49858118  -0.00476156  0.11289579  1
  In  In61  1  0.50917548  -0.00748423  0.63789524  1
  In  In62  1  0.49971166  0.33333165  0.12583785  1
  In  In63  1  0.49199821  0.34309176  0.62256399  1
  In  In64  1  0.50616487  0.67448912  0.11365958  1
  In  In65  1  0.49943280  0.65786300  0.62733679  1
  In  In66  1  0.84331245  0.00268535  0.12861013  1
  In  In67  1  0.83696445  -0.00333762  0.62163672  1
  In  In68  1  0.82049536  0.33290576  0.12939516  1
  In  In69  1  0.85091356  0.34499549  0.60229713  1
  In  In70  1  0.83435336  0.66790623  0.12421700  1
  In  In71  1  0.83930135  0.67025906  0.62442864  1
  In  In72  1  0.67155588  0.67092451  0.74469663  1
  In  In73  1  0.32736543  0.32970383  0.74677301  1
  In  In74  1  -0.00400053  0.33516963  0.25555059  1
  In  In75  1  0.16978644  0.82774902  -0.00540852  1
  In  In76  1  0.50402975  0.17107321  0.49731027  1
  In  In77  1  0.51087999  0.82495685  0.50989746  1
  In  In78  1  0.32381709  0.00180415  0.25195901  1
  In  In79  1  0.16575454  0.49668221  0.50418069  1
  In  In80  1  0.16917301  0.17235448  -0.01047873  1
  In  In81  1  0.33137178  0.66353894  0.24219885  1
  In  In82  1  0.67476010  0.33023686  0.75292037  1
  In  In83  1  0.82826333  0.16911241  0.00296738  1
  In  In84  1  0.15961388  0.83581024  0.50671092  1
  In  In85  1  0.67134972  0.00204766  0.25461170  1
  Cu  Cu86  1  -0.00310295  0.66783167  -0.00630892  1
  Cu  Cu87  1  0.83731882  0.16069508  0.25907017  1
  Cu  Cu88  1  0.50885435  0.49377419  0.24534873  1
  Cu  Cu89  1  0.33352604  0.33291675  0.00322209  1
  Cu  Cu90  1  0.33922523  -0.00443270  -0.00576062  1
  Cu  Cu91  1  0.17515306  0.83004042  0.74951217  1
  Cu  Cu92  1  0.50400558  0.83373689  0.75755163  1
  Cu  Cu93  1  0.49895140  0.17336408  0.24780842  1
  Cu  Cu94  1  -0.00534871  0.66931286  0.50320838  1
  Cu  Cu95  1  0.14990262  0.83881252  0.25070858  1
  Cu  Cu96  1  0.83119265  0.50324216  0.24962008  1
  Cu  Cu97  1  0.16226125  0.49644142  0.75116345  1
  Cu  Cu98  1  0.83943395  0.16790435  0.74021664  1
  Cu  Cu99  1  -0.00117348  0.34907723  -0.00349521  1
  Cu  Cu100  1  0.33950955  0.34320807  0.49749757  1
  Cu  Cu101  1  0.16877411  0.50192580  0.24745183  1
  Cu  Cu102  1  0.83602424  0.83114706  0.25319541  1
  Cu  Cu103  1  0.66734155  0.66016261  0.49628761  1
  Cu  Cu104  1  0.67503879  0.66561084  0.00022957  1
  Cu  Cu105  1  0.33710337  -0.00332716  0.50630134  1
  Cu  Cu106  1  0.15743182  0.16821869  0.25741938  1
  Cu  Cu107  1  0.66392756  0.33529095  0.00543311  1
  Cu  Cu108  1  0.16281632  0.16166108  0.74453518  1
  Cu  Cu109  1  0.65790438  0.34160855  0.49601346  1
  Cu  Cu110  1  0.66543900  -0.00233136  -0.00617836  1
  Cu  Cu111  1  -0.00988793  -0.00056846  -0.00313338  1
  Cu  Cu112  1  0.50130341  0.82589188  0.24390357  1
  Cu  Cu113  1  0.50530836  0.16020336  0.75297960  1
  Cu  Cu114  1  0.49798780  0.50330650  0.75336064  1
  Se  Se115  1  0.07384300  0.08321746  0.05151204  1
  Se  Se116  1  0.09010927  0.08766369  0.55018328  1
  Se  Se117  1  0.08719851  0.42458356  0.05111598  1
  Se  Se118  1  0.07232245  0.41107289  0.56116895  1
  Se  Se119  1  0.07549917  0.74702100  0.05872823  1
  Se  Se120  1  0.06778266  0.74986301  0.56678131  1
  Se  Se121  1  0.41678596  0.08383784  0.04821280  1
  Se  Se122  1  0.42205808  0.07721573  0.56315992  1
  Se  Se123  1  0.41645585  0.41596818  0.05697623  1
  Se  Se124  1  0.41987684  0.42741308  0.55042216  1
  Se  Se125  1  0.41800242  0.74781638  0.04392095  1
  Se  Se126  1  0.40744323  0.74217200  0.55971260  1
  Se  Se127  1  0.73849064  0.07564535  0.06281244  1
  Se  Se128  1  0.76409506  0.08545002  0.54803949  1
  Se  Se129  1  0.75403072  0.41612638  0.05383107  1
  Se  Se130  1  0.74743995  0.42159566  0.54704239  1
  Se  Se131  1  0.75540563  0.75313918  0.05310637  1
  Se  Se132  1  0.74717459  0.74163831  0.55470469  1
  Se  Se133  1  0.25055007  0.25305136  0.06267051  1
  Se  Se134  1  0.26100281  0.25376352  0.54902460  1
  Se  Se135  1  0.26032515  0.59748119  0.05273014  1
  Se  Se136  1  0.25057067  0.59285552  0.56104360  1
  Se  Se137  1  0.25676752  0.92289237  0.05830142  1
  Se  Se138  1  0.25633400  0.91990764  0.56666894  1
  Se  Se139  1  0.58086930  0.24777362  0.05457711  1
  Se  Se140  1  0.59048443  0.25848456  0.56328743  1
  Se  Se141  1  0.58956811  0.58261039  0.05291102  1
  Se  Se142  1  0.57928437  0.58413014  0.55187998  1
  Se  Se143  1  0.58545476  0.91248952  0.05005698  1
  Se  Se144  1  0.59522995  0.92857361  0.55833574  1
  Se  Se145  1  0.92459625  0.26293518  0.05784401  1
  Se  Se146  1  0.90234489  0.22974518  0.54549432  1
  Se  Se147  1  0.91629341  0.58563164  0.05251073  1
  Se  Se148  1  0.91467263  0.58076234  0.55500969  1
  Se  Se149  1  0.90996373  0.91743040  0.05321565  1
  Se  Se150  1  0.91761475  0.90309828  0.55887445  1
  Se  Se151  1  0.09254696  0.24577205  0.45606840  1
  Se  Se152  1  0.06836145  0.25821572  0.93669618  1
  Se  Se153  1  0.07816977  0.59258675  0.44289177  1
  Se  Se154  1  0.08159211  0.58281222  0.94344465  1
  Se  Se155  1  0.07247373  0.92228589  0.44346309  1
  Se  Se156  1  0.07180082  0.91663236  0.94095870  1
  Se  Se157  1  0.41732764  0.26112285  0.43479623  1
  Se  Se158  1  0.41471681  0.24691163  0.95090857  1
  Se  Se159  1  0.40640485  0.59493875  0.45097552  1
  Se  Se160  1  0.43950626  0.56055623  0.94406282  1
  Se  Se161  1  0.41645649  0.91928065  0.44497273  1
  Se  Se162  1  0.42286652  0.91168753  0.94312761  1
  Se  Se163  1  0.74119971  0.25766321  0.44445654  1
  Se  Se164  1  0.74335501  0.26022397  0.93856898  1
  Se  Se165  1  0.75238324  0.57931330  0.44175107  1
  Se  Se166  1  0.75560377  0.58164492  0.94580007  1
  Se  Se167  1  0.74607222  0.90802528  0.45698455  1
  Se  Se168  1  0.75551164  0.92203738  0.94079409  1
  Se  Se169  1  0.25896882  0.08440723  0.45286939  1
  Se  Se170  1  0.25314767  0.07050117  0.93567037  1
  Se  Se171  1  0.25442820  0.41527317  0.43475182  1
  Se  Se172  1  0.24662365  0.41382415  0.95081719  1
  Se  Se173  1  0.25559198  0.74573082  0.44823355  1
  Se  Se174  1  0.25911694  0.73999424  0.93575810  1
  Se  Se175  1  0.59811475  0.07444160  0.44716376  1
  Se  Se176  1  0.58272478  0.08550745  0.94505002  1
  Se  Se177  1  0.57711598  0.42520443  0.44165883  1
  Se  Se178  1  0.58312758  0.41918519  0.94998226  1
  Se  Se179  1  0.58754965  0.74101689  0.43560133  1
  Se  Se180  1  0.58854451  0.74917785  0.94864072  1
  Se  Se181  1  0.89360001  0.10185369  0.46030050  1
  Se  Se182  1  0.90861874  0.07817746  0.93746213  1
  Se  Se183  1  0.92938965  0.40888278  0.45179828  1
  Se  Se184  1  0.91300335  0.42654176  0.94185606  1
  Se  Se185  1  0.91161807  0.74858408  0.44540092  1
  Se  Se186  1  0.91343569  0.75488295  0.94499223  1
  Se  Se187  1  0.24773929  0.25332422  0.30068961  1
  Se  Se188  1  0.23796988  0.24169684  0.81084257  1
  Se  Se189  1  0.24644304  0.57985835  0.31262952  1
  Se  Se190  1  0.25247391  0.57291386  0.80450970  1
  Se  Se191  1  0.23151135  0.91465625  0.31369274  1
  Se  Se192  1  0.25650337  0.91693069  0.80138921  1
  Se  Se193  1  0.59192770  0.24860368  0.29768700  1
  Se  Se194  1  0.57494152  0.24893861  0.81316424  1
  Se  Se195  1  0.58713411  0.58123262  0.29928835  1
  Se  Se196  1  0.58284333  0.58330802  0.80918625  1
  Se  Se197  1  0.57590829  0.90627584  0.30845945  1
  Se  Se198  1  0.58909310  0.92002264  0.80512872  1
  Se  Se199  1  0.91358654  0.24495070  0.31929877  1
  Se  Se200  1  0.91640931  0.25089647  0.79903582  1
  Se  Se201  1  0.91741254  0.58485066  0.30165505  1
  Se  Se202  1  0.92640580  0.60527774  0.79853305  1
  Se  Se203  1  0.90897189  0.91944753  0.31216266  1
  Se  Se204  1  0.93844653  0.93234401  0.80155469  1
  Se  Se205  1  0.07471609  0.09043396  0.31420102  1
  Se  Se206  1  0.08132273  0.07902108  0.80063813  1
  Se  Se207  1  0.08910950  0.42635502  0.31301444  1
  Se  Se208  1  0.07397272  0.41783007  0.80304121  1
  Se  Se209  1  0.07504675  0.74659836  0.30131005  1
  Se  Se210  1  0.08977858  0.74906151  0.80314610  1
  Se  Se211  1  0.42126650  0.09133807  0.30973779  1
  Se  Se212  1  0.41653013  0.08068328  0.80395588  1
  Se  Se213  1  0.41882518  0.41615178  0.29798118  1
  Se  Se214  1  0.41560183  0.41880993  0.80850833  1
  Se  Se215  1  0.41864632  0.75265651  0.30777644  1
  Se  Se216  1  0.42195460  0.74396835  0.80485379  1
  Se  Se217  1  0.76325226  0.07738739  0.32139091  1
  Se  Se218  1  0.75114644  0.09032857  0.79523061  1
  Se  Se219  1  0.75427241  0.41409951  0.30309893  1
  Se  Se220  1  0.75924536  0.43149174  0.80550454  1
  Se  Se221  1  0.74888914  0.74660990  0.30105234  1
  Se  Se222  1  0.75497017  0.75875204  0.80942740  1
  Se  Se223  1  0.23354279  0.09069917  0.18946419  1
  Se  Se224  1  0.25260479  0.07923438  0.69727363  1
  Se  Se225  1  0.25460413  0.41918208  0.19805222  1
  Se  Se226  1  0.23801387  0.41827589  0.68501217  1
  Se  Se227  1  0.23835493  0.76486900  0.19132300  1
  Se  Se228  1  0.25667164  0.74091507  0.70052272  1
  Se  Se229  1  0.57300424  0.08242475  0.19114328  1
  Se  Se230  1  0.59268105  0.08438562  0.69815142  1
  Se  Se231  1  0.59210190  0.41009529  0.19218432  1
  Se  Se232  1  0.57910389  0.42264057  0.69446625  1
  Se  Se233  1  0.58460641  0.74190523  0.19415287  1
  Se  Se234  1  0.57942553  0.76240606  0.68631767  1
  Se  Se235  1  0.91994397  0.07853680  0.20503487  1
  Se  Se236  1  0.92196930  0.08121166  0.68991238  1
  Se  Se237  1  0.91475659  0.42431912  0.18873139  1
  Se  Se238  1  0.91267710  0.40316541  0.69143199  1
  Se  Se239  1  0.91721830  0.74885419  0.19632064  1
  Se  Se240  1  0.92069646  0.72681908  0.70749660  1
  Se  Se241  1  0.08399614  0.24636925  0.18897124  1
  Se  Se242  1  0.07979902  0.24551483  0.69237555  1
  Se  Se243  1  0.08413581  0.58712041  0.19860904  1
  Se  Se244  1  0.08082627  0.58078396  0.69764987  1
  Se  Se245  1  0.06987833  0.92536107  0.19841479  1
  Se  Se246  1  0.08951391  0.90813647  0.69407541  1
  Se  Se247  1  0.41198041  0.25188689  0.19521172  1
  Se  Se248  1  0.42619852  0.24006483  0.69088616  1
  Se  Se249  1  0.42713039  0.57667884  0.18627508  1
  Se  Se250  1  0.41386811  0.58469283  0.69987167  1
  Se  Se251  1  0.41850799  0.91229932  0.19187891  1
  Se  Se252  1  0.41859163  0.91729100  0.70384867  1
  Se  Se253  1  0.75620999  0.24140147  0.20202262  1
  Se  Se254  1  0.75922002  0.25132170  0.68233729  1
  Se  Se255  1  0.75011638  0.58571348  0.19348875  1
  Se  Se256  1  0.75747401  0.57186655  0.69128471  1
  Se  Se257  1  0.75346185  0.90930361  0.19075155  1
  Se  Se258  1  0.75910784  0.91845079  0.69790496  1
