# generated using pymatgen
data_In86Cu29Se144
_symmetry_space_group_name_H-M   'P 1'
_cell_length_a   17.57189959
_cell_length_b   17.57393444
_cell_length_c   23.43406327
_cell_angle_alpha   90.00651221
_cell_angle_beta   90.00128983
_cell_angle_gamma   90.03444529
_symmetry_Int_Tables_number   1
_chemical_formula_structural   In86Cu29Se144
_chemical_formula_sum   'In86 Cu29 Se144'
_cell_volume   7236.61105998
_cell_formula_units_Z   1
loop_
 _symmetry_equiv_pos_site_id
 _symmetry_equiv_pos_as_xyz
  1  'x, y, z'
loop_
 _atom_site_type_symbol
 _atom_site_label
 _atom_site_symmetry_multiplicity
 _atom_site_fract_x
 _atom_site_fract_y
 _atom_site_fract_z
 _atom_site_occupancy
  In  In0  1  0.00072183  0.16366645  0.11853932  1
  In  In1  1  0.00454207  0.16120998  0.62833875  1
  In  In2  1  0.00001073  0.49219997  0.13847637  1
  In  In3  1  0.00540434  0.49728783  0.61957017  1
  In  In4  1  -0.03904405  0.86037327  0.16534632  1
  In  In5  1  -0.00249955  0.83854619  0.63099726  1
  In  In6  1  0.33307592  0.16937922  0.12669838  1
  In  In7  1  0.33445794  0.16168828  0.61279416  1
  In  In8  1  0.33374077  0.49011668  0.13519814  1
  In  In9  1  0.33818356  0.50763255  0.61712927  1
  In  In10  1  0.32838836  0.83092310  0.13435687  1
  In  In11  1  0.32807545  0.82293895  0.62175517  1
  In  In12  1  0.65967418  0.15803118  0.12331028  1
  In  In13  1  0.65951852  0.15878834  0.62504305  1
  In  In14  1  0.66257203  0.50598574  0.12102213  1
  In  In15  1  0.66438771  0.49499001  0.61201394  1
  In  In16  1  0.69243870  0.83905243  0.12933037  1
  In  In17  1  0.67342065  0.84767588  0.62518427  1
  In  In18  1  0.16042835  0.02990730  0.36599725  1
  In  In19  1  0.15777972  0.01818416  0.88423020  1
  In  In20  1  0.17142073  0.33189144  0.37508125  1
  In  In21  1  0.15536165  0.33313659  0.87336062  1
  In  In22  1  0.15800721  0.65416865  0.37298868  1
  In  In23  1  0.16847642  0.66844414  0.86760451  1
  In  In24  1  0.50255623  -0.00539367  0.38412734  1
  In  In25  1  0.51396462  0.00087358  0.87658629  1
  In  In26  1  0.48749854  0.34446988  0.38227249  1
  In  In27  1  0.50276167  0.33162398  0.88357630  1
  In  In28  1  0.48989750  0.67506716  0.38054339  1
  In  In29  1  0.48817932  0.66607831  0.87270593  1
  In  In30  1  0.84187215  0.00606717  0.35070595  1
  In  In31  1  0.83731485  0.00292492  0.87753168  1
  In  In32  1  0.84915976  0.34067867  0.36435692  1
  In  In33  1  0.83772463  0.32074719  0.87819461  1
  In  In34  1  0.83307187  0.65513460  0.37065989  1
  In  In35  1  0.85083638  0.66179722  0.87853757  1
  In  In36  1  0.01896594  0.18697238  0.34401479  1
  In  In37  1  -0.00209149  0.16662784  0.87528743  1
  In  In38  1  0.00244846  0.50086411  0.37657448  1
  In  In39  1  0.00676204  0.50380660  0.86677866  1
  In  In40  1  -0.00213943  0.83416077  0.36211874  1
  In  In41  1  -0.00255070  0.83168876  0.87655776  1
  In  In42  1  0.31610093  0.17550273  0.38412636  1
  In  In43  1  0.33455961  0.17059559  0.88416716  1
  In  In44  1  0.33117521  0.49817404  0.37640012  1
  In  In45  1  0.33141312  0.50906878  0.87315177  1
  In  In46  1  0.35600839  0.83758050  0.37137998  1
  In  In47  1  0.33985313  0.82567653  0.87114224  1
  In  In48  1  0.66780021  0.14994230  0.36732595  1
  In  In49  1  0.68252597  0.15466913  0.88649994  1
  In  In50  1  0.66490440  0.49832582  0.38530861  1
  In  In51  1  0.66606889  0.48445537  0.87896518  1
  In  In52  1  0.64957559  0.83930716  0.36867685  1
  In  In53  1  0.67123027  0.85177479  0.87442862  1
  In  In54  1  0.14768567  0.00968238  0.12735128  1
  In  In55  1  0.15764036  -0.00235226  0.62104069  1
  In  In56  1  0.16738761  0.32125226  0.13800195  1
  In  In57  1  0.15706650  0.32072503  0.61766253  1
  In  In58  1  0.16546896  0.67375795  0.13502396  1
  In  In59  1  0.17468323  0.66622844  0.62734040  1
  In  In60  1  0.49458426  0.00911700  0.12891102  1
  In  In61  1  0.51003991  0.00895030  0.61556380  1
  In  In62  1  0.49262308  0.32675771  0.12598893  1
  In  In63  1  0.49750671  0.32779856  0.61566749  1
  In  In64  1  0.50163170  0.65483473  0.12803539  1
  In  In65  1  0.49078378  0.65725619  0.61628390  1
  In  In66  1  0.83735802  0.00732981  0.12956675  1
  In  In67  1  0.83456524  -0.00154257  0.63351738  1
  In  In68  1  0.87677524  0.31677290  0.14712202  1
  In  In69  1  0.83846346  0.34284081  0.62050220  1
  In  In70  1  0.83390657  0.67534096  0.12922442  1
  In  In71  1  0.85017580  0.66644477  0.62291076  1
  In  In72  1  0.82824131  0.83208291  0.49249105  1
  In  In73  1  0.82786175  0.49239411  0.00511553  1
  In  In74  1  0.17007433  0.49620101  -0.00217962  1
  In  In75  1  0.83447121  0.16778801  0.48228843  1
  In  In76  1  0.33132478  0.00291120  0.25070827  1
  In  In77  1  0.50315811  0.83685103  -0.00330768  1
  In  In78  1  0.33375542  0.33440248  0.73677549  1
  In  In79  1  0.66833290  0.66790729  0.74642085  1
  In  In80  1  0.15817524  0.83960776  0.00425673  1
  In  In81  1  0.67205030  0.32618147  0.74988446  1
  In  In82  1  0.66495874  0.67325621  0.24973553  1
  In  In83  1  0.66904367  0.33060378  0.25213126  1
  In  In84  1  0.32537446  -0.00913448  0.74918395  1
  In  In85  1  0.17257172  0.83816682  0.49545832  1
  Cu  Cu86  1  0.66479803  0.32910292  0.49779706  1
  Cu  Cu87  1  0.00099410  0.00617174  0.49582058  1
  Cu  Cu88  1  0.00341651  0.33000086  0.49097241  1
  Cu  Cu89  1  0.33849218  0.33058309  0.01019893  1
  Cu  Cu90  1  0.33218390  0.66494910  0.49704740  1
  Cu  Cu91  1  0.66722642  0.67187641  0.00602998  1
  Cu  Cu92  1  0.49332522  0.50101848  0.25518009  1
  Cu  Cu93  1  0.83866570  0.16227770  0.75626290  1
  Cu  Cu94  1  0.84537248  0.50182570  0.74450479  1
  Cu  Cu95  1  0.50905803  0.15405029  0.75225224  1
  Cu  Cu96  1  0.33670464  0.66053500  0.00053566  1
  Cu  Cu97  1  0.00293907  0.32619137  0.00110695  1
  Cu  Cu98  1  0.49092266  0.17044380  0.25210601  1
  Cu  Cu99  1  0.32915129  0.33596267  0.49966817  1
  Cu  Cu100  1  0.00507190  0.65994816  0.50079579  1
  Cu  Cu101  1  0.16043916  0.17055941  0.75045033  1
  Cu  Cu102  1  0.66196978  0.33512257  0.00909910  1
  Cu  Cu103  1  0.49702487  0.83029044  0.74924542  1
  Cu  Cu104  1  0.49670172  0.50163458  0.74408064  1
  Cu  Cu105  1  0.33043556  0.00905477  0.00457358  1
  Cu  Cu106  1  0.67237336  0.00239188  0.00266849  1
  Cu  Cu107  1  0.17794197  0.82370615  0.25625132  1
  Cu  Cu108  1  0.66434475  0.66670308  0.49380740  1
  Cu  Cu109  1  0.16783913  0.49353380  0.25715111  1
  Cu  Cu110  1  0.83565231  0.83590178  0.75374225  1
  Cu  Cu111  1  0.16143605  0.50631256  0.74491940  1
  Cu  Cu112  1  0.15676877  0.83519410  0.75011424  1
  Cu  Cu113  1  0.66855298  -0.00005544  0.49607640  1
  Cu  Cu114  1  -0.00363112  0.67402036  0.00497440  1
  Se  Se115  1  0.08607124  0.08722471  0.04771522  1
  Se  Se116  1  0.08292509  0.08667786  0.55192017  1
  Se  Se117  1  0.07939581  0.41168181  0.06009604  1
  Se  Se118  1  0.08375937  0.41172873  0.54929464  1
  Se  Se119  1  0.07533972  0.74979629  0.06664812  1
  Se  Se120  1  0.07807320  0.75213894  0.55776222  1
  Se  Se121  1  0.41780397  0.08933597  0.05623134  1
  Se  Se122  1  0.42629566  0.08821432  0.54907469  1
  Se  Se123  1  0.41740404  0.42135472  0.05927298  1
  Se  Se124  1  0.41693057  0.41703165  0.55199799  1
  Se  Se125  1  0.41197408  0.74839864  0.05854348  1
  Se  Se126  1  0.41430201  0.74979834  0.55055123  1
  Se  Se127  1  0.75414505  0.08650046  0.05682806  1
  Se  Se128  1  0.75433196  0.07802211  0.55466170  1
  Se  Se129  1  0.74884003  0.40264718  0.07149075  1
  Se  Se130  1  0.75209363  0.41234520  0.54792197  1
  Se  Se131  1  0.75695837  0.75191976  0.05353994  1
  Se  Se132  1  0.74437388  0.74175000  0.55943374  1
  Se  Se133  1  0.24665790  0.25223283  0.05916971  1
  Se  Se134  1  0.24761974  0.24675066  0.55013487  1
  Se  Se135  1  0.25316572  0.58721893  0.06198158  1
  Se  Se136  1  0.24611070  0.58532300  0.55138190  1
  Se  Se137  1  0.25679555  0.92450786  0.06395822  1
  Se  Se138  1  0.26072822  0.92808902  0.55742602  1
  Se  Se139  1  0.57827611  0.24747501  0.05789679  1
  Se  Se140  1  0.58699900  0.24404603  0.55330032  1
  Se  Se141  1  0.58035917  0.58484651  0.04994257  1
  Se  Se142  1  0.58127626  0.58239989  0.54878247  1
  Se  Se143  1  0.58922409  0.92236022  0.06215983  1
  Se  Se144  1  0.58863994  0.91475068  0.55089602  1
  Se  Se145  1  0.91164759  0.25010098  0.05275298  1
  Se  Se146  1  0.92113429  0.25027250  0.55243260  1
  Se  Se147  1  0.92386012  0.58147750  0.06105829  1
  Se  Se148  1  0.91670104  0.57808916  0.55094110  1
  Se  Se149  1  0.91431848  0.90864807  0.06880691  1
  Se  Se150  1  0.91987013  0.92399863  0.55389586  1
  Se  Se151  1  0.07925490  0.24155649  0.43581620  1
  Se  Se152  1  0.08664308  0.24681756  0.94524282  1
  Se  Se153  1  0.08869385  0.57534213  0.45065111  1
  Se  Se154  1  0.07772086  0.59458258  0.94414997  1
  Se  Se155  1  0.07739187  0.92227905  0.43458135  1
  Se  Se156  1  0.06751774  0.93050512  0.94718248  1
  Se  Se157  1  0.41252666  0.25072992  0.44773091  1
  Se  Se158  1  0.42085657  0.24923229  0.95183501  1
  Se  Se159  1  0.41730860  0.57994160  0.44560676  1
  Se  Se160  1  0.41927697  0.57886307  0.94615805  1
  Se  Se161  1  0.41733423  0.91440956  0.45151288  1
  Se  Se162  1  0.40540114  0.92776939  0.94069576  1
  Se  Se163  1  0.74051518  0.26016563  0.42869968  1
  Se  Se164  1  0.74570371  0.25861657  0.94997977  1
  Se  Se165  1  0.75385067  0.58407196  0.44754025  1
  Se  Se166  1  0.74322972  0.58843600  0.94158996  1
  Se  Se167  1  0.75135477  0.92970741  0.43096145  1
  Se  Se168  1  0.75471406  0.91853961  0.94901875  1
  Se  Se169  1  0.24982568  0.07095410  0.44547767  1
  Se  Se170  1  0.24751060  0.09226341  0.95164529  1
  Se  Se171  1  0.24582444  0.41871177  0.44651110  1
  Se  Se172  1  0.26238647  0.40392567  0.93990687  1
  Se  Se173  1  0.25605497  0.74530124  0.43374322  1
  Se  Se174  1  0.25439360  0.74514337  0.94496178  1
  Se  Se175  1  0.58601144  0.08776759  0.44669060  1
  Se  Se176  1  0.58320076  0.08393523  0.95122808  1
  Se  Se177  1  0.57856684  0.41754869  0.45140517  1
  Se  Se178  1  0.58075694  0.41831889  0.95316537  1
  Se  Se179  1  0.58323640  0.75478281  0.44467366  1
  Se  Se180  1  0.59192165  0.74435309  0.93558552  1
  Se  Se181  1  0.92786518  0.07895954  0.42717266  1
  Se  Se182  1  0.89811352  0.10558440  0.94252023  1
  Se  Se183  1  0.91638119  0.41619040  0.44470232  1
  Se  Se184  1  0.92843427  0.41518310  0.94141144  1
  Se  Se185  1  0.92751048  0.74365698  0.44044765  1
  Se  Se186  1  0.91387621  0.75447563  0.94979518  1
  Se  Se187  1  0.23675960  0.23722535  0.30471479  1
  Se  Se188  1  0.24992857  0.24700814  0.80575220  1
  Se  Se189  1  0.25159826  0.58167301  0.30575912  1
  Se  Se190  1  0.25015037  0.58318923  0.80005320  1
  Se  Se191  1  0.24359059  0.91436843  0.31601834  1
  Se  Se192  1  0.23483878  0.91018215  0.81771919  1
  Se  Se193  1  0.57225470  0.24921465  0.31388045  1
  Se  Se194  1  0.58239815  0.24006526  0.81302270  1
  Se  Se195  1  0.57893042  0.57939123  0.31200691  1
  Se  Se196  1  0.58136215  0.57316796  0.80798607  1
  Se  Se197  1  0.58388177  0.93535737  0.30321644  1
  Se  Se198  1  0.57955760  0.91465569  0.80139362  1
  Se  Se199  1  0.88995654  0.22789160  0.30275629  1
  Se  Se200  1  0.92027976  0.25350111  0.80272730  1
  Se  Se201  1  0.93073491  0.59159508  0.30544436  1
  Se  Se202  1  0.92268480  0.58776844  0.79985617  1
  Se  Se203  1  0.90699540  0.90003274  0.29123213  1
  Se  Se204  1  0.91869423  0.91870247  0.80794304  1
  Se  Se205  1  0.06047147  0.06422507  0.28943440  1
  Se  Se206  1  0.08117973  0.08428937  0.80429461  1
  Se  Se207  1  0.08091734  0.41187888  0.30867904  1
  Se  Se208  1  0.08581157  0.41717036  0.79923829  1
  Se  Se209  1  0.08574521  0.74457572  0.30364467  1
  Se  Se210  1  0.07786866  0.74912040  0.80547520  1
  Se  Se211  1  0.41564155  0.09039225  0.31653977  1
  Se  Se212  1  0.41632652  0.08381268  0.80971019  1
  Se  Se213  1  0.40967992  0.41321483  0.30388025  1
  Se  Se214  1  0.42224948  0.41729493  0.80648666  1
  Se  Se215  1  0.42615475  0.75163407  0.29989337  1
  Se  Se216  1  0.41272367  0.74395323  0.79711052  1
  Se  Se217  1  0.74940638  0.08706223  0.29028244  1
  Se  Se218  1  0.74939342  0.08078713  0.80532797  1
  Se  Se219  1  0.75216330  0.43113064  0.30805703  1
  Se  Se220  1  0.76350491  0.42327619  0.80573819  1
  Se  Se221  1  0.75497412  0.75946997  0.31183200  1
  Se  Se222  1  0.75685771  0.75155580  0.81268971  1
  Se  Se223  1  0.23660184  0.09300767  0.19559024  1
  Se  Se224  1  0.24386287  0.09141969  0.69103295  1
  Se  Se225  1  0.24954154  0.40905956  0.20254436  1
  Se  Se226  1  0.23961680  0.42527751  0.68293358  1
  Se  Se227  1  0.26215234  0.73907545  0.20466401  1
  Se  Se228  1  0.24616129  0.75607539  0.69875042  1
  Se  Se229  1  0.57572386  0.08871256  0.19979272  1
  Se  Se230  1  0.59014136  0.07141470  0.69790274  1
  Se  Se231  1  0.57622002  0.42402770  0.19433105  1
  Se  Se232  1  0.57891036  0.41722777  0.68985054  1
  Se  Se233  1  0.58150779  0.76027321  0.18330873  1
  Se  Se234  1  0.57752769  0.75421999  0.68510047  1
  Se  Se235  1  0.94407442  0.07010296  0.19550144  1
  Se  Se236  1  0.92098676  0.08080212  0.69803702  1
  Se  Se237  1  0.90455091  0.43237287  0.20935798  1
  Se  Se238  1  0.92440758  0.41405981  0.69219745  1
  Se  Se239  1  0.92716859  0.72697493  0.20406108  1
  Se  Se240  1  0.91569545  0.75233428  0.69771358  1
  Se  Se241  1  0.04727974  0.27173714  0.18914848  1
  Se  Se242  1  0.07794289  0.25389453  0.69682355  1
  Se  Se243  1  0.09150697  0.57653779  0.19793373  1
  Se  Se244  1  0.07919755  0.58878785  0.68975143  1
  Se  Se245  1  0.10334866  0.89452345  0.18724122  1
  Se  Se246  1  0.08020801  0.92413220  0.69744974  1
  Se  Se247  1  0.40881481  0.25370232  0.19937483  1
  Se  Se248  1  0.42890401  0.23401291  0.69145438  1
  Se  Se249  1  0.41329411  0.58445599  0.19879042  1
  Se  Se250  1  0.41239668  0.58577689  0.69443504  1
  Se  Se251  1  0.42608212  0.90924992  0.19704105  1
  Se  Se252  1  0.42130115  0.91242438  0.68633862  1
  Se  Se253  1  0.75387118  0.24413097  0.18796185  1
  Se  Se254  1  0.76274967  0.23843821  0.68775684  1
  Se  Se255  1  0.75245041  0.57735918  0.19279362  1
  Se  Se256  1  0.75443353  0.57287309  0.68640257  1
  Se  Se257  1  0.74717437  0.93355497  0.20102285  1
  Se  Se258  1  0.74972335  0.91849127  0.70273335  1
