# generated using pymatgen
data_In86Cu29Se144
_symmetry_space_group_name_H-M   'P 1'
_cell_length_a   17.57434318
_cell_length_b   17.57503057
_cell_length_c   23.42536950
_cell_angle_alpha   89.96228473
_cell_angle_beta   89.99566839
_cell_angle_gamma   89.97673642
_symmetry_Int_Tables_number   1
_chemical_formula_structural   In86Cu29Se144
_chemical_formula_sum   'In86 Cu29 Se144'
_cell_volume   7235.38275694
_cell_formula_units_Z   1
loop_
 _symmetry_equiv_pos_site_id
 _symmetry_equiv_pos_as_xyz
  1  'x, y, z'
loop_
 _atom_site_type_symbol
 _atom_site_label
 _atom_site_symmetry_multiplicity
 _atom_site_fract_x
 _atom_site_fract_y
 _atom_site_fract_z
 _atom_site_occupancy
  In  In0  1  0.00192696  0.16351967  0.11619076  1
  In  In1  1  0.00946588  0.16311786  0.64491946  1
  In  In2  1  0.00731798  0.49968969  0.13379435  1
  In  In3  1  0.00253794  0.49805126  0.63668239  1
  In  In4  1  -0.00556246  0.82482884  0.11809594  1
  In  In5  1  -0.00278705  0.83591004  0.63414296  1
  In  In6  1  0.32373738  0.15901617  0.11474098  1
  In  In7  1  0.32582111  0.17135638  0.64570553  1
  In  In8  1  0.34311664  0.50257676  0.12103667  1
  In  In9  1  0.34832723  0.49368597  0.62972770  1
  In  In10  1  0.33535451  0.83172444  0.11992990  1
  In  In11  1  0.33812996  0.82472380  0.63607278  1
  In  In12  1  0.66379232  0.15870374  0.10756082  1
  In  In13  1  0.67838778  0.16811160  0.63164551  1
  In  In14  1  0.66145269  0.51301579  0.12634866  1
  In  In15  1  0.65298064  0.51362275  0.63507478  1
  In  In16  1  0.64907043  0.82716562  0.10646757  1
  In  In17  1  0.64619871  0.83852039  0.62830842  1
  In  In18  1  0.17125453  -0.01071480  0.37274250  1
  In  In19  1  0.16429479  0.00165881  0.87140914  1
  In  In20  1  0.16241919  0.34796366  0.37128822  1
  In  In21  1  0.16449666  0.31819025  0.86065595  1
  In  In22  1  0.17493826  0.66480355  0.35736082  1
  In  In23  1  0.18036759  0.68186782  0.87207722  1
  In  In24  1  0.48139543  -0.00413902  0.37047722  1
  In  In25  1  0.49078713  0.00790243  0.88399295  1
  In  In26  1  0.50913662  0.33445940  0.38084214  1
  In  In27  1  0.49611939  0.33259577  0.87252353  1
  In  In28  1  0.49821169  0.66952124  0.37266402  1
  In  In29  1  0.49515394  0.66421029  0.88034189  1
  In  In30  1  0.83449369  0.01408556  0.37134066  1
  In  In31  1  0.84022737  -0.01392960  0.88799391  1
  In  In32  1  0.85316859  0.32659542  0.37095051  1
  In  In33  1  0.82556443  0.32724171  0.87119147  1
  In  In34  1  0.83297261  0.66835131  0.36574524  1
  In  In35  1  0.83888652  0.67448425  0.87267503  1
  In  In36  1  -0.00910794  0.18244662  0.37147578  1
  In  In37  1  0.00811713  0.15778367  0.87139766  1
  In  In38  1  0.01059957  0.50053047  0.36003205  1
  In  In39  1  -0.00018794  0.50094233  0.86943853  1
  In  In40  1  0.01304022  0.82919482  0.37363054  1
  In  In41  1  0.00107058  0.83451297  0.87804135  1
  In  In42  1  0.34299124  0.15820620  0.36905398  1
  In  In43  1  0.32949882  0.16662313  0.86902318  1
  In  In44  1  0.32881085  0.51137220  0.37655584  1
  In  In45  1  0.34545728  0.51001825  0.87264812  1
  In  In46  1  0.33830770  0.83516368  0.36756782  1
  In  In47  1  0.32902348  0.82933352  0.88123291  1
  In  In48  1  0.67644465  0.17245135  0.37143978  1
  In  In49  1  0.65574421  0.16749623  0.89000677  1
  In  In50  1  0.65131488  0.50142697  0.37712240  1
  In  In51  1  0.65501592  0.49274110  0.87158229  1
  In  In52  1  0.66595299  0.81700248  0.37283930  1
  In  In53  1  0.67487674  0.82896242  0.88451362  1
  In  In54  1  0.17718584  0.00641282  0.11672369  1
  In  In55  1  0.16555551  0.00439654  0.64222235  1
  In  In56  1  0.16740357  0.32077928  0.11866478  1
  In  In57  1  0.17234408  0.32830040  0.63829536  1
  In  In58  1  0.16212189  0.67075003  0.12557673  1
  In  In59  1  0.16777077  0.66561443  0.63714885  1
  In  In60  1  0.48742203  -0.02291799  0.10406708  1
  In  In61  1  0.49449313  -0.01489790  0.62730374  1
  In  In62  1  0.49727785  0.33175979  0.11180895  1
  In  In63  1  0.48597851  0.35211405  0.63509170  1
  In  In64  1  0.49891611  0.66967275  0.12112633  1
  In  In65  1  0.49713393  0.66968139  0.62857463  1
  In  In66  1  0.83084253  0.00049837  0.10759911  1
  In  In67  1  0.83824595  0.00892895  0.62883374  1
  In  In68  1  0.84269129  0.32578617  0.12146506  1
  In  In69  1  0.83671861  0.32710916  0.63972343  1
  In  In70  1  0.82784514  0.67297306  0.12915482  1
  In  In71  1  0.83350595  0.66499103  0.63598927  1
  In  In72  1  0.67312063  0.33853130  0.24920933  1
  In  In73  1  0.82476073  0.83444715  0.51041066  1
  In  In74  1  0.82894738  0.50119986  0.00891136  1
  In  In75  1  0.17148105  0.83518328  0.49870429  1
  In  In76  1  0.49932108  0.16386501  0.50214932  1
  In  In77  1  0.66286804  -0.00533576  0.23881845  1
  In  In78  1  0.66876919  -0.00288582  0.75781175  1
  In  In79  1  0.32743018  0.34048030  0.24807323  1
  In  In80  1  0.17069064  0.16648541  0.51765479  1
  In  In81  1  0.17332459  0.50210678  0.49713046  1
  In  In82  1  0.17631404  0.50263616  -0.00108953  1
  In  In83  1  0.83026662  0.49935126  0.50357615  1
  In  In84  1  0.83474052  0.16793858  0.49765002  1
  In  In85  1  0.00192679  -0.00048596  0.24718346  1
  Cu  Cu86  1  0.33256928  0.32819620  -0.00857928  1
  Cu  Cu87  1  0.66157061  0.34209368  0.50900192  1
  Cu  Cu88  1  0.65093609  0.66423482  0.50135826  1
  Cu  Cu89  1  0.16406241  0.16686675  0.24108525  1
  Cu  Cu90  1  0.65734027  -0.00761197  0.49568384  1
  Cu  Cu91  1  0.00103156  0.32787148  -0.00799640  1
  Cu  Cu92  1  0.16742448  0.50300403  0.75564701  1
  Cu  Cu93  1  0.49611757  0.16186677  0.24152365  1
  Cu  Cu94  1  0.17299545  0.83364827  0.24484991  1
  Cu  Cu95  1  0.50022517  0.50524825  0.75331266  1
  Cu  Cu96  1  0.83476795  0.50363977  0.24639234  1
  Cu  Cu97  1  0.49900737  0.51086496  0.24957654  1
  Cu  Cu98  1  0.00913967  -0.00011525  -0.00286065  1
  Cu  Cu99  1  0.49801747  0.82909671  0.24004278  1
  Cu  Cu100  1  0.16392446  0.83232108  0.75856401  1
  Cu  Cu101  1  0.33294750  -0.00328011  0.50205399  1
  Cu  Cu102  1  0.65889902  0.33224277  -0.00611081  1
  Cu  Cu103  1  0.66054797  0.66125209  -0.00067314  1
  Cu  Cu104  1  0.83497418  0.16477266  0.75866516  1
  Cu  Cu105  1  0.82826478  0.50039724  0.75514647  1
  Cu  Cu106  1  0.34211545  0.66841144  0.50212109  1
  Cu  Cu107  1  0.83454241  0.83169800  0.75894188  1
  Cu  Cu108  1  0.83307089  0.83251729  0.24400627  1
  Cu  Cu109  1  0.00328519  0.33135960  0.50492092  1
  Cu  Cu110  1  0.00232470  0.66968151  0.49831899  1
  Cu  Cu111  1  0.32961944  -0.00233506  -0.00671307  1
  Cu  Cu112  1  0.50689041  0.16591285  0.75958481  1
  Cu  Cu113  1  0.00288786  0.67382782  -0.00263228  1
  Cu  Cu114  1  0.49458783  0.82845869  0.75607554  1
  Se  Se115  1  0.09083832  0.08641092  0.04908992  1
  Se  Se116  1  0.07353376  0.07380015  0.56572054  1
  Se  Se117  1  0.07625676  0.41234063  0.05332528  1
  Se  Se118  1  0.08380551  0.41402121  0.56176230  1
  Se  Se119  1  0.08938129  0.75383420  0.05064527  1
  Se  Se120  1  0.08049720  0.74633616  0.56100259  1
  Se  Se121  1  0.41373164  0.08215868  0.04787634  1
  Se  Se122  1  0.40607883  0.08060389  0.56512625  1
  Se  Se123  1  0.41006930  0.41439259  0.04744500  1
  Se  Se124  1  0.41898456  0.41809834  0.55166547  1
  Se  Se125  1  0.44213239  0.77460656  0.05568033  1
  Se  Se126  1  0.41735068  0.75605754  0.55777375  1
  Se  Se127  1  0.77038309  0.10415869  0.04461611  1
  Se  Se128  1  0.73934209  0.07234308  0.55399408  1
  Se  Se129  1  0.73497325  0.40684482  0.06277868  1
  Se  Se130  1  0.74704920  0.41291109  0.57022775  1
  Se  Se131  1  0.74802181  0.74267613  0.05194097  1
  Se  Se132  1  0.73465485  0.73867132  0.56403419  1
  Se  Se133  1  0.24728117  0.24664084  0.04492970  1
  Se  Se134  1  0.26715924  0.26136730  0.56389316  1
  Se  Se135  1  0.26167410  0.59731686  0.05618104  1
  Se  Se136  1  0.25660632  0.59315648  0.56144930  1
  Se  Se137  1  0.25016575  0.91382528  0.05050161  1
  Se  Se138  1  0.25277893  0.92293709  0.56668180  1
  Se  Se139  1  0.57579197  0.24478300  0.04518881  1
  Se  Se140  1  0.58983634  0.25035535  0.56417262  1
  Se  Se141  1  0.57599472  0.57817952  0.05154843  1
  Se  Se142  1  0.57253360  0.58032097  0.55706918  1
  Se  Se143  1  0.61004137  0.94565647  0.04610861  1
  Se  Se144  1  0.57365918  0.91332059  0.54990706  1
  Se  Se145  1  0.91771032  0.24686754  0.04706448  1
  Se  Se146  1  0.92437704  0.25056654  0.56415650  1
  Se  Se147  1  0.92748349  0.59120738  0.06042863  1
  Se  Se148  1  0.92535092  0.58999132  0.56047132  1
  Se  Se149  1  0.92309706  0.91588015  0.04877949  1
  Se  Se150  1  0.92376828  0.92537897  0.55813942  1
  Se  Se151  1  0.08549802  0.25336633  0.44491242  1
  Se  Se152  1  0.08788433  0.24812046  0.93995497  1
  Se  Se153  1  0.08086641  0.59216158  0.43664213  1
  Se  Se154  1  0.08006267  0.58848514  0.93997167  1
  Se  Se155  1  0.07375985  0.92734165  0.44619278  1
  Se  Se156  1  0.09007863  0.91452222  0.94412977  1
  Se  Se157  1  0.40856083  0.25302817  0.44109241  1
  Se  Se158  1  0.41746172  0.24366717  0.94039361  1
  Se  Se159  1  0.41893202  0.58452274  0.44406915  1
  Se  Se160  1  0.41855048  0.57903038  0.95151972  1
  Se  Se161  1  0.41206792  0.91334855  0.44582513  1
  Se  Se162  1  0.41785966  0.91129642  0.94816703  1
  Se  Se163  1  0.74454268  0.26982076  0.44421518  1
  Se  Se164  1  0.75149931  0.25166008  0.94845924  1
  Se  Se165  1  0.74358147  0.59369462  0.44331360  1
  Se  Se166  1  0.74580400  0.58453535  0.93965020  1
  Se  Se167  1  0.74594329  0.92203788  0.43563214  1
  Se  Se168  1  0.74830983  0.91498734  0.95531023  1
  Se  Se169  1  0.25348033  0.07956207  0.44395303  1
  Se  Se170  1  0.24911013  0.08454267  0.94077441  1
  Se  Se171  1  0.26229229  0.40499441  0.44300092  1
  Se  Se172  1  0.25243227  0.40982471  0.93191161  1
  Se  Se173  1  0.25570731  0.73969358  0.43874688  1
  Se  Se174  1  0.24772308  0.75006447  0.95351492  1
  Se  Se175  1  0.58790166  0.07882233  0.43296844  1
  Se  Se176  1  0.59243255  0.06430906  0.95303930  1
  Se  Se177  1  0.57921954  0.42188496  0.45314431  1
  Se  Se178  1  0.57460491  0.41784649  0.94534023  1
  Se  Se179  1  0.57679092  0.75348989  0.44598019  1
  Se  Se180  1  0.58116859  0.74951844  0.94737044  1
  Se  Se181  1  0.93129591  0.07800392  0.44320011  1
  Se  Se182  1  0.92395949  0.08274266  0.94474076  1
  Se  Se183  1  0.92912842  0.41613373  0.44361313  1
  Se  Se184  1  0.91727687  0.41584826  0.94237521  1
  Se  Se185  1  0.91705899  0.74892340  0.44295133  1
  Se  Se186  1  0.91309038  0.75406557  0.94760190  1
  Se  Se187  1  0.24256027  0.24257888  0.30867195  1
  Se  Se188  1  0.26730940  0.25928119  0.79567149  1
  Se  Se189  1  0.24348904  0.56395751  0.29766339  1
  Se  Se190  1  0.25244599  0.58622797  0.80648628  1
  Se  Se191  1  0.25364633  0.91850363  0.29960990  1
  Se  Se192  1  0.25223822  0.91347210  0.80847784  1
  Se  Se193  1  0.57437431  0.24144245  0.30330315  1
  Se  Se194  1  0.59068632  0.24853187  0.81091117  1
  Se  Se195  1  0.58663662  0.58893254  0.30344241  1
  Se  Se196  1  0.58214762  0.58888964  0.80734354  1
  Se  Se197  1  0.57580924  0.90864250  0.30595539  1
  Se  Se198  1  0.57611741  0.90945057  0.81565778  1
  Se  Se199  1  0.90835812  0.24120445  0.29283766  1
  Se  Se200  1  0.92016148  0.24910760  0.80921225  1
  Se  Se201  1  0.91919998  0.58610499  0.30089400  1
  Se  Se202  1  0.91455046  0.58523299  0.80435094  1
  Se  Se203  1  0.90905130  0.90910522  0.30960335  1
  Se  Se204  1  0.91739360  0.91856997  0.80793228  1
  Se  Se205  1  0.08937867  0.09099381  0.31090937  1
  Se  Se206  1  0.09354931  0.08761611  0.79758982  1
  Se  Se207  1  0.07144197  0.39900776  0.29588578  1
  Se  Se208  1  0.08227562  0.41648215  0.80309090  1
  Se  Se209  1  0.08529647  0.75259428  0.29790030  1
  Se  Se210  1  0.07803349  0.74670991  0.80779615  1
  Se  Se211  1  0.41286955  0.07713216  0.29348043  1
  Se  Se212  1  0.41918414  0.07992573  0.80439995  1
  Se  Se213  1  0.42697355  0.42098616  0.30948202  1
  Se  Se214  1  0.41616922  0.41802209  0.80284425  1
  Se  Se215  1  0.41631678  0.74805021  0.29969882  1
  Se  Se216  1  0.41137256  0.74611099  0.81029677  1
  Se  Se217  1  0.75396261  0.09136408  0.29634034  1
  Se  Se218  1  0.75493167  0.08528141  0.82031347  1
  Se  Se219  1  0.76088854  0.42700197  0.31567898  1
  Se  Se220  1  0.74477714  0.41457412  0.80496575  1
  Se  Se221  1  0.74837842  0.74924125  0.29726297  1
  Se  Se222  1  0.74494691  0.74997193  0.80625819  1
  Se  Se223  1  0.25177215  0.08331981  0.19413228  1
  Se  Se224  1  0.24679966  0.08466102  0.71005787  1
  Se  Se225  1  0.23996264  0.42373706  0.18260668  1
  Se  Se226  1  0.25082371  0.42554984  0.69666760  1
  Se  Se227  1  0.25468786  0.74935649  0.19146675  1
  Se  Se228  1  0.24889992  0.74987232  0.70404911  1
  Se  Se229  1  0.57219104  0.08303107  0.17949561  1
  Se  Se230  1  0.57858244  0.08442090  0.69191083  1
  Se  Se231  1  0.57147300  0.41939102  0.19131115  1
  Se  Se232  1  0.58428354  0.41710053  0.70200877  1
  Se  Se233  1  0.58834229  0.75054705  0.18974174  1
  Se  Se234  1  0.58100216  0.75001286  0.70077099  1
  Se  Se235  1  0.90987990  0.08213919  0.18578646  1
  Se  Se236  1  0.91604325  0.07932972  0.70487307  1
  Se  Se237  1  0.91116166  0.41709928  0.19182374  1
  Se  Se238  1  0.91562446  0.41787724  0.70301947  1
  Se  Se239  1  0.92102024  0.74835169  0.19584663  1
  Se  Se240  1  0.91708949  0.74984868  0.70107555  1
  Se  Se241  1  0.07933635  0.24730660  0.18917688  1
  Se  Se242  1  0.07624963  0.26377249  0.70457913  1
  Se  Se243  1  0.08589015  0.58758581  0.19729523  1
  Se  Se244  1  0.08023777  0.58634700  0.70326054  1
  Se  Se245  1  0.09039504  0.91243613  0.18500478  1
  Se  Se246  1  0.08026183  0.91497243  0.70327403  1
  Se  Se247  1  0.41580031  0.24865416  0.18691173  1
  Se  Se248  1  0.42686046  0.24886037  0.70145109  1
  Se  Se249  1  0.41596014  0.58852361  0.19301103  1
  Se  Se250  1  0.41496245  0.58800248  0.69913419  1
  Se  Se251  1  0.41695337  0.91858577  0.19056402  1
  Se  Se252  1  0.41360387  0.91687533  0.70376125  1
  Se  Se253  1  0.74627570  0.24262322  0.18459136  1
  Se  Se254  1  0.74886360  0.24788710  0.70716932  1
  Se  Se255  1  0.74720465  0.58564512  0.19707068  1
  Se  Se256  1  0.74608986  0.58621620  0.70190253  1
  Se  Se257  1  0.75517229  0.90728416  0.17973479  1
  Se  Se258  1  0.75669398  0.90824941  0.69099907  1
