# generated using pymatgen
data_In86Cu29Se144
_symmetry_space_group_name_H-M   'P 1'
_cell_length_a   17.57636186
_cell_length_b   17.57671254
_cell_length_c   23.42392238
_cell_angle_alpha   90.00296888
_cell_angle_beta   90.01754726
_cell_angle_gamma   89.98758282
_symmetry_Int_Tables_number   1
_chemical_formula_structural   In86Cu29Se144
_chemical_formula_sum   'In86 Cu29 Se144'
_cell_volume   7236.46097504
_cell_formula_units_Z   1
loop_
 _symmetry_equiv_pos_site_id
 _symmetry_equiv_pos_as_xyz
  1  'x, y, z'
loop_
 _atom_site_type_symbol
 _atom_site_label
 _atom_site_symmetry_multiplicity
 _atom_site_fract_x
 _atom_site_fract_y
 _atom_site_fract_z
 _atom_site_occupancy
  In  In0  1  -0.02068286  0.17184865  0.13704407  1
  In  In1  1  0.01130385  0.18126121  0.62618988  1
  In  In2  1  0.01515857  0.49519028  0.14144705  1
  In  In3  1  -0.00308008  0.48984870  0.62022830  1
  In  In4  1  0.00154204  0.83223058  0.12808320  1
  In  In5  1  0.00304180  0.81547872  0.61882445  1
  In  In6  1  0.34154434  0.16200771  0.12815218  1
  In  In7  1  0.32490967  0.16446128  0.62791912  1
  In  In8  1  0.31021561  0.51710838  0.14386906  1
  In  In9  1  0.34664086  0.51143847  0.61037930  1
  In  In10  1  0.33059284  0.83267825  0.12642196  1
  In  In11  1  0.33143454  0.82495120  0.62535939  1
  In  In12  1  0.68097340  0.18226223  0.11864220  1
  In  In13  1  0.67531428  0.17260451  0.62501723  1
  In  In14  1  0.66717195  0.50618699  0.13953445  1
  In  In15  1  0.66015847  0.50500894  0.63081050  1
  In  In16  1  0.67158566  0.81072554  0.12276923  1
  In  In17  1  0.64682287  0.82345130  0.61740065  1
  In  In18  1  0.15838732  -0.00684534  0.36619824  1
  In  In19  1  0.16736805  -0.01812752  0.87770255  1
  In  In20  1  0.18486970  0.35240633  0.34845297  1
  In  In21  1  0.16622387  0.35023368  0.87910325  1
  In  In22  1  0.17217594  0.66705446  0.36859882  1
  In  In23  1  0.17591019  0.66501011  0.88811058  1
  In  In24  1  0.48611818  -0.00264662  0.37569427  1
  In  In25  1  0.50264669  0.01007269  0.87498098  1
  In  In26  1  0.51379398  0.35816859  0.37067979  1
  In  In27  1  0.50461364  0.32154168  0.87663826  1
  In  In28  1  0.49705983  0.66943548  0.37804440  1
  In  In29  1  0.49857164  0.66704848  0.87022004  1
  In  In30  1  0.84409222  0.00223214  0.36707567  1
  In  In31  1  0.83788046  -0.00127595  0.88931002  1
  In  In32  1  0.83618097  0.34485715  0.35869205  1
  In  In33  1  0.82870713  0.33021965  0.87542079  1
  In  In34  1  0.82212160  0.63979707  0.34912834  1
  In  In35  1  0.82819279  0.67581828  0.88271211  1
  In  In36  1  0.00764477  0.18668776  0.35485533  1
  In  In37  1  -0.01241323  0.16950911  0.88275759  1
  In  In38  1  0.02054899  0.51017453  0.34935571  1
  In  In39  1  0.01409444  0.50095588  0.87808564  1
  In  In40  1  0.00725309  0.83514956  0.36941569  1
  In  In41  1  0.00280304  0.83266186  0.88768761  1
  In  In42  1  0.32881051  0.15933193  0.36515684  1
  In  In43  1  0.35031582  0.16866754  0.87755670  1
  In  In44  1  0.32657329  0.50707286  0.36846878  1
  In  In45  1  0.32059808  0.50372429  0.87942805  1
  In  In46  1  0.33246388  0.83073816  0.37377505  1
  In  In47  1  0.32496785  0.82345595  0.86691955  1
  In  In48  1  0.66878288  0.18482064  0.37097824  1
  In  In49  1  0.66248688  0.16903236  0.88319209  1
  In  In50  1  0.65754473  0.49703106  0.37543931  1
  In  In51  1  0.66741720  0.49966744  0.86947001  1
  In  In52  1  0.66211623  0.81548122  0.37623949  1
  In  In53  1  0.67087471  0.83144235  0.87878807  1
  In  In54  1  0.17469250  -0.01358804  0.12885563  1
  In  In55  1  0.18243199  -0.00193232  0.63000329  1
  In  In56  1  0.16169823  0.34552781  0.13483680  1
  In  In57  1  0.15904719  0.33520733  0.62358133  1
  In  In58  1  0.16772127  0.66174161  0.12813889  1
  In  In59  1  0.17529305  0.67519158  0.61018949  1
  In  In60  1  0.48668765  0.00231459  0.12615211  1
  In  In61  1  0.49773265  -0.01879911  0.62198731  1
  In  In62  1  0.50732444  0.32994841  0.12969605  1
  In  In63  1  0.50602232  0.34952491  0.61787675  1
  In  In64  1  0.49858663  0.66397127  0.13267882  1
  In  In65  1  0.49585243  0.65906592  0.62359356  1
  In  In66  1  0.84278971  0.00664436  0.12164425  1
  In  In67  1  0.82798211  -0.00228352  0.62671371  1
  In  In68  1  0.84219784  0.33491446  0.14459667  1
  In  In69  1  0.83589176  0.33724558  0.63214453  1
  In  In70  1  0.82506227  0.67598495  0.13319385  1
  In  In71  1  0.82980048  0.65118121  0.62547716  1
  In  In72  1  0.49723997  0.83393236  0.00485096  1
  In  In73  1  0.66205435  0.00026902  0.75744457  1
  In  In74  1  0.49578972  0.50212201  0.00923439  1
  In  In75  1  0.83838655  0.82495314  0.49205861  1
  In  In76  1  0.33669161  0.33694240  0.74878792  1
  In  In77  1  -0.00019877  0.65992233  0.75170721  1
  In  In78  1  0.83084349  0.49866238  0.48914665  1
  In  In79  1  0.16670320  0.16648445  0.49904120  1
  In  In80  1  0.49937311  0.17202049  0.49660642  1
  In  In81  1  0.16431886  0.16428879  0.00892059  1
  In  In82  1  0.83823265  0.17284311  0.48087650  1
  In  In83  1  0.00159340  0.00462349  0.75502718  1
  In  In84  1  0.66658794  0.00109127  0.24450621  1
  In  In85  1  0.83612069  0.50350992  0.01163414  1
  Cu  Cu86  1  0.00546466  0.33905249  0.49396604  1
  Cu  Cu87  1  0.49670192  0.82991843  0.24948407  1
  Cu  Cu88  1  0.66933667  0.33173547  0.00395202  1
  Cu  Cu89  1  0.16853450  0.82933791  0.74912316  1
  Cu  Cu90  1  0.84026350  0.83316085  0.25061117  1
  Cu  Cu91  1  0.16726677  0.17089475  0.75091448  1
  Cu  Cu92  1  0.49563956  0.50264728  0.25384663  1
  Cu  Cu93  1  0.48930393  0.82387420  0.74359531  1
  Cu  Cu94  1  0.66690653  -0.00136781  0.49675896  1
  Cu  Cu95  1  0.33401116  0.00077790  0.00312060  1
  Cu  Cu96  1  0.00413411  0.66773482  0.00700990  1
  Cu  Cu97  1  0.33534969  0.33973925  0.00337288  1
  Cu  Cu98  1  0.82441785  0.83076658  0.75610175  1
  Cu  Cu99  1  0.33359083  0.34025456  0.48586882  1
  Cu  Cu100  1  0.83152071  0.49351760  0.75140057  1
  Cu  Cu101  1  0.33197119  -0.01427883  0.50145052  1
  Cu  Cu102  1  0.49915857  0.50155692  0.74656820  1
  Cu  Cu103  1  0.33162956  0.66594107  0.49449351  1
  Cu  Cu104  1  -0.00221117  -0.00074477  0.00772482  1
  Cu  Cu105  1  0.16803647  0.16145555  0.23930802  1
  Cu  Cu106  1  0.00778307  -0.00613747  0.49488263  1
  Cu  Cu107  1  0.66805191  -0.00040342  0.00270134  1
  Cu  Cu108  1  0.16953604  0.83111203  0.24958081  1
  Cu  Cu109  1  0.50442471  0.16644946  0.75238682  1
  Cu  Cu110  1  0.16837629  0.50360765  0.74968501  1
  Cu  Cu111  1  0.83471267  0.17545490  0.75427265  1
  Cu  Cu112  1  -0.00317511  0.33612550  0.01408634  1
  Cu  Cu113  1  0.00389345  0.66488365  0.48284286  1
  Cu  Cu114  1  0.49973057  0.16921181  0.25355695  1
  Se  Se115  1  0.07436284  0.07918057  0.07066639  1
  Se  Se116  1  0.07839747  0.07419825  0.56252878  1
  Se  Se117  1  0.08378775  0.42174483  0.05926067  1
  Se  Se118  1  0.08799893  0.41989596  0.54981647  1
  Se  Se119  1  0.08824054  0.75082151  0.06013122  1
  Se  Se120  1  0.08226200  0.74868351  0.54163710  1
  Se  Se121  1  0.41884427  0.08688068  0.05029016  1
  Se  Se122  1  0.40909125  0.07737806  0.55706161  1
  Se  Se123  1  0.40726531  0.41675682  0.07112003  1
  Se  Se124  1  0.41849137  0.41580269  0.54449981  1
  Se  Se125  1  0.40936628  0.73739593  0.05839516  1
  Se  Se126  1  0.41364008  0.74483717  0.55500835  1
  Se  Se127  1  0.75212730  0.08392760  0.05485998  1
  Se  Se128  1  0.75055671  0.08079840  0.55063723  1
  Se  Se129  1  0.74305469  0.41227941  0.06738347  1
  Se  Se130  1  0.75087879  0.41628575  0.56168214  1
  Se  Se131  1  0.75726316  0.74470077  0.04937326  1
  Se  Se132  1  0.74891353  0.74154823  0.55774148  1
  Se  Se133  1  0.25475614  0.25796173  0.06381870  1
  Se  Se134  1  0.26136097  0.26162690  0.55415028  1
  Se  Se135  1  0.24756151  0.57836124  0.05690129  1
  Se  Se136  1  0.24672979  0.57877556  0.54548066  1
  Se  Se137  1  0.25255950  0.91341254  0.05200201  1
  Se  Se138  1  0.24501603  0.90920244  0.55676726  1
  Se  Se139  1  0.58026255  0.24918447  0.05317998  1
  Se  Se140  1  0.59592265  0.25768589  0.55373739  1
  Se  Se141  1  0.59343924  0.59096114  0.06138295  1
  Se  Se142  1  0.57616392  0.57147009  0.55690760  1
  Se  Se143  1  0.59052114  0.92145262  0.06581466  1
  Se  Se144  1  0.58134455  0.91509354  0.54569807  1
  Se  Se145  1  0.90766670  0.25680932  0.06305845  1
  Se  Se146  1  0.92401646  0.25816970  0.55264472  1
  Se  Se147  1  0.92888114  0.58893297  0.07129213  1
  Se  Se148  1  0.92640400  0.59068017  0.55023469  1
  Se  Se149  1  0.91505624  0.91042532  0.05661497  1
  Se  Se150  1  0.92238123  0.92169457  0.55726538  1
  Se  Se151  1  0.08694898  0.25814421  0.43529442  1
  Se  Se152  1  0.07779909  0.26013318  0.94843639  1
  Se  Se153  1  0.08674745  0.57705837  0.43434827  1
  Se  Se154  1  0.08493062  0.58347777  0.95155873  1
  Se  Se155  1  0.09029036  0.91038270  0.44352890  1
  Se  Se156  1  0.08370983  0.91862239  0.95476369  1
  Se  Se157  1  0.41175272  0.25433070  0.43003308  1
  Se  Se158  1  0.41807600  0.25483242  0.95153418  1
  Se  Se159  1  0.41190708  0.58039633  0.44154749  1
  Se  Se160  1  0.41068608  0.59052661  0.94388006  1
  Se  Se161  1  0.41845508  0.90836563  0.44717937  1
  Se  Se162  1  0.41232703  0.92167414  0.93862291  1
  Se  Se163  1  0.74638157  0.27546362  0.44012614  1
  Se  Se164  1  0.75221521  0.24931348  0.94860868  1
  Se  Se165  1  0.74196061  0.59759057  0.43945834  1
  Se  Se166  1  0.74240554  0.58350252  0.94618523  1
  Se  Se167  1  0.74984256  0.92322659  0.43551414  1
  Se  Se168  1  0.74882170  0.91347934  0.94994864  1
  Se  Se169  1  0.25573641  0.07205947  0.44232746  1
  Se  Se170  1  0.25375432  0.08135294  0.94100029  1
  Se  Se171  1  0.24298849  0.41859104  0.43681003  1
  Se  Se172  1  0.24773269  0.42123004  0.95373005  1
  Se  Se173  1  0.24697218  0.74985635  0.44257993  1
  Se  Se174  1  0.24154358  0.76940947  0.94721530  1
  Se  Se175  1  0.59122406  0.08148856  0.43496830  1
  Se  Se176  1  0.58239833  0.08185959  0.95039365  1
  Se  Se177  1  0.57975727  0.42620285  0.45356924  1
  Se  Se178  1  0.58808775  0.41334798  0.94529254  1
  Se  Se179  1  0.57676931  0.75208159  0.44974244  1
  Se  Se180  1  0.58594902  0.74224815  0.94513372  1
  Se  Se181  1  0.93930705  0.08126679  0.43439181  1
  Se  Se182  1  0.91612449  0.08692628  0.95652635  1
  Se  Se183  1  0.92942575  0.41826088  0.43113517  1
  Se  Se184  1  0.92202501  0.41462000  0.94571424  1
  Se  Se185  1  0.91471526  0.73431973  0.42390165  1
  Se  Se186  1  0.91864334  0.74688718  0.95177957  1
  Se  Se187  1  0.25214663  0.24269366  0.29444234  1
  Se  Se188  1  0.24780638  0.24932160  0.81435829  1
  Se  Se189  1  0.23123560  0.56998147  0.29559493  1
  Se  Se190  1  0.24465128  0.58704199  0.80756160  1
  Se  Se191  1  0.25283917  0.91643375  0.30319960  1
  Se  Se192  1  0.24961489  0.91771454  0.79992831  1
  Se  Se193  1  0.58000112  0.25791455  0.30339151  1
  Se  Se194  1  0.58960548  0.24731092  0.80500213  1
  Se  Se195  1  0.57911081  0.58668564  0.30766363  1
  Se  Se196  1  0.58227110  0.58274247  0.80356919  1
  Se  Se197  1  0.57896356  0.91221108  0.30844189  1
  Se  Se198  1  0.56896015  0.90253236  0.80815860  1
  Se  Se199  1  0.89625620  0.23912352  0.29665241  1
  Se  Se200  1  0.92167571  0.25459388  0.80733575  1
  Se  Se201  1  0.92107470  0.57567965  0.28367776  1
  Se  Se202  1  0.90749331  0.57504044  0.81519995  1
  Se  Se203  1  0.92421137  0.91821597  0.30018773  1
  Se  Se204  1  0.91029793  0.90904927  0.81136207  1
  Se  Se205  1  0.08476947  0.08487478  0.29875413  1
  Se  Se206  1  0.09159608  0.09277388  0.81708929  1
  Se  Se207  1  0.05439202  0.37998213  0.30395812  1
  Se  Se208  1  0.08498340  0.41908278  0.80191749  1
  Se  Se209  1  0.08386043  0.74771775  0.30093591  1
  Se  Se210  1  0.08526559  0.75435046  0.81133172  1
  Se  Se211  1  0.41733144  0.07805850  0.29924447  1
  Se  Se212  1  0.41764937  0.08357849  0.80173075  1
  Se  Se213  1  0.41121328  0.41727867  0.30448258  1
  Se  Se214  1  0.42338901  0.42419770  0.81433630  1
  Se  Se215  1  0.41353447  0.74699298  0.30431553  1
  Se  Se216  1  0.40970629  0.74098277  0.80060720  1
  Se  Se217  1  0.75297374  0.09144157  0.30712204  1
  Se  Se218  1  0.76166725  0.08599064  0.81263341  1
  Se  Se219  1  0.74751052  0.43278595  0.30232158  1
  Se  Se220  1  0.74723501  0.41068256  0.80457744  1
  Se  Se221  1  0.75075480  0.75366103  0.30127016  1
  Se  Se222  1  0.74352893  0.74431491  0.80675860  1
  Se  Se223  1  0.25600454  0.07667786  0.19289425  1
  Se  Se224  1  0.25190736  0.08492228  0.70307589  1
  Se  Se225  1  0.26181164  0.40239775  0.20274187  1
  Se  Se226  1  0.24938915  0.42585966  0.68657921  1
  Se  Se227  1  0.25233913  0.74803560  0.19589409  1
  Se  Se228  1  0.24506688  0.74233013  0.69365879  1
  Se  Se229  1  0.57801769  0.09403984  0.18670346  1
  Se  Se230  1  0.57807078  0.08564613  0.68617424  1
  Se  Se231  1  0.57963379  0.41924105  0.20043181  1
  Se  Se232  1  0.58298978  0.41324046  0.69897756  1
  Se  Se233  1  0.58382212  0.74824034  0.19882642  1
  Se  Se234  1  0.57965602  0.74355321  0.69429143  1
  Se  Se235  1  0.91343638  0.07404840  0.20301507  1
  Se  Se236  1  0.91131987  0.09451313  0.69027268  1
  Se  Se237  1  0.90125428  0.44630395  0.20165633  1
  Se  Se238  1  0.92294431  0.41752471  0.69917380  1
  Se  Se239  1  0.92256846  0.74715494  0.19845525  1
  Se  Se240  1  0.90602220  0.75403034  0.69350916  1
  Se  Se241  1  0.08083663  0.24860881  0.19378688  1
  Se  Se242  1  0.08562649  0.25802619  0.70155758  1
  Se  Se243  1  0.11050112  0.56985107  0.20712906  1
  Se  Se244  1  0.08881156  0.57974752  0.68450944  1
  Se  Se245  1  0.08395802  0.91581447  0.19837205  1
  Se  Se246  1  0.08182656  0.90701479  0.69104474  1
  Se  Se247  1  0.41777750  0.25054482  0.19660689  1
  Se  Se248  1  0.42699878  0.24579417  0.68737836  1
  Se  Se249  1  0.41291606  0.58914948  0.20330985  1
  Se  Se250  1  0.41005201  0.58040129  0.69542067  1
  Se  Se251  1  0.41497612  0.91452269  0.19614096  1
  Se  Se252  1  0.41017950  0.91499693  0.69465973  1
  Se  Se253  1  0.74268475  0.25545004  0.20086225  1
  Se  Se254  1  0.75001416  0.25296409  0.69790643  1
  Se  Se255  1  0.74231175  0.59784146  0.20371437  1
  Se  Se256  1  0.74984597  0.58115850  0.70069184  1
  Se  Se257  1  0.75536092  0.90693465  0.18767550  1
  Se  Se258  1  0.74580296  0.90702013  0.69166813  1
