# generated using pymatgen
data_In86Cu29Se144
_symmetry_space_group_name_H-M   'P 1'
_cell_length_a   17.57755971
_cell_length_b   17.57861736
_cell_length_c   23.44189821
_cell_angle_alpha   89.98740207
_cell_angle_beta   89.96358781
_cell_angle_gamma   89.98753492
_symmetry_Int_Tables_number   1
_chemical_formula_structural   In86Cu29Se144
_chemical_formula_sum   'In86 Cu29 Se144'
_cell_volume   7243.29147631
_cell_formula_units_Z   1
loop_
 _symmetry_equiv_pos_site_id
 _symmetry_equiv_pos_as_xyz
  1  'x, y, z'
loop_
 _atom_site_type_symbol
 _atom_site_label
 _atom_site_symmetry_multiplicity
 _atom_site_fract_x
 _atom_site_fract_y
 _atom_site_fract_z
 _atom_site_occupancy
  In  In0  1  -0.00338341  0.16075371  0.13018241  1
  In  In1  1  -0.00926479  0.17039525  0.62080277  1
  In  In2  1  -0.00207072  0.50032482  0.12469780  1
  In  In3  1  -0.00239024  0.49718774  0.61911746  1
  In  In4  1  -0.00664934  0.83470220  0.12297759  1
  In  In5  1  -0.01045013  0.84289859  0.62293625  1
  In  In6  1  0.33382888  0.17061980  0.11798844  1
  In  In7  1  0.35976256  0.15644245  0.65130818  1
  In  In8  1  0.32921624  0.51160870  0.12072034  1
  In  In9  1  0.34848386  0.46525704  0.65016624  1
  In  In10  1  0.33776266  0.83741794  0.11292523  1
  In  In11  1  0.35408013  0.83752131  0.63593501  1
  In  In12  1  0.66853028  0.16611713  0.12577716  1
  In  In13  1  0.65843053  0.15806351  0.60934550  1
  In  In14  1  0.67579659  0.49233272  0.13170227  1
  In  In15  1  0.67772005  0.50746916  0.61988247  1
  In  In16  1  0.66435448  0.83166001  0.12520830  1
  In  In17  1  0.66860817  0.83036938  0.62936058  1
  In  In18  1  0.15904592  0.01415203  0.37012547  1
  In  In19  1  0.17849513  -0.00716789  0.88251816  1
  In  In20  1  0.15988347  0.34327466  0.37046929  1
  In  In21  1  0.16875950  0.32797274  0.88786735  1
  In  In22  1  0.16213749  0.67421244  0.36782043  1
  In  In23  1  0.16390369  0.66986445  0.88333824  1
  In  In24  1  0.52647563  0.00061686  0.38298630  1
  In  In25  1  0.50237322  0.00528354  0.88027407  1
  In  In26  1  0.51794449  0.31454392  0.39126593  1
  In  In27  1  0.48137915  0.33375511  0.86678943  1
  In  In28  1  0.50551901  0.65061827  0.38131765  1
  In  In29  1  0.52214641  0.65849550  0.87178561  1
  In  In30  1  0.82879539  -0.00081118  0.37185012  1
  In  In31  1  0.81516516  -0.00698937  0.87736552  1
  In  In32  1  0.83645579  0.33864228  0.37497667  1
  In  In33  1  0.84613743  0.33495039  0.88119816  1
  In  In34  1  0.82960549  0.66704711  0.37085469  1
  In  In35  1  0.82488759  0.67121238  0.88329968  1
  In  In36  1  -0.00970708  0.16366654  0.36495910  1
  In  In37  1  0.01008199  0.18369677  0.88415081  1
  In  In38  1  -0.01968919  0.48449884  0.35886196  1
  In  In39  1  -0.00336666  0.49035579  0.89296114  1
  In  In40  1  -0.01804666  0.81928344  0.35740737  1
  In  In41  1  -0.00174288  0.83305092  0.88927031  1
  In  In42  1  0.33883842  0.17431882  0.37893682  1
  In  In43  1  0.33850218  0.16476555  0.87663353  1
  In  In44  1  0.34070618  0.50315416  0.37711533  1
  In  In45  1  0.32806470  0.48691635  0.86492490  1
  In  In46  1  0.33142187  0.83440977  0.37454385  1
  In  In47  1  0.32937107  0.84711717  0.88159278  1
  In  In48  1  0.66820539  0.16817505  0.37556485  1
  In  In49  1  0.65510014  0.14637679  0.86839092  1
  In  In50  1  0.67096185  0.49882666  0.37542326  1
  In  In51  1  0.65943318  0.51316201  0.87243595  1
  In  In52  1  0.68487897  0.85312165  0.36257640  1
  In  In53  1  0.66874734  0.83116227  0.88355474  1
  In  In54  1  0.15559517  -0.00723734  0.11370032  1
  In  In55  1  0.17643460  0.01566665  0.62925692  1
  In  In56  1  0.14264876  0.31908647  0.10412833  1
  In  In57  1  0.18199235  0.33929531  0.63144829  1
  In  In58  1  0.15407582  0.65664203  0.11420231  1
  In  In59  1  0.16135489  0.65542704  0.62841534  1
  In  In60  1  0.51568333  0.00966409  0.10860685  1
  In  In61  1  0.50780813  0.00606536  0.63690703  1
  In  In62  1  0.51747158  0.32800658  0.12602381  1
  In  In63  1  0.49958120  0.33108716  0.62301341  1
  In  In64  1  0.50283721  0.67547022  0.12398930  1
  In  In65  1  0.52131874  0.67253726  0.62711288  1
  In  In66  1  0.83348491  -0.00177123  0.12757504  1
  In  In67  1  0.81286524  -0.01550149  0.60573839  1
  In  In68  1  0.82331395  0.33791482  0.13056644  1
  In  In69  1  0.83186793  0.32686737  0.60734913  1
  In  In70  1  0.83233823  0.66822071  0.12785716  1
  In  In71  1  0.82459349  0.65818505  0.61578967  1
  In  In72  1  0.00184665  -0.00002045  0.75421502  1
  In  In73  1  0.33367316  0.66888945  0.24697992  1
  In  In74  1  0.00338827  0.33616101  0.74969204  1
  In  In75  1  0.49495409  0.49614468  -0.00960668  1
  In  In76  1  0.33275713  -0.00065875  0.24732346  1
  In  In77  1  0.16184234  0.83273250  0.49943528  1
  In  In78  1  0.51051345  0.83310901  0.50453573  1
  In  In79  1  -0.00514132  0.65941676  0.74815359  1
  In  In80  1  0.33811305  0.67114223  0.76169767  1
  In  In81  1  0.16317590  0.16861741  0.49897139  1
  In  In82  1  0.32925104  0.33699636  0.25122955  1
  In  In83  1  0.66443133  0.32975703  0.74979244  1
  In  In84  1  0.15992938  0.49636428  0.50011858  1
  In  In85  1  0.82915688  0.16109815  0.00033975  1
  Cu  Cu86  1  0.50764770  0.16086510  0.25124438  1
  Cu  Cu87  1  0.83057876  0.16030412  0.74602726  1
  Cu  Cu88  1  -0.00910670  0.66480100  0.49154440  1
  Cu  Cu89  1  0.33739110  0.00898445  -0.00204856  1
  Cu  Cu90  1  0.67005809  0.66145775  0.00451231  1
  Cu  Cu91  1  0.66749848  0.32599390  -0.00076694  1
  Cu  Cu92  1  0.66826974  0.34205734  0.49632378  1
  Cu  Cu93  1  0.15523069  0.83289542  0.23717662  1
  Cu  Cu94  1  0.15262791  0.16636945  0.24251611  1
  Cu  Cu95  1  -0.01003295  -0.00720068  0.49131344  1
  Cu  Cu96  1  0.83372787  0.50599939  0.24876570  1
  Cu  Cu97  1  0.34308998  0.00194214  0.51307500  1
  Cu  Cu98  1  0.82604635  0.17130670  0.25165544  1
  Cu  Cu99  1  0.17659524  0.17038985  0.75816703  1
  Cu  Cu100  1  -0.00093260  0.00445592  0.00367838  1
  Cu  Cu101  1  -0.00657652  0.66867314  0.00666295  1
  Cu  Cu102  1  0.82931359  0.50385672  0.74870121  1
  Cu  Cu103  1  0.16986667  0.83194095  0.75580783  1
  Cu  Cu104  1  0.33373222  0.33503036  -0.00295875  1
  Cu  Cu105  1  0.67171353  0.67025756  0.49659406  1
  Cu  Cu106  1  0.50976516  0.83282955  0.24774738  1
  Cu  Cu107  1  0.33752943  0.32669455  0.51039738  1
  Cu  Cu108  1  0.51192961  0.49426883  0.25572086  1
  Cu  Cu109  1  0.83124459  0.83488142  0.24512881  1
  Cu  Cu110  1  0.82220517  0.83100626  0.75243840  1
  Cu  Cu111  1  0.33362585  0.65041648  0.50579284  1
  Cu  Cu112  1  0.51056312  0.84539992  0.75727736  1
  Cu  Cu113  1  0.33243351  0.67188742  -0.00754842  1
  Cu  Cu114  1  0.15879625  0.49878001  0.23991750  1
  Se  Se115  1  0.08036065  0.09263313  0.05315767  1
  Se  Se116  1  0.07358277  0.06757187  0.55516841  1
  Se  Se117  1  0.10377237  0.44457979  0.05830092  1
  Se  Se118  1  0.07970415  0.39652527  0.55947133  1
  Se  Se119  1  0.08067207  0.75594058  0.05352184  1
  Se  Se120  1  0.07180529  0.73838144  0.55868008  1
  Se  Se121  1  0.42074453  0.09273800  0.05037750  1
  Se  Se122  1  0.42272371  0.08600093  0.56587527  1
  Se  Se123  1  0.41440874  0.40925823  0.06251610  1
  Se  Se124  1  0.41513103  0.42122586  0.55781150  1
  Se  Se125  1  0.41856627  0.74545019  0.05000671  1
  Se  Se126  1  0.41171739  0.74159911  0.55986739  1
  Se  Se127  1  0.73832634  0.06898522  0.05505599  1
  Se  Se128  1  0.77895468  0.11088362  0.55797635  1
  Se  Se129  1  0.74422648  0.41265080  0.05361334  1
  Se  Se130  1  0.75463612  0.42442536  0.54813611  1
  Se  Se131  1  0.74919075  0.74830627  0.05693482  1
  Se  Se132  1  0.74892766  0.75550361  0.55381495  1
  Se  Se133  1  0.25000718  0.24952346  0.04868085  1
  Se  Se134  1  0.25777640  0.24198008  0.56686996  1
  Se  Se135  1  0.25164820  0.58795997  0.04733801  1
  Se  Se136  1  0.25438291  0.57349142  0.56623575  1
  Se  Se137  1  0.25249066  0.92230388  0.04874448  1
  Se  Se138  1  0.25748459  0.91723676  0.56436276  1
  Se  Se139  1  0.58454220  0.24303219  0.05179542  1
  Se  Se140  1  0.58560064  0.25924058  0.55099163  1
  Se  Se141  1  0.58349231  0.57788625  0.05928114  1
  Se  Se142  1  0.58870804  0.58891648  0.55191625  1
  Se  Se143  1  0.56225646  0.89014129  0.05729989  1
  Se  Se144  1  0.59411239  0.92934234  0.56127206  1
  Se  Se145  1  0.91222042  0.25142498  0.06287806  1
  Se  Se146  1  0.92873561  0.25356118  0.54513168  1
  Se  Se147  1  0.91136369  0.58311930  0.05786214  1
  Se  Se148  1  0.91637604  0.57972134  0.55104844  1
  Se  Se149  1  0.91363186  0.92118967  0.05380153  1
  Se  Se150  1  0.90982551  0.90634704  0.54428761  1
  Se  Se151  1  0.07668474  0.25473322  0.43567495  1
  Se  Se152  1  0.07226190  0.26838640  0.95889034  1
  Se  Se153  1  0.07764180  0.58708876  0.43453256  1
  Se  Se154  1  0.07771674  0.58871269  0.94955841  1
  Se  Se155  1  0.07691285  0.91720653  0.43183749  1
  Se  Se156  1  0.08431725  0.92065594  0.94981001  1
  Se  Se157  1  0.41891325  0.24255742  0.45530880  1
  Se  Se158  1  0.41963001  0.25241315  0.94620319  1
  Se  Se159  1  0.42160089  0.57378879  0.45242314  1
  Se  Se160  1  0.40813474  0.59058277  0.93133489  1
  Se  Se161  1  0.41282875  0.92113497  0.44451046  1
  Se  Se162  1  0.41998097  0.91917032  0.94997577  1
  Se  Se163  1  0.74898705  0.25744472  0.44195872  1
  Se  Se164  1  0.74205953  0.24822132  0.93272297  1
  Se  Se165  1  0.75358219  0.58430984  0.44393586  1
  Se  Se166  1  0.74742239  0.57641037  0.94752875  1
  Se  Se167  1  0.74310080  0.92686489  0.44502784  1
  Se  Se168  1  0.76198740  0.90215879  0.95222744  1
  Se  Se169  1  0.26002939  0.07220727  0.44503396  1
  Se  Se170  1  0.24850759  0.09008966  0.94720852  1
  Se  Se171  1  0.25945243  0.40427947  0.44410960  1
  Se  Se172  1  0.25277901  0.42359757  0.94734668  1
  Se  Se173  1  0.25898843  0.73601954  0.44492535  1
  Se  Se174  1  0.24565504  0.75923964  0.94647051  1
  Se  Se175  1  0.57700908  0.10213614  0.44971908  1
  Se  Se176  1  0.58831880  0.08101125  0.95139146  1
  Se  Se177  1  0.58022579  0.42619524  0.44680700  1
  Se  Se178  1  0.58882593  0.40473185  0.93480677  1
  Se  Se179  1  0.59312638  0.75110574  0.43449703  1
  Se  Se180  1  0.58486420  0.74120230  0.94956758  1
  Se  Se181  1  0.91543546  0.08376629  0.43934600  1
  Se  Se182  1  0.92295795  0.07714758  0.93484499  1
  Se  Se183  1  0.92199775  0.41861071  0.44451097  1
  Se  Se184  1  0.90718960  0.41613634  0.95898994  1
  Se  Se185  1  0.91184620  0.75337119  0.44079186  1
  Se  Se186  1  0.91004835  0.75076785  0.95211152  1
  Se  Se187  1  0.23770226  0.23820445  0.30694633  1
  Se  Se188  1  0.25244935  0.25611096  0.81392974  1
  Se  Se189  1  0.24272102  0.57119240  0.30487494  1
  Se  Se190  1  0.23511659  0.58244237  0.80813759  1
  Se  Se191  1  0.23531679  0.90680523  0.30418358  1
  Se  Se192  1  0.25221206  0.91980092  0.80347621  1
  Se  Se193  1  0.58311115  0.25134957  0.30508286  1
  Se  Se194  1  0.57007389  0.24039675  0.80518209  1
  Se  Se195  1  0.58910013  0.58564850  0.30543203  1
  Se  Se196  1  0.58246230  0.57732671  0.79263795  1
  Se  Se197  1  0.58512075  0.92488020  0.29912588  1
  Se  Se198  1  0.59332143  0.92176671  0.81488297  1
  Se  Se199  1  0.91366937  0.25575230  0.30006305  1
  Se  Se200  1  0.91170848  0.23917439  0.80560411  1
  Se  Se201  1  0.91795600  0.59178199  0.29970362  1
  Se  Se202  1  0.91069235  0.57397608  0.81509866  1
  Se  Se203  1  0.91315266  0.92216307  0.29811027  1
  Se  Se204  1  0.91233849  0.90487236  0.81023902  1
  Se  Se205  1  0.07372257  0.07963113  0.29572667  1
  Se  Se206  1  0.08973190  0.09243286  0.81461222  1
  Se  Se207  1  0.07956665  0.41270449  0.29489161  1
  Se  Se208  1  0.08511075  0.42071841  0.81727283  1
  Se  Se209  1  0.08028372  0.74596209  0.29440151  1
  Se  Se210  1  0.08145734  0.75574713  0.80900308  1
  Se  Se211  1  0.42229658  0.08548385  0.31212347  1
  Se  Se212  1  0.41478077  0.07730572  0.80856224  1
  Se  Se213  1  0.42740256  0.41531942  0.31316776  1
  Se  Se214  1  0.43867315  0.44322509  0.80115392  1
  Se  Se215  1  0.42709758  0.75534939  0.31018815  1
  Se  Se216  1  0.43023635  0.76319968  0.81745452  1
  Se  Se217  1  0.74575453  0.08484688  0.30393950  1
  Se  Se218  1  0.75006206  0.07717848  0.80029752  1
  Se  Se219  1  0.75341198  0.42047398  0.30404239  1
  Se  Se220  1  0.75750524  0.41836094  0.81135198  1
  Se  Se221  1  0.74920782  0.75047909  0.29979825  1
  Se  Se222  1  0.74485660  0.74600722  0.80852024  1
  Se  Se223  1  0.24188913  0.08896813  0.18652499  1
  Se  Se224  1  0.25603166  0.08026649  0.70736551  1
  Se  Se225  1  0.24420757  0.41987187  0.18375149  1
  Se  Se226  1  0.23786956  0.41945981  0.71208446  1
  Se  Se227  1  0.24583347  0.75487759  0.18302043  1
  Se  Se228  1  0.24560221  0.75375880  0.69072735  1
  Se  Se229  1  0.58394060  0.07880589  0.19215865  1
  Se  Se230  1  0.59423701  0.09600917  0.69579600  1
  Se  Se231  1  0.58993584  0.40962368  0.19956400  1
  Se  Se232  1  0.58605307  0.42442787  0.68632803  1
  Se  Se233  1  0.58821670  0.74282655  0.19805999  1
  Se  Se234  1  0.58668292  0.75591616  0.70360587  1
  Se  Se235  1  0.90822180  0.08535117  0.19818965  1
  Se  Se236  1  0.91275334  0.07903747  0.68771229  1
  Se  Se237  1  0.91376090  0.41906576  0.19456474  1
  Se  Se238  1  0.90525060  0.41905415  0.68915802  1
  Se  Se239  1  0.91758315  0.75104891  0.19556803  1
  Se  Se240  1  0.90683140  0.75587459  0.69098737  1
  Se  Se241  1  0.07709416  0.25761927  0.19184335  1
  Se  Se242  1  0.09195629  0.23847413  0.69182012  1
  Se  Se243  1  0.07775024  0.59034328  0.19454877  1
  Se  Se244  1  0.08779731  0.56181611  0.69707311  1
  Se  Se245  1  0.07479334  0.92401625  0.19085383  1
  Se  Se246  1  0.09364854  0.91097110  0.69002663  1
  Se  Se247  1  0.42280876  0.24284030  0.19484296  1
  Se  Se248  1  0.40516490  0.27884578  0.69929222  1
  Se  Se249  1  0.42918924  0.57239387  0.19457670  1
  Se  Se250  1  0.41619448  0.59325883  0.68610804  1
  Se  Se251  1  0.42320165  0.91050790  0.18899866  1
  Se  Se252  1  0.42188586  0.92567426  0.70653268  1
  Se  Se253  1  0.74129817  0.25205648  0.19747380  1
  Se  Se254  1  0.75898715  0.24879769  0.68746917  1
  Se  Se255  1  0.74690939  0.58713529  0.19753967  1
  Se  Se256  1  0.74966640  0.59006776  0.69639780  1
  Se  Se257  1  0.74557596  0.91759610  0.19389009  1
  Se  Se258  1  0.75077526  0.92060946  0.69443955  1
