# generated using pymatgen
data_In86Cu29Se144
_symmetry_space_group_name_H-M   'P 1'
_cell_length_a   17.58537469
_cell_length_b   17.58568034
_cell_length_c   23.44756665
_cell_angle_alpha   89.99159558
_cell_angle_beta   90.01687179
_cell_angle_gamma   89.99682306
_symmetry_Int_Tables_number   1
_chemical_formula_structural   In86Cu29Se144
_chemical_formula_sum   'In86 Cu29 Se144'
_cell_volume   7251.17782648
_cell_formula_units_Z   1
loop_
 _symmetry_equiv_pos_site_id
 _symmetry_equiv_pos_as_xyz
  1  'x, y, z'
loop_
 _atom_site_type_symbol
 _atom_site_label
 _atom_site_symmetry_multiplicity
 _atom_site_fract_x
 _atom_site_fract_y
 _atom_site_fract_z
 _atom_site_occupancy
  In  In0  1  0.01718405  0.14477416  0.14720766  1
  In  In1  1  0.00002609  0.16566627  0.62128588  1
  In  In2  1  -0.01141931  0.49634654  0.12624166  1
  In  In3  1  0.00275146  0.52126245  0.62204818  1
  In  In4  1  0.02429230  0.85561275  0.10023568  1
  In  In5  1  -0.01458071  0.81663597  0.61629671  1
  In  In6  1  0.32969570  0.16309568  0.12667036  1
  In  In7  1  0.34097031  0.14697462  0.62338106  1
  In  In8  1  0.34406197  0.49740196  0.12959282  1
  In  In9  1  0.35241821  0.50923696  0.62362752  1
  In  In10  1  0.32297448  0.84163768  0.13404951  1
  In  In11  1  0.33300383  0.83589686  0.62164206  1
  In  In12  1  0.68208143  0.17089071  0.13500845  1
  In  In13  1  0.65523036  0.17544408  0.62757854  1
  In  In14  1  0.66393225  0.50376784  0.13167827  1
  In  In15  1  0.65131581  0.49052881  0.61925208  1
  In  In16  1  0.66465693  0.82168611  0.12573119  1
  In  In17  1  0.67861055  0.84173070  0.62138695  1
  In  In18  1  0.16348711  -0.00374067  0.37143892  1
  In  In19  1  0.18936804  -0.02746790  0.90349223  1
  In  In20  1  0.16471253  0.32743461  0.36488554  1
  In  In21  1  0.15954184  0.32902252  0.88369477  1
  In  In22  1  0.18420326  0.67191859  0.36927388  1
  In  In23  1  0.18858371  0.69112896  0.86727099  1
  In  In24  1  0.48852590  0.00639013  0.39129269  1
  In  In25  1  0.49737304  -0.00507244  0.86333378  1
  In  In26  1  0.49825645  0.33314870  0.37344691  1
  In  In27  1  0.51260824  0.33737652  0.87620152  1
  In  In28  1  0.49791756  0.66848214  0.37916724  1
  In  In29  1  0.48451576  0.66348458  0.87207014  1
  In  In30  1  0.83581428  -0.00975107  0.37324614  1
  In  In31  1  0.82717602  -0.00112139  0.87513666  1
  In  In32  1  0.84055530  0.34306570  0.36742928  1
  In  In33  1  0.82662660  0.33919831  0.87338145  1
  In  In34  1  0.81901092  0.67774367  0.38054324  1
  In  In35  1  0.84663379  0.66893172  0.86458139  1
  In  In36  1  -0.00554284  0.16712036  0.36179573  1
  In  In37  1  0.00890703  0.16181632  0.88478612  1
  In  In38  1  -0.00413624  0.49030891  0.37166497  1
  In  In39  1  -0.01037898  0.50011088  0.87398974  1
  In  In40  1  -0.00836981  0.84464241  0.37662083  1
  In  In41  1  0.00817081  0.83446059  0.87960443  1
  In  In42  1  0.33827440  0.16576008  0.37057896  1
  In  In43  1  0.33210411  0.15355661  0.87726905  1
  In  In44  1  0.34381709  0.50706881  0.36948874  1
  In  In45  1  0.34079345  0.52248890  0.87794137  1
  In  In46  1  0.33508026  0.83526678  0.37783350  1
  In  In47  1  0.33287783  0.82896745  0.87052652  1
  In  In48  1  0.65052567  0.16180907  0.37411058  1
  In  In49  1  0.66314580  0.16465876  0.86803152  1
  In  In50  1  0.66169391  0.50559772  0.37875226  1
  In  In51  1  0.66693131  0.48846955  0.87163735  1
  In  In52  1  0.66930070  0.82802681  0.38000706  1
  In  In53  1  0.66488083  0.84401418  0.86882024  1
  In  In54  1  0.16993590  -0.00204427  0.12143996  1
  In  In55  1  0.19038450  -0.01569918  0.63169615  1
  In  In56  1  0.18048719  0.31964114  0.13263487  1
  In  In57  1  0.16405828  0.32944644  0.62416848  1
  In  In58  1  0.17235628  0.68050857  0.12287744  1
  In  In59  1  0.16060766  0.68262391  0.63001584  1
  In  In60  1  0.48900060  -0.01406846  0.12827510  1
  In  In61  1  0.49936121  0.00008412  0.62018845  1
  In  In62  1  0.49260527  0.33950370  0.13520391  1
  In  In63  1  0.51166912  0.34771460  0.61520710  1
  In  In64  1  0.51255415  0.66196300  0.13439470  1
  In  In65  1  0.48733632  0.65636036  0.62140545  1
  In  In66  1  0.86291806  -0.00031009  0.12377667  1
  In  In67  1  0.82967635  -0.02154734  0.62470905  1
  In  In68  1  0.83661473  0.31965568  0.14935276  1
  In  In69  1  0.81100176  0.33353964  0.62364887  1
  In  In70  1  0.82634333  0.67087099  0.12474393  1
  In  In71  1  0.84113189  0.67667331  0.61771021  1
  In  In72  1  0.66648379  -0.00038710  0.25431067  1
  In  In73  1  0.17192541  0.16241243  0.49077785  1
  In  In74  1  0.16732253  0.50523653  0.49208824  1
  In  In75  1  0.33847030  0.34078928  0.74524393  1
  In  In76  1  -0.00840217  0.33558154  0.75919098  1
  In  In77  1  0.49084026  0.82443490  -0.00259475  1
  In  In78  1  0.00223138  -0.00023936  0.75293736  1
  In  In79  1  -0.00027171  0.66895696  0.24198876  1
  In  In80  1  0.66368304  0.66375240  0.74268981  1
  In  In81  1  0.49492251  0.16620860  0.01041141  1
  In  In82  1  0.82728113  0.50088924  0.00116439  1
  In  In83  1  0.82711628  0.16380159  0.49015930  1
  In  In84  1  0.83534064  0.16496189  0.00646598  1
  In  In85  1  0.16978987  0.50361486  0.00028426  1
  Cu  Cu86  1  0.01214344  -0.00629862  0.50289746  1
  Cu  Cu87  1  0.17019358  0.16311354  0.75483473  1
  Cu  Cu88  1  0.49853125  0.83736886  0.74311321  1
  Cu  Cu89  1  0.83803820  0.83643987  0.24834277  1
  Cu  Cu90  1  0.66533777  0.33957192  0.00463037  1
  Cu  Cu91  1  0.33237107  0.67047790  0.49873708  1
  Cu  Cu92  1  0.82369443  0.15910197  0.74961012  1
  Cu  Cu93  1  0.49469982  0.16355280  0.25221082  1
  Cu  Cu94  1  0.00479641  0.32385964  0.00943979  1
  Cu  Cu95  1  0.17068183  0.16094329  0.25025591  1
  Cu  Cu96  1  0.66008866  0.33936744  0.49671349  1
  Cu  Cu97  1  0.50197779  0.50114347  0.25622591  1
  Cu  Cu98  1  0.49421294  0.82870826  0.25612938  1
  Cu  Cu99  1  0.16955649  0.51322497  0.74860413  1
  Cu  Cu100  1  0.49973862  0.16633535  0.74732566  1
  Cu  Cu101  1  0.82924275  0.49748495  0.74524401  1
  Cu  Cu102  1  0.33749159  0.33409620  0.00756370  1
  Cu  Cu103  1  0.16562761  0.83839652  0.24735438  1
  Cu  Cu104  1  0.17145911  0.49488802  0.24895813  1
  Cu  Cu105  1  0.16678365  0.83658294  0.75223105  1
  Cu  Cu106  1  0.66533022  -0.00139734  -0.00471064  1
  Cu  Cu107  1  0.66307474  0.66676501  0.50430480  1
  Cu  Cu108  1  -0.00311210  0.67042899  0.49608480  1
  Cu  Cu109  1  0.00474197  0.67272731  -0.00971670  1
  Cu  Cu110  1  0.82650000  0.50641233  0.25166739  1
  Cu  Cu111  1  0.33922030  0.33006877  0.49596609  1
  Cu  Cu112  1  0.66250991  0.66285126  0.00174778  1
  Cu  Cu113  1  -0.00906850  0.33896040  0.49497945  1
  Cu  Cu114  1  0.66723747  -0.00171163  0.50056031  1
  Se  Se115  1  0.07219299  0.07777932  0.06129158  1
  Se  Se116  1  0.08873057  0.07650773  0.56190942  1
  Se  Se117  1  0.08305681  0.41206185  0.06382223  1
  Se  Se118  1  0.07701215  0.41288456  0.55532437  1
  Se  Se119  1  0.09329660  0.74813309  0.04459450  1
  Se  Se120  1  0.08398269  0.74987503  0.54958992  1
  Se  Se121  1  0.40433407  0.06572309  0.05619912  1
  Se  Se122  1  0.42091069  0.08186568  0.54759743  1
  Se  Se123  1  0.42352681  0.41722091  0.05604086  1
  Se  Se124  1  0.41498045  0.41938382  0.54966130  1
  Se  Se125  1  0.41483773  0.74644027  0.07218933  1
  Se  Se126  1  0.41684682  0.75024841  0.55403795  1
  Se  Se127  1  0.74244690  0.07183043  0.06245146  1
  Se  Se128  1  0.74746628  0.08020621  0.56165878  1
  Se  Se129  1  0.75323824  0.40681330  0.06783871  1
  Se  Se130  1  0.74620482  0.42019181  0.54958903  1
  Se  Se131  1  0.74649380  0.74844080  0.05100736  1
  Se  Se132  1  0.75124121  0.75271360  0.55039326  1
  Se  Se133  1  0.25307920  0.24676179  0.05349832  1
  Se  Se134  1  0.25686429  0.25374105  0.55694751  1
  Se  Se135  1  0.26056978  0.58864619  0.06071108  1
  Se  Se136  1  0.25073934  0.59005137  0.56014844  1
  Se  Se137  1  0.24922456  0.90959117  0.05436825  1
  Se  Se138  1  0.24984111  0.91293383  0.54913178  1
  Se  Se139  1  0.59226911  0.25410008  0.06528013  1
  Se  Se140  1  0.58172507  0.25011146  0.54950219  1
  Se  Se141  1  0.58388480  0.58024084  0.05731333  1
  Se  Se142  1  0.57659123  0.58128653  0.55190948  1
  Se  Se143  1  0.58569529  0.91824017  0.05596727  1
  Se  Se144  1  0.58573857  0.91430832  0.55430175  1
  Se  Se145  1  0.92105818  0.25211523  0.07042385  1
  Se  Se146  1  0.91578582  0.25491914  0.55592391  1
  Se  Se147  1  0.92574985  0.59435869  0.05322614  1
  Se  Se148  1  0.91517464  0.58445293  0.54791449  1
  Se  Se149  1  0.89930865  0.89756845  0.05200859  1
  Se  Se150  1  0.91784876  0.91560552  0.54995613  1
  Se  Se151  1  0.07188794  0.25500236  0.43984083  1
  Se  Se152  1  0.08848269  0.24349667  0.95570363  1
  Se  Se153  1  0.07636927  0.59482502  0.43169360  1
  Se  Se154  1  0.08207976  0.58684696  0.93315279  1
  Se  Se155  1  0.08884071  0.91171911  0.44419240  1
  Se  Se156  1  0.07162748  0.92113042  0.95442314  1
  Se  Se157  1  0.41908090  0.24495893  0.44260289  1
  Se  Se158  1  0.41454894  0.25586444  0.94112003  1
  Se  Se159  1  0.41419390  0.58273313  0.44801700  1
  Se  Se160  1  0.42151017  0.58880353  0.95407288  1
  Se  Se161  1  0.43224155  0.89590094  0.44852561  1
  Se  Se162  1  0.41225296  0.92586892  0.93990169  1
  Se  Se163  1  0.73986803  0.26007020  0.43481244  1
  Se  Se164  1  0.74156471  0.25478623  0.94453969  1
  Se  Se165  1  0.74735682  0.58573291  0.44851789  1
  Se  Se166  1  0.74526175  0.59095853  0.93525698  1
  Se  Se167  1  0.75170631  0.91830116  0.44538813  1
  Se  Se168  1  0.74785305  0.91366408  0.94458724  1
  Se  Se169  1  0.26329572  0.06885242  0.43986636  1
  Se  Se170  1  0.23975172  0.09620647  0.94900680  1
  Se  Se171  1  0.25404332  0.40757669  0.43677317  1
  Se  Se172  1  0.26149159  0.41215067  0.94023305  1
  Se  Se173  1  0.24742620  0.75290468  0.44726285  1
  Se  Se174  1  0.25836283  0.75573470  0.94926855  1
  Se  Se175  1  0.58329221  0.08606099  0.45329923  1
  Se  Se176  1  0.58145195  0.07994660  0.94131457  1
  Se  Se177  1  0.57446317  0.42075675  0.44378253  1
  Se  Se178  1  0.58498781  0.42215174  0.95003324  1
  Se  Se179  1  0.58213733  0.75062106  0.44844799  1
  Se  Se180  1  0.58883616  0.74352616  0.93570227  1
  Se  Se181  1  0.93137134  0.07565896  0.44239032  1
  Se  Se182  1  0.92110988  0.07194977  0.94665571  1
  Se  Se183  1  0.90807330  0.42462914  0.44614986  1
  Se  Se184  1  0.92422226  0.40302945  0.94835537  1
  Se  Se185  1  0.91351513  0.75550996  0.44340039  1
  Se  Se186  1  0.91332168  0.75041823  0.94099306  1
  Se  Se187  1  0.25396184  0.24651907  0.30167824  1
  Se  Se188  1  0.24710469  0.25305102  0.80899766  1
  Se  Se189  1  0.25328966  0.58096207  0.30027510  1
  Se  Se190  1  0.25581708  0.59014234  0.80304343  1
  Se  Se191  1  0.25088487  0.91436842  0.30562676  1
  Se  Se192  1  0.24664939  0.92039372  0.80947156  1
  Se  Se193  1  0.57888020  0.24810710  0.30259737  1
  Se  Se194  1  0.58077946  0.25061831  0.80255162  1
  Se  Se195  1  0.58270231  0.58937183  0.30767811  1
  Se  Se196  1  0.57838936  0.57773626  0.80813011  1
  Se  Se197  1  0.57566936  0.91309155  0.31437627  1
  Se  Se198  1  0.58472043  0.91910905  0.79477301  1
  Se  Se199  1  0.91619521  0.25658202  0.29931199  1
  Se  Se200  1  0.90595576  0.23350918  0.81400326  1
  Se  Se201  1  0.91036465  0.58755683  0.30953633  1
  Se  Se202  1  0.91802636  0.57649208  0.79644513  1
  Se  Se203  1  0.92136578  0.92285827  0.29789832  1
  Se  Se204  1  0.91153337  0.90903699  0.80890067  1
  Se  Se205  1  0.08277172  0.08000483  0.30179017  1
  Se  Se206  1  0.09452531  0.08181428  0.81541673  1
  Se  Se207  1  0.08273798  0.41718732  0.30133296  1
  Se  Se208  1  0.09498678  0.42640094  0.80843202  1
  Se  Se209  1  0.08526115  0.75644849  0.30765742  1
  Se  Se210  1  0.08286921  0.75272034  0.80518698  1
  Se  Se211  1  0.42010729  0.07425264  0.30669871  1
  Se  Se212  1  0.41434512  0.08570229  0.80105132  1
  Se  Se213  1  0.41477153  0.41330082  0.30226949  1
  Se  Se214  1  0.42189611  0.42522928  0.81238279  1
  Se  Se215  1  0.41053689  0.74452509  0.30820283  1
  Se  Se216  1  0.41888452  0.75394574  0.79952146  1
  Se  Se217  1  0.75688820  0.09129312  0.31238997  1
  Se  Se218  1  0.74339650  0.07545301  0.80386892  1
  Se  Se219  1  0.74556777  0.42450526  0.30778229  1
  Se  Se220  1  0.74828307  0.41214314  0.79798830  1
  Se  Se221  1  0.75152997  0.75787093  0.30229991  1
  Se  Se222  1  0.75190612  0.75336135  0.80353931  1
  Se  Se223  1  0.25148527  0.07664699  0.19540196  1
  Se  Se224  1  0.25291586  0.08381299  0.69896862  1
  Se  Se225  1  0.25722550  0.41406623  0.19550315  1
  Se  Se226  1  0.24094194  0.42878699  0.68582156  1
  Se  Se227  1  0.24938108  0.74769411  0.20221646  1
  Se  Se228  1  0.25251185  0.75607462  0.69668924  1
  Se  Se229  1  0.57460555  0.08551821  0.18862135  1
  Se  Se230  1  0.58160885  0.08165533  0.69290013  1
  Se  Se231  1  0.58385576  0.41814099  0.19987578  1
  Se  Se232  1  0.58116018  0.41475817  0.69713101  1
  Se  Se233  1  0.58590839  0.75340350  0.20363494  1
  Se  Se234  1  0.57652991  0.75570707  0.68255249  1
  Se  Se235  1  0.89202931  0.10380554  0.19591213  1
  Se  Se236  1  0.90917566  0.08814720  0.68889350  1
  Se  Se237  1  0.91564073  0.42282912  0.20333456  1
  Se  Se238  1  0.91459014  0.41808509  0.68470326  1
  Se  Se239  1  0.91785468  0.76366224  0.18205413  1
  Se  Se240  1  0.91703685  0.74536123  0.69643285  1
  Se  Se241  1  0.08681958  0.25228052  0.20222091  1
  Se  Se242  1  0.08528363  0.24241834  0.69863757  1
  Se  Se243  1  0.09337059  0.57496853  0.18600717  1
  Se  Se244  1  0.08142438  0.59262457  0.69732176  1
  Se  Se245  1  0.08072076  0.91692835  0.19102031  1
  Se  Se246  1  0.08318760  0.90806240  0.68756344  1
  Se  Se247  1  0.41262132  0.24523760  0.19585737  1
  Se  Se248  1  0.42314169  0.24763833  0.68450922  1
  Se  Se249  1  0.42067018  0.58375704  0.19980255  1
  Se  Se250  1  0.41733773  0.58512437  0.70262354  1
  Se  Se251  1  0.41213821  0.91583521  0.20524912  1
  Se  Se252  1  0.41375520  0.92146993  0.69126063  1
  Se  Se253  1  0.73142803  0.26136843  0.21152528  1
  Se  Se254  1  0.74525319  0.24889076  0.69863022  1
  Se  Se255  1  0.74775513  0.59124518  0.19660892  1
  Se  Se256  1  0.75443544  0.57607743  0.68118655  1
  Se  Se257  1  0.75411861  0.91559096  0.18752651  1
  Se  Se258  1  0.75062953  0.91299285  0.70154903  1
