# generated using pymatgen
data_In86Cu29Se144
_symmetry_space_group_name_H-M   'P 1'
_cell_length_a   17.58720802
_cell_length_b   17.58815520
_cell_length_c   23.44757352
_cell_angle_alpha   90.00243966
_cell_angle_beta   89.99777330
_cell_angle_gamma   90.03737588
_symmetry_Int_Tables_number   1
_chemical_formula_structural   In86Cu29Se144
_chemical_formula_sum   'In86 Cu29 Se144'
_cell_volume   7252.95533494
_cell_formula_units_Z   1
loop_
 _symmetry_equiv_pos_site_id
 _symmetry_equiv_pos_as_xyz
  1  'x, y, z'
loop_
 _atom_site_type_symbol
 _atom_site_label
 _atom_site_symmetry_multiplicity
 _atom_site_fract_x
 _atom_site_fract_y
 _atom_site_fract_z
 _atom_site_occupancy
  In  In0  1  0.00744416  0.17522386  0.11829092  1
  In  In1  1  0.01832320  0.18723078  0.60800471  1
  In  In2  1  -0.00366697  0.49034495  0.12089175  1
  In  In3  1  0.05062590  0.46167564  0.67964793  1
  In  In4  1  0.00165178  0.83640668  0.11148528  1
  In  In5  1  -0.00532151  0.82149701  0.63416927  1
  In  In6  1  0.33660338  0.17748140  0.11677106  1
  In  In7  1  0.32583422  0.18185581  0.63836263  1
  In  In8  1  0.31721142  0.49114987  0.11380583  1
  In  In9  1  0.32493230  0.49073110  0.62230654  1
  In  In10  1  0.34022518  0.82821331  0.10225863  1
  In  In11  1  0.34801638  0.83171544  0.62889727  1
  In  In12  1  0.66235373  0.15796664  0.12180100  1
  In  In13  1  0.66645702  0.15759841  0.62480734  1
  In  In14  1  0.68262609  0.49728530  0.12524282  1
  In  In15  1  0.66294203  0.50883371  0.62089583  1
  In  In16  1  0.66429631  0.83393960  0.12311263  1
  In  In17  1  0.66730924  0.84814778  0.62754771  1
  In  In18  1  0.17791059  0.00883009  0.37464260  1
  In  In19  1  0.17929988  -0.00885150  0.87894252  1
  In  In20  1  0.16441606  0.33256165  0.37251886  1
  In  In21  1  0.16523900  0.33929169  0.87436302  1
  In  In22  1  0.15350164  0.65629084  0.37572444  1
  In  In23  1  0.16619991  0.66742567  0.88013013  1
  In  In24  1  0.50150019  -0.00848341  0.37607410  1
  In  In25  1  0.50004089  0.00210834  0.87330584  1
  In  In26  1  0.50548257  0.34891087  0.37393826  1
  In  In27  1  0.46834297  0.33039865  0.87734757  1
  In  In28  1  0.50735260  0.66007853  0.37743272  1
  In  In29  1  0.50657501  0.66789742  0.87721106  1
  In  In30  1  0.82831384  0.02034210  0.36960533  1
  In  In31  1  0.82403973  0.00794392  0.88145334  1
  In  In32  1  0.83280060  0.31749101  0.37859977  1
  In  In33  1  0.84583844  0.32390456  0.88000933  1
  In  In34  1  0.82795777  0.67744671  0.37239360  1
  In  In35  1  0.84340170  0.65518637  0.88686560  1
  In  In36  1  -0.01571014  0.18655337  0.39160891  1
  In  In37  1  -0.00341594  0.17592861  0.87903628  1
  In  In38  1  0.01552791  0.49130548  0.38339151  1
  In  In39  1  0.00560391  0.49486999  0.87303308  1
  In  In40  1  -0.00555794  0.82369658  0.37484371  1
  In  In41  1  0.00934833  0.82242279  0.88496530  1
  In  In42  1  0.31535761  0.17347609  0.37722774  1
  In  In43  1  0.33492546  0.17042513  0.87923513  1
  In  In44  1  0.34295539  0.48919096  0.37925813  1
  In  In45  1  0.32247930  0.48080936  0.86492384  1
  In  In46  1  0.34270415  0.84731788  0.37617853  1
  In  In47  1  0.32464501  0.83839502  0.88215481  1
  In  In48  1  0.69905131  0.17052346  0.36710129  1
  In  In49  1  0.67464084  0.16083887  0.87890073  1
  In  In50  1  0.65007441  0.49481187  0.37363120  1
  In  In51  1  0.66386131  0.50741973  0.87901888  1
  In  In52  1  0.65823110  0.82796718  0.36407843  1
  In  In53  1  0.65508425  0.84470912  0.88399808  1
  In  In54  1  0.17128382  0.00496045  0.11191227  1
  In  In55  1  0.16640938  0.01670630  0.63062602  1
  In  In56  1  0.16418424  0.33090190  0.12375951  1
  In  In57  1  0.17392921  0.33060134  0.62820399  1
  In  In58  1  0.16856014  0.65654273  0.10568233  1
  In  In59  1  0.16783091  0.64129525  0.63205115  1
  In  In60  1  0.50555332  0.00284461  0.12043757  1
  In  In61  1  0.50907428  0.00029258  0.63217745  1
  In  In62  1  0.50108279  0.31819998  0.12384711  1
  In  In63  1  0.48587848  0.33659328  0.62783566  1
  In  In64  1  0.49699060  0.67869160  0.11970245  1
  In  In65  1  0.49140236  0.66691702  0.61586571  1
  In  In66  1  0.82811206  -0.00520232  0.11804455  1
  In  In67  1  0.82438129  0.00300791  0.62883804  1
  In  In68  1  0.83972697  0.34037258  0.11960218  1
  In  In69  1  0.85212269  0.34088471  0.62031197  1
  In  In70  1  0.82646034  0.66219109  0.12110404  1
  In  In71  1  0.83889726  0.67121945  0.62988202  1
  In  In72  1  0.50216198  0.16765148  0.50241075  1
  In  In73  1  0.83124573  0.83830568  0.50100082  1
  In  In74  1  -0.00309824  0.00300282  0.75271042  1
  In  In75  1  0.17129937  0.83552414  0.49625046  1
  In  In76  1  -0.00732519  0.66087323  0.24172639  1
  In  In77  1  -0.00354545  0.01000206  0.24796272  1
  In  In78  1  0.33659578  0.00661620  0.24120031  1
  In  In79  1  0.83477894  0.50120330  0.50345313  1
  In  In80  1  0.33084226  0.66074213  0.75414604  1
  In  In81  1  0.49453463  0.49822025  -0.00436791  1
  In  In82  1  0.66797538  0.67054400  0.75883180  1
  In  In83  1  0.33232434  0.66402106  0.24067868  1
  In  In84  1  0.66400376  0.32976821  0.74683395  1
  In  In85  1  0.66766260  0.33282519  0.25071507  1
  Cu  Cu86  1  -0.00246672  0.66303671  -0.00012407  1
  Cu  Cu87  1  0.83723858  0.49676606  0.75848195  1
  Cu  Cu88  1  0.32782186  0.33534424  0.50201267  1
  Cu  Cu89  1  0.00700696  0.65319249  0.51121648  1
  Cu  Cu90  1  0.33700989  0.00312200  -0.00364095  1
  Cu  Cu91  1  0.17106194  0.16927344  0.75379386  1
  Cu  Cu92  1  0.16767794  0.83174319  0.23884152  1
  Cu  Cu93  1  0.49686514  0.16755399  0.24691064  1
  Cu  Cu94  1  0.83756187  0.50208116  0.24700056  1
  Cu  Cu95  1  0.65737503  0.67185081  0.49509758  1
  Cu  Cu96  1  0.66884628  0.67016969  -0.00000225  1
  Cu  Cu97  1  0.50435030  0.83023071  0.24619860  1
  Cu  Cu98  1  0.49913822  0.16485380  0.75462589  1
  Cu  Cu99  1  0.16961974  0.49174599  0.24890916  1
  Cu  Cu100  1  0.50378501  0.83952645  0.75156384  1
  Cu  Cu101  1  0.33668839  0.00425745  0.50455346  1
  Cu  Cu102  1  0.83102221  0.83587140  0.75707351  1
  Cu  Cu103  1  0.15823478  0.17915342  0.25011856  1
  Cu  Cu104  1  -0.00262797  0.00477700  -0.00590515  1
  Cu  Cu105  1  -0.00012019  0.00609729  0.49948892  1
  Cu  Cu106  1  0.33450335  0.66729580  0.50107331  1
  Cu  Cu107  1  0.66832837  0.32883367  0.00087759  1
  Cu  Cu108  1  0.83762895  0.16406853  0.75319357  1
  Cu  Cu109  1  0.49766512  0.50344874  0.25172779  1
  Cu  Cu110  1  0.66414879  -0.00311537  0.00096566  1
  Cu  Cu111  1  0.17045535  0.83182456  0.75814206  1
  Cu  Cu112  1  0.82398101  0.84078075  0.24591723  1
  Cu  Cu113  1  0.66336935  -0.00042458  0.50054249  1
  Cu  Cu114  1  0.00574465  0.33969614  -0.00101728  1
  Se  Se115  1  0.08162465  0.08578031  0.04893031  1
  Se  Se116  1  0.09057374  0.08268543  0.55028607  1
  Se  Se117  1  0.09020636  0.42205135  0.05300257  1
  Se  Se118  1  0.07519950  0.41775673  0.57633966  1
  Se  Se119  1  0.08459140  0.74993583  0.04725558  1
  Se  Se120  1  0.08563491  0.74705919  0.56165593  1
  Se  Se121  1  0.41692814  0.08339421  0.05565489  1
  Se  Se122  1  0.41197823  0.08510390  0.56782801  1
  Se  Se123  1  0.41251923  0.40173752  0.05545925  1
  Se  Se124  1  0.41526835  0.41818518  0.55178803  1
  Se  Se125  1  0.41735026  0.73716632  0.03978754  1
  Se  Se126  1  0.41613381  0.75722770  0.54830163  1
  Se  Se127  1  0.74894634  0.08329199  0.05063569  1
  Se  Se128  1  0.74965715  0.08062500  0.55255753  1
  Se  Se129  1  0.75172780  0.41680200  0.04927104  1
  Se  Se130  1  0.74184672  0.41038844  0.56040100  1
  Se  Se131  1  0.75149168  0.75330973  0.05446166  1
  Se  Se132  1  0.74055012  0.74431335  0.55957006  1
  Se  Se133  1  0.23165052  0.23574075  0.05524552  1
  Se  Se134  1  0.25218344  0.24622097  0.55595014  1
  Se  Se135  1  0.25905719  0.58236682  0.04097964  1
  Se  Se136  1  0.25155776  0.58346317  0.55285789  1
  Se  Se137  1  0.25001762  0.91695201  0.04546867  1
  Se  Se138  1  0.25468057  0.92256242  0.56382239  1
  Se  Se139  1  0.58422856  0.24480747  0.05194202  1
  Se  Se140  1  0.58652711  0.25851771  0.56478833  1
  Se  Se141  1  0.59013048  0.58306982  0.05890113  1
  Se  Se142  1  0.57956691  0.58569850  0.55042906  1
  Se  Se143  1  0.57896635  0.91218472  0.05243275  1
  Se  Se144  1  0.58080852  0.91830946  0.55510413  1
  Se  Se145  1  0.91991105  0.25555068  0.05060938  1
  Se  Se146  1  0.90650419  0.24178062  0.55075671  1
  Se  Se147  1  0.91585329  0.58142863  0.05692991  1
  Se  Se148  1  0.92369453  0.57909100  0.57082663  1
  Se  Se149  1  0.91530929  0.91934897  0.04773300  1
  Se  Se150  1  0.92759281  0.92179550  0.56233105  1
  Se  Se151  1  0.10063658  0.23862575  0.44360998  1
  Se  Se152  1  0.08576941  0.25320710  0.94541425  1
  Se  Se153  1  0.09139089  0.57566472  0.45503868  1
  Se  Se154  1  0.08087972  0.58127282  0.94493573  1
  Se  Se155  1  0.07425524  0.92378708  0.43644150  1
  Se  Se156  1  0.08508109  0.91945517  0.94638125  1
  Se  Se157  1  0.41138078  0.25705288  0.44068937  1
  Se  Se158  1  0.42735518  0.23484293  0.95228808  1
  Se  Se159  1  0.41640086  0.58484636  0.44357166  1
  Se  Se160  1  0.40738920  0.58138335  0.93003430  1
  Se  Se161  1  0.41948431  0.92079465  0.45230528  1
  Se  Se162  1  0.41954276  0.91770041  0.94383097  1
  Se  Se163  1  0.73002879  0.26402884  0.44668356  1
  Se  Se164  1  0.75450299  0.24774609  0.94649929  1
  Se  Se165  1  0.74360623  0.59155337  0.43990533  1
  Se  Se166  1  0.74853055  0.57928448  0.95121308  1
  Se  Se167  1  0.74354083  0.92226904  0.43604071  1
  Se  Se168  1  0.75183805  0.91515523  0.94952808  1
  Se  Se169  1  0.25096363  0.08415213  0.45175836  1
  Se  Se170  1  0.24911888  0.08530549  0.94647076  1
  Se  Se171  1  0.24724135  0.41666434  0.44333203  1
  Se  Se172  1  0.25236712  0.41333454  0.94567996  1
  Se  Se173  1  0.25785049  0.74275548  0.43342405  1
  Se  Se174  1  0.24983976  0.74871071  0.94741336  1
  Se  Se175  1  0.59099974  0.08368665  0.43684670  1
  Se  Se176  1  0.58492531  0.08110376  0.94450141  1
  Se  Se177  1  0.57947208  0.42081120  0.45091936  1
  Se  Se178  1  0.58581781  0.40401778  0.93758428  1
  Se  Se179  1  0.57849722  0.75896118  0.44206858  1
  Se  Se180  1  0.58072187  0.75037100  0.94964006  1
  Se  Se181  1  0.90948305  0.08306698  0.44873180  1
  Se  Se182  1  0.91295758  0.09040028  0.94526652  1
  Se  Se183  1  0.92200849  0.40725577  0.44472711  1
  Se  Se184  1  0.91824429  0.41949999  0.94516965  1
  Se  Se185  1  0.92547550  0.73463285  0.45163482  1
  Se  Se186  1  0.91378679  0.75221216  0.95207650  1
  Se  Se187  1  0.25145672  0.25602239  0.30005511  1
  Se  Se188  1  0.25171867  0.25235979  0.80907486  1
  Se  Se189  1  0.24564212  0.57784472  0.30764867  1
  Se  Se190  1  0.23160554  0.57258179  0.80410343  1
  Se  Se191  1  0.24435402  0.91044542  0.30154082  1
  Se  Se192  1  0.25762560  0.91750491  0.80231568  1
  Se  Se193  1  0.57769188  0.24211374  0.31172455  1
  Se  Se194  1  0.57874958  0.24654918  0.81491947  1
  Se  Se195  1  0.58479704  0.58583531  0.30061787  1
  Se  Se196  1  0.57168062  0.57255157  0.80349980  1
  Se  Se197  1  0.58038712  0.92056154  0.29898144  1
  Se  Se198  1  0.58858075  0.92150879  0.80399799  1
  Se  Se199  1  0.91036302  0.24113737  0.30603137  1
  Se  Se200  1  0.92094925  0.25070538  0.80130202  1
  Se  Se201  1  0.91459945  0.57650450  0.31568786  1
  Se  Se202  1  0.91852385  0.58379637  0.80890666  1
  Se  Se203  1  0.91009361  0.91084388  0.30873828  1
  Se  Se204  1  0.91475458  0.91247350  0.81759226  1
  Se  Se205  1  0.08675690  0.09304506  0.31198767  1
  Se  Se206  1  0.09092625  0.08668684  0.81353898  1
  Se  Se207  1  0.08012690  0.41573713  0.30264900  1
  Se  Se208  1  0.07738352  0.40921787  0.79909683  1
  Se  Se209  1  0.08898634  0.75450384  0.30102830  1
  Se  Se210  1  0.08521602  0.74897317  0.80763481  1
  Se  Se211  1  0.41762698  0.09083642  0.31275346  1
  Se  Se212  1  0.41297573  0.08407291  0.80727358  1
  Se  Se213  1  0.41609653  0.41488791  0.30024873  1
  Se  Se214  1  0.42499284  0.42139823  0.79943355  1
  Se  Se215  1  0.41832643  0.75462101  0.30582249  1
  Se  Se216  1  0.42290149  0.75674075  0.80856538  1
  Se  Se217  1  0.74350300  0.07659607  0.29116209  1
  Se  Se218  1  0.75080420  0.08210481  0.80228284  1
  Se  Se219  1  0.75765323  0.42420305  0.31155499  1
  Se  Se220  1  0.75111774  0.41769883  0.81367554  1
  Se  Se221  1  0.74796807  0.74911119  0.29777012  1
  Se  Se222  1  0.75616867  0.75592003  0.82156422  1
  Se  Se223  1  0.23661048  0.09406132  0.19089439  1
  Se  Se224  1  0.25467876  0.08306542  0.70325038  1
  Se  Se225  1  0.25190451  0.41210233  0.19315475  1
  Se  Se226  1  0.24792688  0.41960053  0.69844071  1
  Se  Se227  1  0.24534029  0.75414387  0.17812992  1
  Se  Se228  1  0.24406624  0.75344579  0.68960057  1
  Se  Se229  1  0.57919938  0.08275101  0.19583839  1
  Se  Se230  1  0.58752137  0.08620460  0.70147406  1
  Se  Se231  1  0.57715243  0.42265828  0.18839611  1
  Se  Se232  1  0.57768026  0.42712465  0.69107388  1
  Se  Se233  1  0.58491198  0.74551049  0.19288295  1
  Se  Se234  1  0.57877575  0.75399963  0.69081623  1
  Se  Se235  1  0.90977870  0.09180447  0.18310615  1
  Se  Se236  1  0.91932968  0.09319637  0.68552117  1
  Se  Se237  1  0.91824510  0.41554319  0.19670407  1
  Se  Se238  1  0.91432324  0.40916818  0.70558493  1
  Se  Se239  1  0.91089887  0.76370164  0.18799696  1
  Se  Se240  1  0.91198711  0.74857322  0.70699097  1
  Se  Se241  1  0.07363045  0.25839036  0.19580124  1
  Se  Se242  1  0.08600991  0.24455056  0.69581036  1
  Se  Se243  1  0.09439590  0.57769481  0.18869625  1
  Se  Se244  1  0.06102997  0.60603709  0.70050757  1
  Se  Se245  1  0.08679593  0.91764127  0.18627579  1
  Se  Se246  1  0.09084478  0.91031096  0.69376137  1
  Se  Se247  1  0.41209173  0.24987100  0.19646123  1
  Se  Se248  1  0.41877138  0.25500537  0.70505685  1
  Se  Se249  1  0.42107587  0.57266303  0.18183744  1
  Se  Se250  1  0.42005351  0.57862517  0.68844379  1
  Se  Se251  1  0.41702893  0.90377894  0.18604028  1
  Se  Se252  1  0.41826739  0.92114633  0.69864680  1
  Se  Se253  1  0.75284569  0.24880603  0.18541045  1
  Se  Se254  1  0.76044648  0.24464867  0.68885645  1
  Se  Se255  1  0.75143134  0.58524280  0.19847288  1
  Se  Se256  1  0.75646584  0.57609139  0.69755246  1
  Se  Se257  1  0.74305057  0.92278317  0.19174651  1
  Se  Se258  1  0.75134226  0.91827214  0.70151706  1
