# generated using pymatgen
data_In86Cu29Se144
_symmetry_space_group_name_H-M   'P 1'
_cell_length_a   17.57770302
_cell_length_b   17.57524184
_cell_length_c   23.43439741
_cell_angle_alpha   89.98853030
_cell_angle_beta   89.99922217
_cell_angle_gamma   90.02297308
_symmetry_Int_Tables_number   1
_chemical_formula_structural   In86Cu29Se144
_chemical_formula_sum   'In86 Cu29 Se144'
_cell_volume   7239.64347421
_cell_formula_units_Z   1
loop_
 _symmetry_equiv_pos_site_id
 _symmetry_equiv_pos_as_xyz
  1  'x, y, z'
loop_
 _atom_site_type_symbol
 _atom_site_label
 _atom_site_symmetry_multiplicity
 _atom_site_fract_x
 _atom_site_fract_y
 _atom_site_fract_z
 _atom_site_occupancy
  In  In0  1  0.01022344  0.16144915  0.12183662  1
  In  In1  1  0.00619520  0.16325113  0.62595671  1
  In  In2  1  0.00879311  0.48996579  0.11989333  1
  In  In3  1  -0.00960484  0.48789877  0.61657259  1
  In  In4  1  -0.00188751  0.85429831  0.11920279  1
  In  In5  1  0.01457413  0.83138984  0.62407005  1
  In  In6  1  0.32488792  0.17809663  0.12174145  1
  In  In7  1  0.33836022  0.16998437  0.62406794  1
  In  In8  1  0.36466245  0.52750732  0.08874494  1
  In  In9  1  0.32408029  0.50494040  0.63321344  1
  In  In10  1  0.33646708  0.81246972  0.12323073  1
  In  In11  1  0.32849146  0.82887587  0.62300606  1
  In  In12  1  0.66406597  0.16855355  0.13921489  1
  In  In13  1  0.66355319  0.16989882  0.62057590  1
  In  In14  1  0.65725929  0.51269496  0.13664540  1
  In  In15  1  0.66637725  0.47405022  0.61960516  1
  In  In16  1  0.66270084  0.83350605  0.12387536  1
  In  In17  1  0.66917197  0.84914573  0.62190949  1
  In  In18  1  0.15464909  0.00688783  0.39034377  1
  In  In19  1  0.17262254  0.03018937  0.86797693  1
  In  In20  1  0.17297094  0.33295889  0.38506825  1
  In  In21  1  0.17027903  0.33584297  0.86502153  1
  In  In22  1  0.17836846  0.66050529  0.37660996  1
  In  In23  1  0.17330404  0.64719700  0.87947639  1
  In  In24  1  0.50534338  -0.00916101  0.38062034  1
  In  In25  1  0.49596765  -0.01206675  0.87544400  1
  In  In26  1  0.50531949  0.32215174  0.38082737  1
  In  In27  1  0.50239384  0.34008215  0.87198981  1
  In  In28  1  0.50511086  0.67386114  0.36803731  1
  In  In29  1  0.48569608  0.67196728  0.88709007  1
  In  In30  1  0.82953560  0.02443492  0.38544642  1
  In  In31  1  0.83408423  0.00249541  0.86836169  1
  In  In32  1  0.82077944  0.33863923  0.39337221  1
  In  In33  1  0.82905339  0.32661454  0.86384272  1
  In  In34  1  0.81612272  0.66905545  0.37521946  1
  In  In35  1  0.84505104  0.67480045  0.87894693  1
  In  In36  1  -0.00489266  0.16477068  0.38904414  1
  In  In37  1  0.02976040  0.18942291  0.84086500  1
  In  In38  1  0.00988259  0.48914970  0.38389026  1
  In  In39  1  0.01146724  0.49785810  0.87172359  1
  In  In40  1  0.00234123  0.85330806  0.38198311  1
  In  In41  1  -0.00861032  0.83506038  0.87475988  1
  In  In42  1  0.32892352  0.17322123  0.38460177  1
  In  In43  1  0.31473091  0.16804799  0.87971083  1
  In  In44  1  0.32299971  0.49839425  0.37529725  1
  In  In45  1  0.33328673  0.49993837  0.87176760  1
  In  In46  1  0.34203593  0.82784959  0.37821708  1
  In  In47  1  0.34901567  0.83686520  0.88085364  1
  In  In48  1  0.66816680  0.16545704  0.37677129  1
  In  In49  1  0.66977924  0.17010094  0.86641331  1
  In  In50  1  0.66205452  0.50002353  0.37480913  1
  In  In51  1  0.65980634  0.48641538  0.87631422  1
  In  In52  1  0.65675815  0.82493450  0.37000444  1
  In  In53  1  0.65755972  0.84122458  0.87924714  1
  In  In54  1  0.16271118  0.00983940  0.12191048  1
  In  In55  1  0.16022599  -0.00215368  0.62143836  1
  In  In56  1  0.18223663  0.34077575  0.10818687  1
  In  In57  1  0.16339068  0.32694645  0.62877497  1
  In  In58  1  0.19162396  0.66364642  0.12571240  1
  In  In59  1  0.17564867  0.67377889  0.62271712  1
  In  In60  1  0.51545967  0.00462498  0.12473918  1
  In  In61  1  0.50837448  0.00948865  0.61809402  1
  In  In62  1  0.49871446  0.34473063  0.12556330  1
  In  In63  1  0.50955281  0.31989016  0.63491803  1
  In  In64  1  0.50324165  0.67093712  0.12185674  1
  In  In65  1  0.48388620  0.66254879  0.62565217  1
  In  In66  1  0.83395221  -0.00697003  0.12428656  1
  In  In67  1  0.82208499  0.00881377  0.63008631  1
  In  In68  1  0.83086509  0.32470285  0.12702544  1
  In  In69  1  0.83462010  0.32844661  0.62236914  1
  In  In70  1  0.81541195  0.66757117  0.12816622  1
  In  In71  1  0.84654541  0.65965341  0.61971567  1
  In  In72  1  0.83452651  0.82973872  0.49956394  1
  In  In73  1  0.33326471  0.33890189  0.24853474  1
  In  In74  1  0.33498238  0.00424249  0.75118313  1
  In  In75  1  0.49862515  0.49474134  0.49860487  1
  In  In76  1  0.48892844  0.16405396  -0.00519391  1
  In  In77  1  0.17026101  0.83432450  0.00060564  1
  In  In78  1  0.33258757  -0.00148480  0.24675051  1
  In  In79  1  0.66236297  0.66381636  0.74860542  1
  In  In80  1  -0.00744524  0.67014372  0.25345605  1
  In  In81  1  0.83909251  0.16050358  -0.00510742  1
  In  In82  1  -0.00666026  0.00681170  0.25996256  1
  In  In83  1  0.00644006  0.66557291  0.75148214  1
  In  In84  1  -0.00003957  0.33018359  0.24836575  1
  In  In85  1  0.83183212  0.50401068  0.00008040  1
  Cu  Cu86  1  0.82943637  0.84060544  0.74930811  1
  Cu  Cu87  1  0.66032285  0.00183258  0.49899577  1
  Cu  Cu88  1  0.16604787  0.49462688  0.74864667  1
  Cu  Cu89  1  0.49421391  0.49751092  0.74936618  1
  Cu  Cu90  1  0.33177256  0.67218713  0.50144261  1
  Cu  Cu91  1  0.00806509  0.66084088  0.49862525  1
  Cu  Cu92  1  0.50388542  0.16209648  0.25733606  1
  Cu  Cu93  1  -0.00066498  0.67687566  0.00138861  1
  Cu  Cu94  1  0.50085583  0.83548966  0.75358768  1
  Cu  Cu95  1  0.82129835  0.83489668  0.24797208  1
  Cu  Cu96  1  0.82593082  0.17291731  0.25735228  1
  Cu  Cu97  1  0.65845499  0.33755357  0.00370220  1
  Cu  Cu98  1  0.00922765  0.33058575  -0.01178286  1
  Cu  Cu99  1  0.33242602  0.00067085  0.50281473  1
  Cu  Cu100  1  0.66334735  0.67094679  0.00330164  1
  Cu  Cu101  1  0.17498985  0.83077263  0.74847523  1
  Cu  Cu102  1  0.49925150  0.50382651  0.24470021  1
  Cu  Cu103  1  0.83181433  0.16421591  0.74084930  1
  Cu  Cu104  1  0.82918892  0.49171813  0.74538244  1
  Cu  Cu105  1  0.82670329  0.49617762  0.26026518  1
  Cu  Cu106  1  0.17514154  0.50416439  0.24585341  1
  Cu  Cu107  1  0.50093440  0.82825846  0.24942218  1
  Cu  Cu108  1  0.33207153  0.33582571  0.50776794  1
  Cu  Cu109  1  0.00232082  0.00826648  -0.00917963  1
  Cu  Cu110  1  0.66958275  -0.00544711  -0.00113168  1
  Cu  Cu111  1  0.00429944  0.32838415  0.50784976  1
  Cu  Cu112  1  0.66165778  0.66208424  0.49462035  1
  Cu  Cu113  1  0.50182808  0.17089198  0.74733323  1
  Cu  Cu114  1  0.17027598  0.83536753  0.25556037  1
  Se  Se115  1  0.08725523  0.08764597  0.04598525  1
  Se  Se116  1  0.08209871  0.08132839  0.55215868  1
  Se  Se117  1  0.08549149  0.41705178  0.04476632  1
  Se  Se118  1  0.09005750  0.41546062  0.55560558  1
  Se  Se119  1  0.08071129  0.74731327  0.06722316  1
  Se  Se120  1  0.08705374  0.74732336  0.55178659  1
  Se  Se121  1  0.41006827  0.07702011  0.06449086  1
  Se  Se122  1  0.41711353  0.08672962  0.55296880  1
  Se  Se123  1  0.39362802  0.39004090  0.05884579  1
  Se  Se124  1  0.41384962  0.41384936  0.56790528  1
  Se  Se125  1  0.41231938  0.73743030  0.04935108  1
  Se  Se126  1  0.41871910  0.75275999  0.55335947  1
  Se  Se127  1  0.74121800  0.08355096  0.05943593  1
  Se  Se128  1  0.74624137  0.08171963  0.55261343  1
  Se  Se129  1  0.74391793  0.41464258  0.06278228  1
  Se  Se130  1  0.76375215  0.41900770  0.55094187  1
  Se  Se131  1  0.75034451  0.75363191  0.05363692  1
  Se  Se132  1  0.74141141  0.73954195  0.55979861  1
  Se  Se133  1  0.23921485  0.23513973  0.04482968  1
  Se  Se134  1  0.24865153  0.24865017  0.55704011  1
  Se  Se135  1  0.23584163  0.57305066  0.04801831  1
  Se  Se136  1  0.25350800  0.58423748  0.55503119  1
  Se  Se137  1  0.25694758  0.91985419  0.06639449  1
  Se  Se138  1  0.25002676  0.91631226  0.55639868  1
  Se  Se139  1  0.58528520  0.24744027  0.06028446  1
  Se  Se140  1  0.57859189  0.25283051  0.55356273  1
  Se  Se141  1  0.58615642  0.58037541  0.05500012  1
  Se  Se142  1  0.58770449  0.58533499  0.56274432  1
  Se  Se143  1  0.58230877  0.91589828  0.05193711  1
  Se  Se144  1  0.57901731  0.91388746  0.54948260  1
  Se  Se145  1  0.92794880  0.25884372  0.05428359  1
  Se  Se146  1  0.91834969  0.24286076  0.55607346  1
  Se  Se147  1  0.92167553  0.59316333  0.06374212  1
  Se  Se148  1  0.91800512  0.57903510  0.54566904  1
  Se  Se149  1  0.91679953  0.92847665  0.04582065  1
  Se  Se150  1  0.91427010  0.91544782  0.56706641  1
  Se  Se151  1  0.08669576  0.24926394  0.44926379  1
  Se  Se152  1  0.08680498  0.24619735  0.93322585  1
  Se  Se153  1  0.09355473  0.57950978  0.44507938  1
  Se  Se154  1  0.07283467  0.58707063  0.94715269  1
  Se  Se155  1  0.08678838  0.91235476  0.45809449  1
  Se  Se156  1  0.08504102  0.92310112  0.93585811  1
  Se  Se157  1  0.41456571  0.25468243  0.45136984  1
  Se  Se158  1  0.40508267  0.26135507  0.93917011  1
  Se  Se159  1  0.41169916  0.59049473  0.44011090  1
  Se  Se160  1  0.42119916  0.56743922  0.94662836  1
  Se  Se161  1  0.41512996  0.91620403  0.44859543  1
  Se  Se162  1  0.41910970  0.92143963  0.95339789  1
  Se  Se163  1  0.77388740  0.21812485  0.44436378  1
  Se  Se164  1  0.74235072  0.25873188  0.94508285  1
  Se  Se165  1  0.74776829  0.57890889  0.44586133  1
  Se  Se166  1  0.74106340  0.59289659  0.93781237  1
  Se  Se167  1  0.74178675  0.91883264  0.43893396  1
  Se  Se168  1  0.75459099  0.91976953  0.94060834  1
  Se  Se169  1  0.24899470  0.08677504  0.45148291  1
  Se  Se170  1  0.27015986  0.05880600  0.94580273  1
  Se  Se171  1  0.25163191  0.42082368  0.45246298  1
  Se  Se172  1  0.22958700  0.43403272  0.93404908  1
  Se  Se173  1  0.24884517  0.75342371  0.44523308  1
  Se  Se174  1  0.25755109  0.74214075  0.94175749  1
  Se  Se175  1  0.57850589  0.08677659  0.44487415  1
  Se  Se176  1  0.59253755  0.08083707  0.93967969  1
  Se  Se177  1  0.59606870  0.40299256  0.44909528  1
  Se  Se178  1  0.57468761  0.41898167  0.95113053  1
  Se  Se179  1  0.57894748  0.74953929  0.44629056  1
  Se  Se180  1  0.58121478  0.75291546  0.94704802  1
  Se  Se181  1  0.94313968  0.05277165  0.44982131  1
  Se  Se182  1  0.93179030  0.09119275  0.92651090  1
  Se  Se183  1  0.92290273  0.41237097  0.45150366  1
  Se  Se184  1  0.91628344  0.40928092  0.93729049  1
  Se  Se185  1  0.92564772  0.74010273  0.43696163  1
  Se  Se186  1  0.91419264  0.76014307  0.95225127  1
  Se  Se187  1  0.24367248  0.24730842  0.30751787  1
  Se  Se188  1  0.23777076  0.23353450  0.80172919  1
  Se  Se189  1  0.25761423  0.58616546  0.30046235  1
  Se  Se190  1  0.24906611  0.58165765  0.79911359  1
  Se  Se191  1  0.24324078  0.92007486  0.31652759  1
  Se  Se192  1  0.24822073  0.91185019  0.81355939  1
  Se  Se193  1  0.58651416  0.25006416  0.30631866  1
  Se  Se194  1  0.58387953  0.25513547  0.80328085  1
  Se  Se195  1  0.58335391  0.58235349  0.30351956  1
  Se  Se196  1  0.57333283  0.57889335  0.81192242  1
  Se  Se197  1  0.58020097  0.91582016  0.30289320  1
  Se  Se198  1  0.58556248  0.92112325  0.80239156  1
  Se  Se199  1  0.91275049  0.24810391  0.31510374  1
  Se  Se200  1  0.91286225  0.25222463  0.79261293  1
  Se  Se201  1  0.91352074  0.57319272  0.31674649  1
  Se  Se202  1  0.90674522  0.57489805  0.80635501  1
  Se  Se203  1  0.89884841  0.91284968  0.31228771  1
  Se  Se204  1  0.91913344  0.91774211  0.80112007  1
  Se  Se205  1  0.08876483  0.09693447  0.31158185  1
  Se  Se206  1  0.06998000  0.06251141  0.79477423  1
  Se  Se207  1  0.09742633  0.42120611  0.30484752  1
  Se  Se208  1  0.07626851  0.41340226  0.79669640  1
  Se  Se209  1  0.08345370  0.75940984  0.31350434  1
  Se  Se210  1  0.09512832  0.75387381  0.81392932  1
  Se  Se211  1  0.41598927  0.08748814  0.31377834  1
  Se  Se212  1  0.42443985  0.09395372  0.81325338  1
  Se  Se213  1  0.42754852  0.42297170  0.31246496  1
  Se  Se214  1  0.41186527  0.41210720  0.80202888  1
  Se  Se215  1  0.41252722  0.74791804  0.30066976  1
  Se  Se216  1  0.41901104  0.75145866  0.80660997  1
  Se  Se217  1  0.74735539  0.07942805  0.30414076  1
  Se  Se218  1  0.74966778  0.08409621  0.79996742  1
  Se  Se219  1  0.74776288  0.40952238  0.31254441  1
  Se  Se220  1  0.74353428  0.41575717  0.80229476  1
  Se  Se221  1  0.74280889  0.74648792  0.29974093  1
  Se  Se222  1  0.75478874  0.75382670  0.80870325  1
  Se  Se223  1  0.24065879  0.09524424  0.19556965  1
  Se  Se224  1  0.24363193  0.08792044  0.69015111  1
  Se  Se225  1  0.25345870  0.42825579  0.18286121  1
  Se  Se226  1  0.25015024  0.40980015  0.69730609  1
  Se  Se227  1  0.25171529  0.75153368  0.20242736  1
  Se  Se228  1  0.25761959  0.74525590  0.69875624  1
  Se  Se229  1  0.58664979  0.07757702  0.20473465  1
  Se  Se230  1  0.58361507  0.08632195  0.69382644  1
  Se  Se231  1  0.58419301  0.41391878  0.19933091  1
  Se  Se232  1  0.58332504  0.41657236  0.70007530  1
  Se  Se233  1  0.58633842  0.74690804  0.19489262  1
  Se  Se234  1  0.57733361  0.75773992  0.68762470  1
  Se  Se235  1  0.90711940  0.09728236  0.19219542  1
  Se  Se236  1  0.91943420  0.07918702  0.69444741  1
  Se  Se237  1  0.90762976  0.42763352  0.19266816  1
  Se  Se238  1  0.91704967  0.41270454  0.69376882  1
  Se  Se239  1  0.91164601  0.76524193  0.18847190  1
  Se  Se240  1  0.91058853  0.75612031  0.69323284  1
  Se  Se241  1  0.09427151  0.25304463  0.18462602  1
  Se  Se242  1  0.07572195  0.25214804  0.69828084  1
  Se  Se243  1  0.08493166  0.58196431  0.19164513  1
  Se  Se244  1  0.08679013  0.57604758  0.68573422  1
  Se  Se245  1  0.08926896  0.91725185  0.19744794  1
  Se  Se246  1  0.08902944  0.91229994  0.69755555  1
  Se  Se247  1  0.42550071  0.24074430  0.19416644  1
  Se  Se248  1  0.41069178  0.25158059  0.70017821  1
  Se  Se249  1  0.41674471  0.57962488  0.18495247  1
  Se  Se250  1  0.41123431  0.58577159  0.70172260  1
  Se  Se251  1  0.42407036  0.90924406  0.18738717  1
  Se  Se252  1  0.42375725  0.91495107  0.68926214  1
  Se  Se253  1  0.74687531  0.25857088  0.20223284  1
  Se  Se254  1  0.74656236  0.25025623  0.69171276  1
  Se  Se255  1  0.75039825  0.58436961  0.20482691  1
  Se  Se256  1  0.75407110  0.57728707  0.68642507  1
  Se  Se257  1  0.74431793  0.92147867  0.19269364  1
  Se  Se258  1  0.74205828  0.92217985  0.69966266  1
