# generated using pymatgen
data_In86Cu29Se144
_symmetry_space_group_name_H-M   'P 1'
_cell_length_a   17.59122810
_cell_length_b   17.59120981
_cell_length_c   23.45020348
_cell_angle_alpha   90.01604668
_cell_angle_beta   90.01086616
_cell_angle_gamma   90.00733345
_symmetry_Int_Tables_number   1
_chemical_formula_structural   In86Cu29Se144
_chemical_formula_sum   'In86 Cu29 Se144'
_cell_volume   7256.68807594
_cell_formula_units_Z   1
loop_
 _symmetry_equiv_pos_site_id
 _symmetry_equiv_pos_as_xyz
  1  'x, y, z'
loop_
 _atom_site_type_symbol
 _atom_site_label
 _atom_site_symmetry_multiplicity
 _atom_site_fract_x
 _atom_site_fract_y
 _atom_site_fract_z
 _atom_site_occupancy
  In  In0  1  0.00901258  0.14939621  0.14272843  1
  In  In1  1  0.00318804  0.16719007  0.62635468  1
  In  In2  1  -0.01246009  0.49893046  0.12879509  1
  In  In3  1  0.01360628  0.50802763  0.61051681  1
  In  In4  1  0.01386421  0.85389988  0.10475832  1
  In  In5  1  0.00224653  0.81667222  0.62680787  1
  In  In6  1  0.33144031  0.15094231  0.10774217  1
  In  In7  1  0.35821582  0.14675389  0.63446405  1
  In  In8  1  0.35133254  0.49942090  0.12819098  1
  In  In9  1  0.33916290  0.51181412  0.62100601  1
  In  In10  1  0.31787058  0.83757863  0.12321310  1
  In  In11  1  0.32881640  0.83165998  0.61842907  1
  In  In12  1  0.65859151  0.17300596  0.13623765  1
  In  In13  1  0.65773539  0.16463164  0.62648953  1
  In  In14  1  0.66245081  0.49804256  0.13216963  1
  In  In15  1  0.65541758  0.49230008  0.61336801  1
  In  In16  1  0.67502055  0.82183441  0.13123794  1
  In  In17  1  0.65493891  0.85712900  0.62291424  1
  In  In18  1  0.15817662  0.00059112  0.37746695  1
  In  In19  1  0.19006052  -0.02248850  0.89898533  1
  In  In20  1  0.16709494  0.33629978  0.37592316  1
  In  In21  1  0.16001696  0.32877354  0.87764607  1
  In  In22  1  0.17719199  0.66206442  0.37709452  1
  In  In23  1  0.18232145  0.69393526  0.85419408  1
  In  In24  1  0.52352773  -0.01988285  0.40441019  1
  In  In25  1  0.50179847  0.00714773  0.86490551  1
  In  In26  1  0.50991587  0.32358243  0.38488128  1
  In  In27  1  0.50876006  0.32616001  0.88221079  1
  In  In28  1  0.49758700  0.66759928  0.37839286  1
  In  In29  1  0.48537110  0.67213537  0.87393946  1
  In  In30  1  0.82992898  -0.00074161  0.36278184  1
  In  In31  1  0.82244149  0.00469440  0.87967505  1
  In  In32  1  0.83725509  0.33709385  0.36680517  1
  In  In33  1  0.82489198  0.33961964  0.87442157  1
  In  In34  1  0.81592854  0.66758243  0.37564737  1
  In  In35  1  0.84744132  0.66825879  0.86979423  1
  In  In36  1  -0.01266411  0.15793741  0.35779282  1
  In  In37  1  0.00728219  0.15965266  0.88689747  1
  In  In38  1  0.00754997  0.49202094  0.37882362  1
  In  In39  1  -0.01038075  0.50785932  0.87346966  1
  In  In40  1  -0.00083425  0.84687075  0.37479283  1
  In  In41  1  0.00877337  0.83165975  0.88415283  1
  In  In42  1  0.34335228  0.16679302  0.38126885  1
  In  In43  1  0.35245352  0.14526655  0.89127206  1
  In  In44  1  0.32433477  0.50544279  0.38331515  1
  In  In45  1  0.33373077  0.51726607  0.87283165  1
  In  In46  1  0.34724830  0.83037336  0.38723056  1
  In  In47  1  0.33242968  0.83325255  0.86512298  1
  In  In48  1  0.65697721  0.15637570  0.35601222  1
  In  In49  1  0.65179084  0.15878085  0.86458376  1
  In  In50  1  0.66325987  0.50362605  0.37990340  1
  In  In51  1  0.66824909  0.48142094  0.87265760  1
  In  In52  1  0.66555558  0.82715810  0.36791968  1
  In  In53  1  0.65681270  0.84855562  0.87530213  1
  In  In54  1  0.16505438  -0.00873709  0.11191014  1
  In  In55  1  0.19033546  -0.02093734  0.63329398  1
  In  In56  1  0.17052269  0.31643016  0.12714501  1
  In  In57  1  0.15686799  0.33549630  0.62099755  1
  In  In58  1  0.16366748  0.68313257  0.12497854  1
  In  In59  1  0.17223213  0.67268136  0.62235440  1
  In  In60  1  0.49315278  0.01136185  0.12225781  1
  In  In61  1  0.49938724  -0.00083143  0.61319949  1
  In  In62  1  0.50380758  0.33461794  0.12233099  1
  In  In63  1  0.50487545  0.33585803  0.62405899  1
  In  In64  1  0.51152851  0.65823491  0.13395642  1
  In  In65  1  0.48648658  0.66139721  0.61956136  1
  In  In66  1  0.83653366  -0.00588584  0.13486452  1
  In  In67  1  0.81909852  -0.00237806  0.62472504  1
  In  In68  1  0.83313126  0.32248579  0.14716980  1
  In  In69  1  0.81790087  0.33206326  0.62308176  1
  In  In70  1  0.82740669  0.66514494  0.12567174  1
  In  In71  1  0.84570172  0.66745788  0.61887825  1
  In  In72  1  0.83472191  0.16419981  0.00780507  1
  In  In73  1  0.00306195  -0.00462910  0.75129625  1
  In  In74  1  0.16757498  0.50575927  -0.00328817  1
  In  In75  1  0.49930895  0.83149830  0.00186623  1
  In  In76  1  0.17033113  0.17369884  0.50404635  1
  In  In77  1  0.33680730  -0.00379466  0.25136313  1
  In  In78  1  0.82766311  0.16899940  0.49496777  1
  In  In79  1  -0.00329785  0.66894278  0.24638984  1
  In  In80  1  0.66441915  0.66493735  0.74457275  1
  In  In81  1  0.33924778  0.33272006  0.25241633  1
  In  In82  1  -0.00883970  0.33514073  0.75620450  1
  In  In83  1  0.83308847  0.83196860  0.49854587  1
  In  In84  1  0.33722476  0.33298159  0.74499831  1
  In  In85  1  0.82488339  0.50170772  0.00711315  1
  Cu  Cu86  1  0.33374731  0.66834157  -0.00298661  1
  Cu  Cu87  1  0.49677102  0.16447319  0.24926641  1
  Cu  Cu88  1  0.65999083  0.67089671  0.49886390  1
  Cu  Cu89  1  -0.00151605  0.33587953  0.49162309  1
  Cu  Cu90  1  0.66455537  0.00122107  -0.00098306  1
  Cu  Cu91  1  0.33010508  0.66806572  0.50012456  1
  Cu  Cu92  1  0.82328656  0.16470810  0.75201768  1
  Cu  Cu93  1  0.66242437  0.32544484  0.00337115  1
  Cu  Cu94  1  0.00686541  0.66189208  0.49830322  1
  Cu  Cu95  1  0.50164253  0.49762308  0.74492286  1
  Cu  Cu96  1  -0.00075868  0.33062786  0.00786464  1
  Cu  Cu97  1  0.83428519  0.49829485  0.74526632  1
  Cu  Cu98  1  0.00666900  0.67903092  -0.00814449  1
  Cu  Cu99  1  0.82976834  0.83495001  0.74716402  1
  Cu  Cu100  1  0.17477877  0.16190688  0.75650796  1
  Cu  Cu101  1  0.16686910  0.83555243  0.24609730  1
  Cu  Cu102  1  0.83599810  0.83617699  0.24729609  1
  Cu  Cu103  1  0.50263342  0.83281162  0.25917315  1
  Cu  Cu104  1  0.66601594  0.65870477  0.00597792  1
  Cu  Cu105  1  0.49117355  0.84064780  0.74384237  1
  Cu  Cu106  1  0.50223634  0.50381870  0.25652863  1
  Cu  Cu107  1  0.16196082  0.16076225  0.24787660  1
  Cu  Cu108  1  0.00642249  -0.00058932  0.50186658  1
  Cu  Cu109  1  0.16996936  0.49982449  0.25664622  1
  Cu  Cu110  1  0.33565477  0.33715135  0.50677173  1
  Cu  Cu111  1  0.16295162  0.51332039  0.74399343  1
  Cu  Cu112  1  0.33782022  0.33360674  0.00316474  1
  Cu  Cu113  1  0.82670873  0.50347380  0.25306530  1
  Cu  Cu114  1  0.66746394  0.33734596  0.49843231  1
  Se  Se115  1  0.08152248  0.09061950  0.05952440  1
  Se  Se116  1  0.08661990  0.07514346  0.56523258  1
  Se  Se117  1  0.08081937  0.41656673  0.06248205  1
  Se  Se118  1  0.08754519  0.41429772  0.54406820  1
  Se  Se119  1  0.09484644  0.75701343  0.04543162  1
  Se  Se120  1  0.08492058  0.75034190  0.55055560  1
  Se  Se121  1  0.41856802  0.07425713  0.04147418  1
  Se  Se122  1  0.42243355  0.09223494  0.54665057  1
  Se  Se123  1  0.42136604  0.41860498  0.05323100  1
  Se  Se124  1  0.42056301  0.42068959  0.55803506  1
  Se  Se125  1  0.41281273  0.74110613  0.06448859  1
  Se  Se126  1  0.41735448  0.75179308  0.54932272  1
  Se  Se127  1  0.73851848  0.07911650  0.06536144  1
  Se  Se128  1  0.73923485  0.07567298  0.55107251  1
  Se  Se129  1  0.74679208  0.40099896  0.06530605  1
  Se  Se130  1  0.75403232  0.41995112  0.54899968  1
  Se  Se131  1  0.74952985  0.74590613  0.05324666  1
  Se  Se132  1  0.73951121  0.74929546  0.56252613  1
  Se  Se133  1  0.25060121  0.24956351  0.05069775  1
  Se  Se134  1  0.26290329  0.25355176  0.57016197  1
  Se  Se135  1  0.25698080  0.58948764  0.06234116  1
  Se  Se136  1  0.24680548  0.58184854  0.55223400  1
  Se  Se137  1  0.26750226  0.92945514  0.04782418  1
  Se  Se138  1  0.24691871  0.91326757  0.54687535  1
  Se  Se139  1  0.57969524  0.24158216  0.05646660  1
  Se  Se140  1  0.58753125  0.25353660  0.55460475  1
  Se  Se141  1  0.58297883  0.57655219  0.05778516  1
  Se  Se142  1  0.57717358  0.58567192  0.55156426  1
  Se  Se143  1  0.59067413  0.91810215  0.06326832  1
  Se  Se144  1  0.57943715  0.91526631  0.54117505  1
  Se  Se145  1  0.92088015  0.25470853  0.06994792  1
  Se  Se146  1  0.92411163  0.25631840  0.55699601  1
  Se  Se147  1  0.92919478  0.59577250  0.05316195  1
  Se  Se148  1  0.91604378  0.58118520  0.54647260  1
  Se  Se149  1  0.89696395  0.91068982  0.05658795  1
  Se  Se150  1  0.92327174  0.92186252  0.56246469  1
  Se  Se151  1  0.07205757  0.24455220  0.43566437  1
  Se  Se152  1  0.08296698  0.25234681  0.95215488  1
  Se  Se153  1  0.09001007  0.57996076  0.44293465  1
  Se  Se154  1  0.08359443  0.59444945  0.93252022  1
  Se  Se155  1  0.08582284  0.91285051  0.44954056  1
  Se  Se156  1  0.07668362  0.92174344  0.95373965  1
  Se  Se157  1  0.41601934  0.25220824  0.45253374  1
  Se  Se158  1  0.42154200  0.24963989  0.95036636  1
  Se  Se159  1  0.41531241  0.58412786  0.44793026  1
  Se  Se160  1  0.41963701  0.58368853  0.94841192  1
  Se  Se161  1  0.40350193  0.93272900  0.45348796  1
  Se  Se162  1  0.41854251  0.91755617  0.93522870  1
  Se  Se163  1  0.74049292  0.25666137  0.43341227  1
  Se  Se164  1  0.74527387  0.24930899  0.94203206  1
  Se  Se165  1  0.74718419  0.58615341  0.45102092  1
  Se  Se166  1  0.74506537  0.58741813  0.93602344  1
  Se  Se167  1  0.74773949  0.92217181  0.43751739  1
  Se  Se168  1  0.74602577  0.91528933  0.94782182  1
  Se  Se169  1  0.25314597  0.07932490  0.44395197  1
  Se  Se170  1  0.22921283  0.10642751  0.94146037  1
  Se  Se171  1  0.24923608  0.41071153  0.44854712  1
  Se  Se172  1  0.25964043  0.41242868  0.93946971  1
  Se  Se173  1  0.24810598  0.75240860  0.44641242  1
  Se  Se174  1  0.25509824  0.75133624  0.94033737  1
  Se  Se175  1  0.58541515  0.10245946  0.44204599  1
  Se  Se176  1  0.58209697  0.08062233  0.94244413  1
  Se  Se177  1  0.57954127  0.42163912  0.44952490  1
  Se  Se178  1  0.58656940  0.41687040  0.95058946  1
  Se  Se179  1  0.58267045  0.75621434  0.44330951  1
  Se  Se180  1  0.59069903  0.73979928  0.94114947  1
  Se  Se181  1  0.92310997  0.07409452  0.44154688  1
  Se  Se182  1  0.92282641  0.06952899  0.95032896  1
  Se  Se183  1  0.91112556  0.41831422  0.44285006  1
  Se  Se184  1  0.92123698  0.41086745  0.94710806  1
  Se  Se185  1  0.92427865  0.74107792  0.43738412  1
  Se  Se186  1  0.90959019  0.75406683  0.94575474  1
  Se  Se187  1  0.24571826  0.23769222  0.30855334  1
  Se  Se188  1  0.25135943  0.24877662  0.81242873  1
  Se  Se189  1  0.25622947  0.58388548  0.30344801  1
  Se  Se190  1  0.25324890  0.58808284  0.79741363  1
  Se  Se191  1  0.24590782  0.90925241  0.31227551  1
  Se  Se192  1  0.24292663  0.92092056  0.80681559  1
  Se  Se193  1  0.57541982  0.25597697  0.29953513  1
  Se  Se194  1  0.59589972  0.26840733  0.80545979  1
  Se  Se195  1  0.58480997  0.58867574  0.30906415  1
  Se  Se196  1  0.57903974  0.57723541  0.81052419  1
  Se  Se197  1  0.58021979  0.92290603  0.31077894  1
  Se  Se198  1  0.58013521  0.91742459  0.79750040  1
  Se  Se199  1  0.92209113  0.25959222  0.29806994  1
  Se  Se200  1  0.90770565  0.23604056  0.81536790  1
  Se  Se201  1  0.91189598  0.58134680  0.31196106  1
  Se  Se202  1  0.91736848  0.58300591  0.79569748  1
  Se  Se203  1  0.92153776  0.91882706  0.29880288  1
  Se  Se204  1  0.90734783  0.91305657  0.81192885  1
  Se  Se205  1  0.08184298  0.07330802  0.29992261  1
  Se  Se206  1  0.08961717  0.08441646  0.81287902  1
  Se  Se207  1  0.08540045  0.41407858  0.30386143  1
  Se  Se208  1  0.09039799  0.42941610  0.80734942  1
  Se  Se209  1  0.08741547  0.75551985  0.30840449  1
  Se  Se210  1  0.06295826  0.74483754  0.80525935  1
  Se  Se211  1  0.42608967  0.08231722  0.31305330  1
  Se  Se212  1  0.41009125  0.08591092  0.80172660  1
  Se  Se213  1  0.42232302  0.42162728  0.31700660  1
  Se  Se214  1  0.42153098  0.42306617  0.81081123  1
  Se  Se215  1  0.41441425  0.75141375  0.30843463  1
  Se  Se216  1  0.41588748  0.74964582  0.79677192  1
  Se  Se217  1  0.76563504  0.09687344  0.29721104  1
  Se  Se218  1  0.74427763  0.07639336  0.80320836  1
  Se  Se219  1  0.74357953  0.42192861  0.30783312  1
  Se  Se220  1  0.75170350  0.41340214  0.79621530  1
  Se  Se221  1  0.75256453  0.75012860  0.29798729  1
  Se  Se222  1  0.74870072  0.75558387  0.80934303  1
  Se  Se223  1  0.24706359  0.08429359  0.18893112  1
  Se  Se224  1  0.25171462  0.08436181  0.69535923  1
  Se  Se225  1  0.24676238  0.42120345  0.19067678  1
  Se  Se226  1  0.24065720  0.42375324  0.68888087  1
  Se  Se227  1  0.25231585  0.74937996  0.19833595  1
  Se  Se228  1  0.25950105  0.74512891  0.69239981  1
  Se  Se229  1  0.57816496  0.07714317  0.19765435  1
  Se  Se230  1  0.58983736  0.06470830  0.68745614  1
  Se  Se231  1  0.57531282  0.41621026  0.19832768  1
  Se  Se232  1  0.58829974  0.41738298  0.69446656  1
  Se  Se233  1  0.58418340  0.75011304  0.20144154  1
  Se  Se234  1  0.57453973  0.75699937  0.68668752  1
  Se  Se235  1  0.89709807  0.09616795  0.20067699  1
  Se  Se236  1  0.90769883  0.08916782  0.69154633  1
  Se  Se237  1  0.91517545  0.42120838  0.20364711  1
  Se  Se238  1  0.91679413  0.42037125  0.68309737  1
  Se  Se239  1  0.91694690  0.76133225  0.18293048  1
  Se  Se240  1  0.91138838  0.74817474  0.69755855  1
  Se  Se241  1  0.08231362  0.25378069  0.20110434  1
  Se  Se242  1  0.09073504  0.24410500  0.70027693  1
  Se  Se243  1  0.09207904  0.57651035  0.19007194  1
  Se  Se244  1  0.07895507  0.59014856  0.68754442  1
  Se  Se245  1  0.08700556  0.91720911  0.18900559  1
  Se  Se246  1  0.09036821  0.90050524  0.69551460  1
  Se  Se247  1  0.41357266  0.23720859  0.18584447  1
  Se  Se248  1  0.43761226  0.24101108  0.69934260  1
  Se  Se249  1  0.41784628  0.58516343  0.20226410  1
  Se  Se250  1  0.41630585  0.58423798  0.69870805  1
  Se  Se251  1  0.42577502  0.90485349  0.18940850  1
  Se  Se252  1  0.41298186  0.92002984  0.68422325  1
  Se  Se253  1  0.72818036  0.26217365  0.20664605  1
  Se  Se254  1  0.74613897  0.24704255  0.69406617  1
  Se  Se255  1  0.74713735  0.58564109  0.19637367  1
  Se  Se256  1  0.75445647  0.57698068  0.68309600  1
  Se  Se257  1  0.74345990  0.91662610  0.19964403  1
  Se  Se258  1  0.74413823  0.91929708  0.69909607  1
