# generated using pymatgen
data_In86Cu29Se144
_symmetry_space_group_name_H-M   'P 1'
_cell_length_a   17.58055425
_cell_length_b   17.58528218
_cell_length_c   23.43853326
_cell_angle_alpha   90.00116412
_cell_angle_beta   90.02574174
_cell_angle_gamma   90.03789643
_symmetry_Int_Tables_number   1
_chemical_formula_structural   In86Cu29Se144
_chemical_formula_sum   'In86 Cu29 Se144'
_cell_volume   7246.23135680
_cell_formula_units_Z   1
loop_
 _symmetry_equiv_pos_site_id
 _symmetry_equiv_pos_as_xyz
  1  'x, y, z'
loop_
 _atom_site_type_symbol
 _atom_site_label
 _atom_site_symmetry_multiplicity
 _atom_site_fract_x
 _atom_site_fract_y
 _atom_site_fract_z
 _atom_site_occupancy
  In  In0  1  -0.00386085  0.16828488  0.11153133  1
  In  In1  1  -0.01802039  0.18309568  0.63616679  1
  In  In2  1  0.00174341  0.48942411  0.11909571  1
  In  In3  1  -0.00706338  0.50116742  0.63141102  1
  In  In4  1  0.00248999  0.83873284  0.12234369  1
  In  In5  1  -0.00037204  0.83387113  0.62708972  1
  In  In6  1  0.32886307  0.16137326  0.11786168  1
  In  In7  1  0.33851480  0.15824350  0.62257116  1
  In  In8  1  0.33462449  0.50393055  0.11365755  1
  In  In9  1  0.33212339  0.51602326  0.62799827  1
  In  In10  1  0.34628784  0.82662353  0.12795636  1
  In  In11  1  0.31782641  0.83388776  0.62062497  1
  In  In12  1  0.67655426  0.17081318  0.11449554  1
  In  In13  1  0.66905367  0.16731903  0.62586642  1
  In  In14  1  0.64954464  0.50900897  0.13909141  1
  In  In15  1  0.67703905  0.49728237  0.63797485  1
  In  In16  1  0.65209974  0.83286451  0.12227392  1
  In  In17  1  0.68473901  0.81505803  0.64349769  1
  In  In18  1  0.16733677  -0.01090922  0.37331497  1
  In  In19  1  0.16511245  0.00751094  0.87617373  1
  In  In20  1  0.17389051  0.34508984  0.38075473  1
  In  In21  1  0.15848452  0.33995634  0.87744127  1
  In  In22  1  0.16091540  0.67206679  0.38794701  1
  In  In23  1  0.16324616  0.64790966  0.85686110  1
  In  In24  1  0.50314981  0.01263446  0.37103936  1
  In  In25  1  0.51614443  -0.01045330  0.89254312  1
  In  In26  1  0.49966913  0.32309316  0.37544321  1
  In  In27  1  0.51421703  0.32067328  0.88419101  1
  In  In28  1  0.52073945  0.65903905  0.37744971  1
  In  In29  1  0.49667798  0.66727031  0.87223918  1
  In  In30  1  0.83437601  -0.00137716  0.38805424  1
  In  In31  1  0.83707712  0.00646738  0.86891576  1
  In  In32  1  0.82205448  0.34596041  0.38679471  1
  In  In33  1  0.82333594  0.33091887  0.85720324  1
  In  In34  1  0.82038570  0.66841113  0.39054644  1
  In  In35  1  0.82851027  0.64697068  0.84657688  1
  In  In36  1  -0.00536840  0.15764117  0.37968598  1
  In  In37  1  -0.00164313  0.16796455  0.87178446  1
  In  In38  1  -0.00435944  0.50432193  0.38880191  1
  In  In39  1  0.01008470  0.50109831  0.85345803  1
  In  In40  1  0.00032437  0.82703389  0.38908631  1
  In  In41  1  -0.00588629  0.82656294  0.86290667  1
  In  In42  1  0.34666885  0.17000595  0.37280702  1
  In  In43  1  0.34047497  0.15888091  0.88666165  1
  In  In44  1  0.33046293  0.49373074  0.38187077  1
  In  In45  1  0.32802755  0.50808253  0.87776838  1
  In  In46  1  0.32066286  0.83507310  0.37170911  1
  In  In47  1  0.35416370  0.82545050  0.87219187  1
  In  In48  1  0.66299126  0.16955166  0.38275212  1
  In  In49  1  0.66897720  0.16552924  0.87426146  1
  In  In50  1  0.67107233  0.50729380  0.36434038  1
  In  In51  1  0.66457331  0.49105057  0.86637254  1
  In  In52  1  0.67928804  0.82852579  0.38224577  1
  In  In53  1  0.64808181  0.83011363  0.86401381  1
  In  In54  1  0.15906429  0.01054315  0.12627742  1
  In  In55  1  0.16562460  -0.01190602  0.62382415  1
  In  In56  1  0.16983640  0.33572783  0.11265614  1
  In  In57  1  0.14742578  0.34432134  0.63547230  1
  In  In58  1  0.17936889  0.66475831  0.12111442  1
  In  In59  1  0.15891496  0.66318926  0.62840694  1
  In  In60  1  0.49754865  -0.01358764  0.11538566  1
  In  In61  1  0.50115719  0.01227989  0.62414382  1
  In  In62  1  0.51293904  0.34570236  0.11422157  1
  In  In63  1  0.51662706  0.33175581  0.62989731  1
  In  In64  1  0.50082461  0.66843869  0.11827050  1
  In  In65  1  0.51420688  0.66510332  0.64263946  1
  In  In66  1  0.81700737  0.00656071  0.11798260  1
  In  In67  1  0.83192749  -0.00022891  0.62626385  1
  In  In68  1  0.82526297  0.32177268  0.11995617  1
  In  In69  1  0.83234997  0.33610321  0.62694701  1
  In  In70  1  0.83015106  0.65166241  0.12443063  1
  In  In71  1  0.82926785  0.66919395  0.62983480  1
  In  In72  1  0.16073579  0.17347408  0.50330764  1
  In  In73  1  0.33958172  0.66736149  0.24705807  1
  In  In74  1  0.82892918  0.83078126  -0.01809610  1
  In  In75  1  0.17166116  0.82862959  -0.00303378  1
  In  In76  1  0.32959140  0.33793661  0.75626967  1
  In  In77  1  0.83098876  0.49021825  -0.01586979  1
  In  In78  1  -0.00147817  -0.00204258  0.24722159  1
  In  In79  1  0.66340558  -0.00194884  0.24502433  1
  In  In80  1  0.34084575  0.33640315  0.24865825  1
  In  In81  1  0.33649749  -0.00573562  0.75641838  1
  In  In82  1  -0.00646414  0.33295902  0.25161563  1
  In  In83  1  0.50279889  0.49868094  0.50825704  1
  In  In84  1  0.50254444  0.83631233  0.50519123  1
  In  In85  1  -0.00086486  0.66722616  0.26402038  1
  Cu  Cu86  1  0.33135941  0.67159284  0.50414252  1
  Cu  Cu87  1  -0.00699061  0.34005674  0.51068029  1
  Cu  Cu88  1  0.16362929  0.16229627  0.75573136  1
  Cu  Cu89  1  0.83311826  0.84251129  0.74809150  1
  Cu  Cu90  1  0.33440944  0.00320234  0.49957497  1
  Cu  Cu91  1  0.00569594  0.65738587  -0.01468702  1
  Cu  Cu92  1  0.00457525  0.33278420  -0.00804821  1
  Cu  Cu93  1  0.66196184  0.67016447  -0.00241770  1
  Cu  Cu94  1  0.51014558  0.17034424  0.75409707  1
  Cu  Cu95  1  0.16584578  0.82817683  0.74579122  1
  Cu  Cu96  1  0.50031236  0.16708481  0.24717149  1
  Cu  Cu97  1  0.83498134  0.82364994  0.25612478  1
  Cu  Cu98  1  0.81908903  0.49695071  0.25349814  1
  Cu  Cu99  1  -0.00216364  0.66560328  0.51157688  1
  Cu  Cu100  1  0.33409961  0.66190659  -0.00466783  1
  Cu  Cu101  1  0.66600225  0.32926563  0.50501170  1
  Cu  Cu102  1  0.83074058  0.16478723  0.74766222  1
  Cu  Cu103  1  -0.00479615  0.00298284  -0.00547002  1
  Cu  Cu104  1  0.67265418  0.33596540  -0.00551694  1
  Cu  Cu105  1  0.17117117  0.16923097  0.24157909  1
  Cu  Cu106  1  0.50022396  0.82988021  0.24677353  1
  Cu  Cu107  1  0.82452283  0.16933549  0.24863856  1
  Cu  Cu108  1  -0.00304911  0.00240859  0.50642753  1
  Cu  Cu109  1  0.33283911  -0.00222453  0.00033462  1
  Cu  Cu110  1  0.16686586  0.50735885  0.24908425  1
  Cu  Cu111  1  0.66933876  -0.00052004  0.50461615  1
  Cu  Cu112  1  0.33514199  0.33320668  -0.00385665  1
  Cu  Cu113  1  0.32917862  0.33511262  0.50179076  1
  Cu  Cu114  1  0.50466689  0.49611166  0.75450199  1
  Se  Se115  1  0.08245335  0.08200853  0.04895969  1
  Se  Se116  1  0.07541281  0.08510365  0.56660335  1
  Se  Se117  1  0.08513576  0.41905900  0.04612049  1
  Se  Se118  1  0.08083637  0.42365462  0.55768604  1
  Se  Se119  1  0.07379181  0.73807092  0.05392505  1
  Se  Se120  1  0.08484529  0.75279731  0.55757735  1
  Se  Se121  1  0.41775896  0.08028137  0.05305026  1
  Se  Se122  1  0.42009307  0.08696369  0.54831906  1
  Se  Se123  1  0.41784540  0.41886428  0.04901885  1
  Se  Se124  1  0.40997858  0.40843196  0.56784915  1
  Se  Se125  1  0.41393033  0.74832174  0.05004348  1
  Se  Se126  1  0.41761602  0.74124928  0.56580446  1
  Se  Se127  1  0.75462566  0.08947266  0.04307082  1
  Se  Se128  1  0.75236917  0.08568625  0.55602491  1
  Se  Se129  1  0.74408284  0.42085568  0.05938290  1
  Se  Se130  1  0.74420413  0.41645709  0.55909749  1
  Se  Se131  1  0.75019739  0.74397749  0.05634890  1
  Se  Se132  1  0.74750717  0.75069881  0.55869867  1
  Se  Se133  1  0.25043806  0.24815458  0.04890999  1
  Se  Se134  1  0.25024302  0.25965634  0.56740892  1
  Se  Se135  1  0.24487956  0.58084244  0.04608263  1
  Se  Se136  1  0.24711702  0.58693417  0.55535021  1
  Se  Se137  1  0.25350232  0.91841910  0.06315476  1
  Se  Se138  1  0.24706982  0.91940623  0.54701644  1
  Se  Se139  1  0.58859413  0.25332359  0.04913277  1
  Se  Se140  1  0.57983944  0.24517752  0.55472993  1
  Se  Se141  1  0.58707137  0.58195236  0.05422700  1
  Se  Se142  1  0.59276962  0.58762816  0.56622705  1
  Se  Se143  1  0.59887347  0.92559883  0.04957016  1
  Se  Se144  1  0.59388927  0.91937092  0.56749122  1
  Se  Se145  1  0.91599148  0.25709790  0.04733389  1
  Se  Se146  1  0.90985206  0.24900348  0.55406999  1
  Se  Se147  1  0.92187863  0.58295082  0.04906315  1
  Se  Se148  1  0.91135348  0.58275427  0.56094849  1
  Se  Se149  1  0.91572746  0.91944534  0.05315155  1
  Se  Se150  1  0.91513812  0.91552399  0.55744908  1
  Se  Se151  1  0.07003535  0.26526518  0.44133161  1
  Se  Se152  1  0.08688527  0.24369250  0.94302517  1
  Se  Se153  1  0.08259736  0.58493794  0.45422547  1
  Se  Se154  1  0.08709408  0.57320258  0.93373436  1
  Se  Se155  1  0.08057955  0.92390843  0.44804834  1
  Se  Se156  1  0.07263082  0.91382804  0.94012969  1
  Se  Se157  1  0.41333635  0.25310280  0.44930923  1
  Se  Se158  1  0.42203948  0.24678216  0.95135644  1
  Se  Se159  1  0.41369445  0.59199483  0.44441839  1
  Se  Se160  1  0.42210835  0.58080293  0.94477653  1
  Se  Se161  1  0.41438085  0.92263107  0.43876425  1
  Se  Se162  1  0.41473643  0.91165592  0.94955532  1
  Se  Se163  1  0.75104823  0.24716696  0.45033979  1
  Se  Se164  1  0.75535669  0.25623703  0.93816378  1
  Se  Se165  1  0.74787095  0.56534620  0.44645022  1
  Se  Se166  1  0.74514260  0.59439182  0.93540352  1
  Se  Se167  1  0.75262089  0.91315686  0.45385916  1
  Se  Se168  1  0.73781332  0.92329366  0.93079526  1
  Se  Se169  1  0.25218030  0.08616031  0.44036623  1
  Se  Se170  1  0.24641592  0.08021694  0.95016115  1
  Se  Se171  1  0.24562586  0.42461698  0.45636222  1
  Se  Se172  1  0.25119285  0.41577695  0.94318072  1
  Se  Se173  1  0.25143036  0.75605159  0.44932462  1
  Se  Se174  1  0.25386509  0.73954476  0.93242885  1
  Se  Se175  1  0.58404706  0.07892817  0.44857406  1
  Se  Se176  1  0.56812005  0.10719436  0.94324986  1
  Se  Se177  1  0.58626881  0.40995820  0.44300001  1
  Se  Se178  1  0.58748486  0.42193996  0.94574851  1
  Se  Se179  1  0.59570358  0.74062631  0.45242948  1
  Se  Se180  1  0.57917015  0.75190390  0.94346145  1
  Se  Se181  1  0.91377922  0.08752306  0.45446845  1
  Se  Se182  1  0.91341849  0.08768054  0.94284678  1
  Se  Se183  1  0.91043609  0.42241614  0.45420253  1
  Se  Se184  1  0.92845697  0.40914874  0.92638113  1
  Se  Se185  1  0.91421207  0.74639309  0.45397807  1
  Se  Se186  1  0.91647787  0.72990143  0.92949203  1
  Se  Se187  1  0.24248415  0.24914553  0.30820883  1
  Se  Se188  1  0.24906379  0.23727577  0.81487445  1
  Se  Se189  1  0.24477824  0.58333168  0.31254980  1
  Se  Se190  1  0.26968594  0.58782147  0.79629739  1
  Se  Se191  1  0.25780716  0.92751940  0.30150274  1
  Se  Se192  1  0.24218947  0.90341774  0.81398530  1
  Se  Se193  1  0.58318540  0.24258976  0.30629973  1
  Se  Se194  1  0.59309915  0.25714416  0.80382078  1
  Se  Se195  1  0.57806768  0.57926150  0.29823957  1
  Se  Se196  1  0.58526098  0.58531869  0.80513906  1
  Se  Se197  1  0.58156106  0.90616768  0.31150620  1
  Se  Se198  1  0.57256541  0.92819742  0.80315932  1
  Se  Se199  1  0.90581947  0.24322208  0.31266152  1
  Se  Se200  1  0.91753635  0.24715692  0.79908638  1
  Se  Se201  1  0.90418839  0.57309045  0.31347291  1
  Se  Se202  1  0.93869254  0.59313410  0.78480929  1
  Se  Se203  1  0.91212491  0.90884812  0.31297863  1
  Se  Se204  1  0.92046887  0.92308439  0.80061585  1
  Se  Se205  1  0.08913359  0.09398829  0.30502988  1
  Se  Se206  1  0.07815673  0.07655874  0.80418821  1
  Se  Se207  1  0.08594193  0.42701356  0.30907438  1
  Se  Se208  1  0.09262232  0.40722014  0.79443937  1
  Se  Se209  1  0.09379411  0.76350869  0.31144049  1
  Se  Se210  1  0.08213252  0.74507577  0.79877773  1
  Se  Se211  1  0.41564938  0.08393130  0.29900526  1
  Se  Se212  1  0.42617240  0.08880612  0.81070766  1
  Se  Se213  1  0.42560363  0.42754066  0.31113438  1
  Se  Se214  1  0.42731479  0.41587359  0.81751536  1
  Se  Se215  1  0.42727427  0.75278196  0.31493765  1
  Se  Se216  1  0.42807217  0.75293375  0.79614929  1
  Se  Se217  1  0.75488823  0.08100880  0.31025056  1
  Se  Se218  1  0.74664146  0.08306576  0.80172959  1
  Se  Se219  1  0.74360029  0.40433884  0.30399122  1
  Se  Se220  1  0.77082283  0.44343330  0.79894922  1
  Se  Se221  1  0.75011757  0.74299992  0.30881455  1
  Se  Se222  1  0.75210924  0.75910383  0.80382459  1
  Se  Se223  1  0.25284757  0.08199410  0.19357107  1
  Se  Se224  1  0.24520481  0.08596427  0.69379766  1
  Se  Se225  1  0.24364174  0.42435986  0.18977467  1
  Se  Se226  1  0.24394238  0.42922917  0.69571367  1
  Se  Se227  1  0.24176926  0.75828119  0.19490779  1
  Se  Se228  1  0.25030402  0.74645033  0.69339952  1
  Se  Se229  1  0.57831172  0.08884889  0.18360978  1
  Se  Se230  1  0.58566928  0.08479740  0.69674416  1
  Se  Se231  1  0.58481024  0.40482767  0.19863748  1
  Se  Se232  1  0.58928736  0.41248950  0.70320463  1
  Se  Se233  1  0.58133609  0.74567293  0.19366150  1
  Se  Se234  1  0.57490169  0.76536027  0.70761340  1
  Se  Se235  1  0.90759407  0.09159609  0.18890989  1
  Se  Se236  1  0.91708700  0.07927685  0.69755019  1
  Se  Se237  1  0.90334447  0.42399670  0.19073435  1
  Se  Se238  1  0.93444667  0.39425789  0.69399862  1
  Se  Se239  1  0.91458143  0.75104152  0.19011408  1
  Se  Se240  1  0.91424989  0.75545386  0.69644302  1
  Se  Se241  1  0.08585303  0.24845086  0.18648725  1
  Se  Se242  1  0.08370130  0.24647497  0.70191114  1
  Se  Se243  1  0.08240900  0.58262477  0.18966792  1
  Se  Se244  1  0.06911779  0.59222738  0.70013096  1
  Se  Se245  1  0.09438512  0.90556297  0.19491790  1
  Se  Se246  1  0.08356846  0.91733643  0.69789611  1
  Se  Se247  1  0.42225444  0.24645682  0.18448867  1
  Se  Se248  1  0.41996442  0.24404413  0.69573183  1
  Se  Se249  1  0.42327986  0.57209702  0.18929450  1
  Se  Se250  1  0.42244208  0.57902132  0.70100928  1
  Se  Se251  1  0.42054385  0.91738075  0.19574723  1
  Se  Se252  1  0.41577711  0.91391661  0.68395655  1
  Se  Se253  1  0.74258967  0.25093461  0.19477251  1
  Se  Se254  1  0.74829565  0.25171525  0.69587768  1
  Se  Se255  1  0.74545750  0.58886465  0.20028884  1
  Se  Se256  1  0.74742218  0.59231909  0.70353409  1
  Se  Se257  1  0.75995699  0.90451113  0.19119502  1
  Se  Se258  1  0.74590157  0.92694080  0.69957951  1
