# generated using pymatgen
data_In86Cu29Se144
_symmetry_space_group_name_H-M   'P 1'
_cell_length_a   17.57835389
_cell_length_b   17.58331077
_cell_length_c   23.43938604
_cell_angle_alpha   90.02777787
_cell_angle_beta   89.97977670
_cell_angle_gamma   90.00870256
_symmetry_Int_Tables_number   1
_chemical_formula_structural   In86Cu29Se144
_chemical_formula_sum   'In86 Cu29 Se144'
_cell_volume   7244.77670013
_cell_formula_units_Z   1
loop_
 _symmetry_equiv_pos_site_id
 _symmetry_equiv_pos_as_xyz
  1  'x, y, z'
loop_
 _atom_site_type_symbol
 _atom_site_label
 _atom_site_symmetry_multiplicity
 _atom_site_fract_x
 _atom_site_fract_y
 _atom_site_fract_z
 _atom_site_occupancy
  In  In0  1  0.01620079  0.16912570  0.11875531  1
  In  In1  1  0.01148216  0.15375954  0.63539462  1
  In  In2  1  0.00292082  0.50802082  0.11815613  1
  In  In3  1  -0.02074254  0.51139510  0.64691348  1
  In  In4  1  -0.00678646  0.82396905  0.12762047  1
  In  In5  1  0.00390819  0.83325420  0.62091375  1
  In  In6  1  0.33152585  0.16193521  0.12557910  1
  In  In7  1  0.30934334  0.16065285  0.61824834  1
  In  In8  1  0.33003400  0.50002249  0.12641672  1
  In  In9  1  0.33996193  0.49890726  0.62366984  1
  In  In10  1  0.33630834  0.83053638  0.13232209  1
  In  In11  1  0.34096885  0.84257623  0.61685222  1
  In  In12  1  0.65885977  0.18188463  0.12616743  1
  In  In13  1  0.65092658  0.16469787  0.62674713  1
  In  In14  1  0.66614273  0.50366855  0.12668124  1
  In  In15  1  0.68027975  0.49423433  0.62353303  1
  In  In16  1  0.65342075  0.83077273  0.12660520  1
  In  In17  1  0.67421279  0.83239198  0.61899909  1
  In  In18  1  0.17527399  -0.00461357  0.37882594  1
  In  In19  1  0.17641549  0.00811106  0.86612611  1
  In  In20  1  0.17434641  0.32543256  0.37705491  1
  In  In21  1  0.16344990  0.33502285  0.88416371  1
  In  In22  1  0.16984836  0.67258484  0.36860114  1
  In  In23  1  0.15498575  0.66266588  0.87692338  1
  In  In24  1  0.48597703  0.00088410  0.37242904  1
  In  In25  1  0.49870465  0.00018547  0.87768576  1
  In  In26  1  0.50482036  0.33628489  0.36116479  1
  In  In27  1  0.49795586  0.33429766  0.88812867  1
  In  In28  1  0.50523285  0.67200534  0.36923773  1
  In  In29  1  0.50213578  0.67076040  0.89173491  1
  In  In30  1  0.82361419  -0.01228055  0.38068644  1
  In  In31  1  0.83245934  0.00024817  0.86040198  1
  In  In32  1  0.83767039  0.35762068  0.36796702  1
  In  In33  1  0.84677953  0.34520598  0.87142979  1
  In  In34  1  0.83823818  0.66752555  0.37308455  1
  In  In35  1  0.84433390  0.65223588  0.87671263  1
  In  In36  1  0.01661703  0.17119009  0.37990201  1
  In  In37  1  0.00996897  0.17464725  0.86921734  1
  In  In38  1  -0.01534586  0.50936077  0.37911620  1
  In  In39  1  0.00444574  0.50251216  0.87722420  1
  In  In40  1  0.01402976  0.81867924  0.39242143  1
  In  In41  1  -0.00477892  0.82704899  0.86327713  1
  In  In42  1  0.32629292  0.16702605  0.36161234  1
  In  In43  1  0.33944919  0.15271597  0.88944541  1
  In  In44  1  0.33191524  0.50079931  0.36092859  1
  In  In45  1  0.33481840  0.49936881  0.89087959  1
  In  In46  1  0.33214824  0.83504169  0.37450824  1
  In  In47  1  0.33233610  0.85061727  0.87947657  1
  In  In48  1  0.65746640  0.16646937  0.36824383  1
  In  In49  1  0.66558928  0.15987639  0.87483297  1
  In  In50  1  0.69287565  0.52334359  0.34554692  1
  In  In51  1  0.67038943  0.49943973  0.88595361  1
  In  In52  1  0.67695425  0.82017932  0.38759135  1
  In  In53  1  0.65619270  0.83415350  0.87556976  1
  In  In54  1  0.18026860  0.01466443  0.11499324  1
  In  In55  1  0.16814744  -0.00179123  0.62477946  1
  In  In56  1  0.17040986  0.33773025  0.12613317  1
  In  In57  1  0.16377955  0.31599412  0.61791248  1
  In  In58  1  0.17041971  0.66443686  0.13061110  1
  In  In59  1  0.14244166  0.66459105  0.62103717  1
  In  In60  1  0.47761649  -0.01578443  0.10770262  1
  In  In61  1  0.50611761  -0.01029667  0.63431869  1
  In  In62  1  0.49430974  0.33176184  0.12127842  1
  In  In63  1  0.50200117  0.33697839  0.62341199  1
  In  In64  1  0.49923146  0.66680246  0.12906053  1
  In  In65  1  0.48715360  0.67397880  0.62338944  1
  In  In66  1  0.83612398  -0.00446908  0.12478711  1
  In  In67  1  0.84008789  -0.01101889  0.63263940  1
  In  In68  1  0.81878177  0.34452163  0.13019158  1
  In  In69  1  0.84427477  0.35091496  0.61822403  1
  In  In70  1  0.84652806  0.64354097  0.14748027  1
  In  In71  1  0.84956939  0.67076625  0.61328714  1
  In  In72  1  0.83269813  0.17549996  -0.00656583  1
  In  In73  1  0.49409287  0.16436245  0.49103679  1
  In  In74  1  0.16009980  0.50107827  0.49610186  1
  In  In75  1  0.16664707  0.82750437  0.00201538  1
  In  In76  1  0.32910230  0.32632713  0.74744757  1
  In  In77  1  0.83360670  0.16479019  0.49938236  1
  In  In78  1  0.50344058  0.50070390  0.49372443  1
  In  In79  1  0.00585151  0.34072758  0.24754864  1
  In  In80  1  0.67522123  0.67031584  0.74842159  1
  In  In81  1  0.66031245  0.00227710  0.25067104  1
  In  In82  1  0.32363782  0.67467216  0.75422340  1
  In  In83  1  0.82544645  0.82440894  -0.00655744  1
  In  In84  1  0.67497587  0.32918384  0.75861390  1
  In  In85  1  0.00903146  -0.00782663  0.25648896  1
  Cu  Cu86  1  0.66955519  0.66647453  0.00921072  1
  Cu  Cu87  1  0.49586660  0.16686793  0.24287782  1
  Cu  Cu88  1  0.16767658  0.83811582  0.25245416  1
  Cu  Cu89  1  0.50402411  0.49961328  0.75988129  1
  Cu  Cu90  1  0.00431958  0.00197328  0.50815599  1
  Cu  Cu91  1  0.32563852  0.67289941  0.49623787  1
  Cu  Cu92  1  0.49698081  0.84225656  0.75359949  1
  Cu  Cu93  1  0.82969084  0.16900302  0.74682585  1
  Cu  Cu94  1  0.49530775  0.49561202  0.23951498  1
  Cu  Cu95  1  0.66026030  0.01030228  0.00057103  1
  Cu  Cu96  1  0.67124928  0.34110313  0.48956060  1
  Cu  Cu97  1  0.00456747  -0.00322806  -0.00798636  1
  Cu  Cu98  1  0.66248520  0.34236494  0.00465751  1
  Cu  Cu99  1  0.83063320  0.82250375  0.25698909  1
  Cu  Cu100  1  -0.00126310  0.33758645  -0.00183537  1
  Cu  Cu101  1  0.83344227  0.83410742  0.74171576  1
  Cu  Cu102  1  0.48984158  0.15732225  0.75215835  1
  Cu  Cu103  1  0.66667688  0.65893887  0.49256734  1
  Cu  Cu104  1  0.33235805  -0.00037721  0.49754601  1
  Cu  Cu105  1  0.15923827  0.49082369  0.75400863  1
  Cu  Cu106  1  0.84429020  0.17040651  0.24607589  1
  Cu  Cu107  1  0.00712663  0.33422616  0.50047527  1
  Cu  Cu108  1  0.16702245  0.16163782  0.75120971  1
  Cu  Cu109  1  0.33474314  0.66682514  0.01022438  1
  Cu  Cu110  1  0.16167732  0.83355601  0.74512299  1
  Cu  Cu111  1  0.66439541  -0.01135824  0.50821022  1
  Cu  Cu112  1  0.32677645  0.33115033  0.00854492  1
  Cu  Cu113  1  0.49761685  0.83298092  0.25124278  1
  Cu  Cu114  1  0.16255887  0.50380918  0.24776659  1
  Se  Se115  1  0.08408168  0.08127874  0.04627657  1
  Se  Se116  1  0.08964901  0.08826954  0.55545473  1
  Se  Se117  1  0.08302895  0.41486305  0.05675465  1
  Se  Se118  1  0.07672573  0.41805732  0.56581028  1
  Se  Se119  1  0.07346472  0.73828741  0.05792689  1
  Se  Se120  1  0.08005789  0.75146136  0.54782470  1
  Se  Se121  1  0.42277909  0.09638168  0.05248522  1
  Se  Se122  1  0.41477865  0.07682382  0.56100703  1
  Se  Se123  1  0.41223360  0.41921140  0.05508372  1
  Se  Se124  1  0.41072872  0.40719579  0.55145421  1
  Se  Se125  1  0.41810396  0.75304307  0.05952138  1
  Se  Se126  1  0.41585647  0.75204436  0.54778413  1
  Se  Se127  1  0.74809632  0.08287657  0.05968698  1
  Se  Se128  1  0.74218440  0.07822182  0.56234521  1
  Se  Se129  1  0.75032355  0.42411608  0.05328985  1
  Se  Se130  1  0.75442880  0.41992110  0.54622714  1
  Se  Se131  1  0.75192614  0.74415928  0.06969037  1
  Se  Se132  1  0.74681933  0.74023783  0.55235222  1
  Se  Se133  1  0.24298758  0.24538201  0.05819890  1
  Se  Se134  1  0.26260545  0.26150339  0.54838004  1
  Se  Se135  1  0.24610039  0.58343976  0.05677999  1
  Se  Se136  1  0.25504145  0.58983611  0.55998376  1
  Se  Se137  1  0.26209612  0.91789424  0.05391309  1
  Se  Se138  1  0.24786699  0.91750352  0.55172703  1
  Se  Se139  1  0.58029848  0.25148731  0.04963256  1
  Se  Se140  1  0.59053917  0.26027116  0.54883014  1
  Se  Se141  1  0.58041764  0.58454465  0.05795507  1
  Se  Se142  1  0.58848636  0.58815277  0.56320963  1
  Se  Se143  1  0.58739741  0.91701595  0.05248634  1
  Se  Se144  1  0.57514802  0.90852571  0.55763930  1
  Se  Se145  1  0.91868930  0.25939343  0.06233074  1
  Se  Se146  1  0.92736277  0.24857268  0.56018705  1
  Se  Se147  1  0.90607767  0.58567172  0.05783550  1
  Se  Se148  1  0.92101811  0.56747208  0.55613905  1
  Se  Se149  1  0.92310472  0.91912930  0.05176037  1
  Se  Se150  1  0.91574034  0.91842089  0.55474978  1
  Se  Se151  1  0.09372089  0.25061562  0.45258547  1
  Se  Se152  1  0.07987355  0.24690006  0.95009844  1
  Se  Se153  1  0.07456941  0.59803313  0.44119531  1
  Se  Se154  1  0.09581026  0.57122269  0.94850955  1
  Se  Se155  1  0.08638937  0.92257853  0.44901114  1
  Se  Se156  1  0.08091514  0.91276168  0.93372183  1
  Se  Se157  1  0.41339892  0.25857059  0.43156876  1
  Se  Se158  1  0.41128760  0.25167823  0.95179691  1
  Se  Se159  1  0.40627717  0.58907114  0.43849741  1
  Se  Se160  1  0.41962301  0.58353271  0.95587617  1
  Se  Se161  1  0.41723884  0.91581880  0.44600291  1
  Se  Se162  1  0.42884847  0.90897714  0.94777907  1
  Se  Se163  1  0.74854143  0.25275890  0.43328113  1
  Se  Se164  1  0.74035734  0.26744846  0.93630166  1
  Se  Se165  1  0.75057732  0.57844416  0.43810680  1
  Se  Se166  1  0.75159683  0.58946540  0.94918620  1
  Se  Se167  1  0.75273498  0.90900602  0.45674940  1
  Se  Se168  1  0.74392313  0.93120292  0.94047162  1
  Se  Se169  1  0.25778758  0.08783167  0.44142086  1
  Se  Se170  1  0.24152497  0.07663358  0.94900455  1
  Se  Se171  1  0.26029876  0.41877884  0.44091671  1
  Se  Se172  1  0.24648644  0.41628958  0.95314095  1
  Se  Se173  1  0.24366054  0.75555573  0.44280746  1
  Se  Se174  1  0.26020881  0.74003308  0.93926342  1
  Se  Se175  1  0.59349592  0.06942561  0.44186530  1
  Se  Se176  1  0.57779830  0.09149825  0.94619298  1
  Se  Se177  1  0.59353792  0.42064721  0.42878986  1
  Se  Se178  1  0.57715298  0.42573486  0.95150932  1
  Se  Se179  1  0.57758018  0.74540202  0.44908410  1
  Se  Se180  1  0.59147990  0.75398934  0.95463993  1
  Se  Se181  1  0.92610366  0.07435979  0.43951497  1
  Se  Se182  1  0.91861879  0.07725987  0.93666368  1
  Se  Se183  1  0.91928320  0.41425804  0.44940151  1
  Se  Se184  1  0.91572151  0.42336675  0.94852355  1
  Se  Se185  1  0.90053211  0.76106277  0.44526648  1
  Se  Se186  1  0.93009116  0.74165880  0.94391170  1
  Se  Se187  1  0.25351533  0.26364452  0.29806688  1
  Se  Se188  1  0.24651430  0.24065770  0.81446013  1
  Se  Se189  1  0.24868806  0.58918713  0.29823710  1
  Se  Se190  1  0.24798333  0.56849585  0.81049397  1
  Se  Se191  1  0.25346854  0.92054176  0.30324822  1
  Se  Se192  1  0.24855362  0.91153801  0.80055358  1
  Se  Se193  1  0.58444495  0.24630569  0.29456191  1
  Se  Se194  1  0.56806288  0.24557812  0.80864887  1
  Se  Se195  1  0.57195512  0.57896382  0.29887007  1
  Se  Se196  1  0.58175923  0.58602619  0.81427477  1
  Se  Se197  1  0.58152826  0.90803452  0.31479947  1
  Se  Se198  1  0.58494258  0.92216366  0.80532948  1
  Se  Se199  1  0.91849062  0.24645799  0.31219631  1
  Se  Se200  1  0.91157981  0.24673960  0.80546404  1
  Se  Se201  1  0.91075493  0.57950150  0.30172944  1
  Se  Se202  1  0.92646304  0.58322315  0.80365543  1
  Se  Se203  1  0.91182879  0.90670981  0.31306793  1
  Se  Se204  1  0.91854419  0.91663810  0.79633839  1
  Se  Se205  1  0.09721486  0.09130357  0.30700433  1
  Se  Se206  1  0.07839411  0.07881258  0.80162695  1
  Se  Se207  1  0.08867976  0.42766861  0.31657001  1
  Se  Se208  1  0.08094234  0.40736378  0.80975910  1
  Se  Se209  1  0.08023693  0.75737873  0.30455599  1
  Se  Se210  1  0.08660121  0.74516373  0.80051227  1
  Se  Se211  1  0.41608039  0.08290432  0.29844897  1
  Se  Se212  1  0.40821372  0.07781243  0.80860442  1
  Se  Se213  1  0.41385427  0.41366199  0.29578360  1
  Se  Se214  1  0.41741446  0.41823010  0.81175715  1
  Se  Se215  1  0.41296531  0.75026586  0.30484690  1
  Se  Se216  1  0.42467034  0.75365841  0.81330921  1
  Se  Se217  1  0.76358137  0.08860396  0.30645846  1
  Se  Se218  1  0.74426007  0.08715589  0.79923758  1
  Se  Se219  1  0.73692969  0.39938232  0.29646629  1
  Se  Se220  1  0.75788633  0.43483577  0.80611389  1
  Se  Se221  1  0.74069891  0.74358682  0.30679403  1
  Se  Se222  1  0.76178320  0.75900534  0.81333947  1
  Se  Se223  1  0.25245371  0.07757098  0.19630469  1
  Se  Se224  1  0.25104888  0.07885181  0.69795485  1
  Se  Se225  1  0.24762240  0.41887823  0.19850863  1
  Se  Se226  1  0.24246023  0.42176192  0.68848936  1
  Se  Se227  1  0.24875606  0.75139307  0.19884366  1
  Se  Se228  1  0.24224376  0.75458407  0.68246587  1
  Se  Se229  1  0.57352041  0.08227985  0.18308602  1
  Se  Se230  1  0.58227355  0.08123124  0.70120107  1
  Se  Se231  1  0.58168084  0.41222169  0.18951449  1
  Se  Se232  1  0.58151607  0.42261269  0.69654177  1
  Se  Se233  1  0.58235805  0.74893304  0.20075754  1
  Se  Se234  1  0.57351556  0.75627610  0.69374117  1
  Se  Se235  1  0.92184279  0.08627821  0.18921941  1
  Se  Se236  1  0.91450049  0.08151789  0.69854543  1
  Se  Se237  1  0.91110038  0.42826343  0.19287147  1
  Se  Se238  1  0.92007937  0.40053700  0.70336853  1
  Se  Se239  1  0.92131391  0.74719681  0.20432263  1
  Se  Se240  1  0.91835476  0.75083637  0.69080122  1
  Se  Se241  1  0.09398814  0.24090963  0.19733577  1
  Se  Se242  1  0.08745417  0.25000018  0.69888620  1
  Se  Se243  1  0.07799232  0.58526054  0.19535964  1
  Se  Se244  1  0.08422321  0.58416068  0.70311209  1
  Se  Se245  1  0.09190451  0.91242615  0.18312364  1
  Se  Se246  1  0.08000791  0.91919306  0.69259910  1
  Se  Se247  1  0.41186137  0.25257705  0.19283986  1
  Se  Se248  1  0.42115259  0.23877608  0.68517496  1
  Se  Se249  1  0.41045636  0.58608140  0.19521514  1
  Se  Se250  1  0.42270669  0.57868894  0.69981404  1
  Se  Se251  1  0.41912769  0.92015802  0.19731856  1
  Se  Se252  1  0.40837682  0.91725168  0.69855912  1
  Se  Se253  1  0.75250554  0.24684997  0.19669828  1
  Se  Se254  1  0.75349718  0.24807583  0.68300678  1
  Se  Se255  1  0.73460532  0.58726998  0.20320677  1
  Se  Se256  1  0.76338770  0.58058996  0.68975712  1
  Se  Se257  1  0.75709903  0.90862662  0.19587848  1
  Se  Se258  1  0.74147814  0.91551069  0.69596615  1
