# generated using pymatgen
data_In86Cu29Se144
_symmetry_space_group_name_H-M   'P 1'
_cell_length_a   17.58666674
_cell_length_b   17.58674305
_cell_length_c   23.44478132
_cell_angle_alpha   90.01551817
_cell_angle_beta   90.04184037
_cell_angle_gamma   90.00666064
_symmetry_Int_Tables_number   1
_chemical_formula_structural   In86Cu29Se144
_chemical_formula_sum   'In86 Cu29 Se144'
_cell_volume   7251.28548844
_cell_formula_units_Z   1
loop_
 _symmetry_equiv_pos_site_id
 _symmetry_equiv_pos_as_xyz
  1  'x, y, z'
loop_
 _atom_site_type_symbol
 _atom_site_label
 _atom_site_symmetry_multiplicity
 _atom_site_fract_x
 _atom_site_fract_y
 _atom_site_fract_z
 _atom_site_occupancy
  In  In0  1  -0.01617091  0.15529732  0.12313418  1
  In  In1  1  -0.01411952  0.16301562  0.62080185  1
  In  In2  1  0.01572250  0.50032366  0.12283197  1
  In  In3  1  -0.00014280  0.50321723  0.61450292  1
  In  In4  1  -0.00879536  0.84534656  0.13605050  1
  In  In5  1  0.01066146  0.83381748  0.62838217  1
  In  In6  1  0.33980378  0.15096171  0.12571159  1
  In  In7  1  0.34417095  0.15461409  0.62923431  1
  In  In8  1  0.34338545  0.50924416  0.12023818  1
  In  In9  1  0.31983792  0.51378195  0.63422088  1
  In  In10  1  0.33655825  0.82320672  0.13060164  1
  In  In11  1  0.31927412  0.83962654  0.63945642  1
  In  In12  1  0.66193270  0.16124193  0.12753445  1
  In  In13  1  0.65582432  0.15875273  0.61556992  1
  In  In14  1  0.64665632  0.50318735  0.12624315  1
  In  In15  1  0.66817991  0.49170334  0.61842943  1
  In  In16  1  0.67710041  0.83864249  0.11185339  1
  In  In17  1  0.67767732  0.84806754  0.62911140  1
  In  In18  1  0.16143825  -0.01073584  0.36485155  1
  In  In19  1  0.16541768  -0.00850794  0.86025655  1
  In  In20  1  0.17649047  0.34704753  0.38108940  1
  In  In21  1  0.18460719  0.33112883  0.87396459  1
  In  In22  1  0.16707687  0.67280979  0.37239374  1
  In  In23  1  0.16468973  0.65702160  0.87885462  1
  In  In24  1  0.50770776  0.01704157  0.36068216  1
  In  In25  1  0.50285855  0.00056735  0.87903020  1
  In  In26  1  0.50525872  0.31364930  0.37567552  1
  In  In27  1  0.49235862  0.33648115  0.88306401  1
  In  In28  1  0.49773249  0.68000648  0.37008814  1
  In  In29  1  0.49196098  0.68392166  0.89366113  1
  In  In30  1  0.83886341  0.00911974  0.37490508  1
  In  In31  1  0.83475228  -0.00080011  0.87713287  1
  In  In32  1  0.82074342  0.33964043  0.38227033  1
  In  In33  1  0.81773116  0.32840836  0.87414969  1
  In  In34  1  0.83867977  0.64989249  0.37462026  1
  In  In35  1  0.84131988  0.67516136  0.87822980  1
  In  In36  1  -0.00726693  0.15272267  0.37619123  1
  In  In37  1  -0.00119899  0.14933645  0.87721973  1
  In  In38  1  -0.00066545  0.51113746  0.37394068  1
  In  In39  1  0.00546849  0.51478058  0.87783216  1
  In  In40  1  0.01520704  0.84251771  0.36402112  1
  In  In41  1  -0.01021741  0.83656380  0.87646493  1
  In  In42  1  0.34901501  0.16149593  0.37806741  1
  In  In43  1  0.33870658  0.17080317  0.86942080  1
  In  In44  1  0.32133859  0.50209941  0.37809389  1
  In  In45  1  0.33462789  0.50116805  0.87745318  1
  In  In46  1  0.32542619  0.83196392  0.36332817  1
  In  In47  1  0.34368266  0.84585297  0.86498868  1
  In  In48  1  0.66919415  0.16854089  0.37424020  1
  In  In49  1  0.67542755  0.15663184  0.88516060  1
  In  In50  1  0.68208273  0.49914594  0.37679197  1
  In  In51  1  0.65872558  0.48632183  0.87445347  1
  In  In52  1  0.65407126  0.83743260  0.37114444  1
  In  In53  1  0.66073857  0.83858464  0.88344486  1
  In  In54  1  0.17356978  -0.01713736  0.14429593  1
  In  In55  1  0.17368883  -0.01379508  0.63310807  1
  In  In56  1  0.16318653  0.34308074  0.12285701  1
  In  In57  1  0.16652235  0.34795261  0.62256158  1
  In  In58  1  0.17753741  0.66670605  0.13711624  1
  In  In59  1  0.17039501  0.67891652  0.61765274  1
  In  In60  1  0.50561669  0.00257449  0.12100790  1
  In  In61  1  0.49250626  0.00456409  0.63074078  1
  In  In62  1  0.50477271  0.33645269  0.12371277  1
  In  In63  1  0.50199275  0.31722057  0.62338992  1
  In  In64  1  0.49709215  0.65853391  0.11753392  1
  In  In65  1  0.48937506  0.65987980  0.62914133  1
  In  In66  1  0.82573639  -0.00099787  0.12727978  1
  In  In67  1  0.81992752  0.00430653  0.63774764  1
  In  In68  1  0.82976509  0.31205075  0.12181384  1
  In  In69  1  0.81119500  0.32450668  0.60182808  1
  In  In70  1  0.82454183  0.68384143  0.12420358  1
  In  In71  1  0.84346111  0.67177946  0.61993672  1
  In  In72  1  0.83772829  0.83118555  0.50242290  1
  In  In73  1  -0.00563205  0.32791664  0.24452747  1
  In  In74  1  0.16887913  0.16098654  0.00109650  1
  In  In75  1  0.00501058  0.67621627  0.74565601  1
  In  In76  1  0.66172932  0.67221395  0.75909108  1
  In  In77  1  0.16592786  0.16861563  0.49642662  1
  In  In78  1  0.65836820  0.32669776  0.74332592  1
  In  In79  1  0.66536236  0.67000912  0.24786837  1
  In  In80  1  0.50081252  0.49627151  0.50085308  1
  In  In81  1  0.00055869  0.33320990  0.74097305  1
  In  In82  1  0.49514100  0.83307287  0.49265890  1
  In  In83  1  0.33913499  0.32762362  0.25188881  1
  In  In84  1  0.16671248  0.82904810  0.00352281  1
  In  In85  1  0.83282974  0.49729487  -0.00274127  1
  Cu  Cu86  1  0.49375517  0.50133362  0.24688019  1
  Cu  Cu87  1  0.32986631  0.66407989  0.00314138  1
  Cu  Cu88  1  0.83426874  0.83713466  0.24980789  1
  Cu  Cu89  1  -0.00583359  -0.00141841  0.00582151  1
  Cu  Cu90  1  0.16389815  0.16492720  0.25318547  1
  Cu  Cu91  1  0.32665508  0.67139298  0.50014322  1
  Cu  Cu92  1  -0.00529641  0.34056095  0.49751163  1
  Cu  Cu93  1  0.17194703  0.16360938  0.74810436  1
  Cu  Cu94  1  0.83455766  0.16043435  0.75150685  1
  Cu  Cu95  1  0.83583700  0.50233422  0.73701005  1
  Cu  Cu96  1  0.33868116  -0.00251419  0.50333853  1
  Cu  Cu97  1  0.00661734  0.66751375  0.49497896  1
  Cu  Cu98  1  0.82463504  0.15992753  0.24916541  1
  Cu  Cu99  1  0.33517066  0.33622947  -0.00031381  1
  Cu  Cu100  1  0.66717075  0.00471716  0.00183505  1
  Cu  Cu101  1  0.00248237  -0.00389021  0.49687406  1
  Cu  Cu102  1  0.83313134  0.49240658  0.25195045  1
  Cu  Cu103  1  0.66502949  0.00444951  0.49793508  1
  Cu  Cu104  1  0.33994300  -0.00234840  -0.00339847  1
  Cu  Cu105  1  0.00223918  0.33252942  0.00202140  1
  Cu  Cu106  1  0.48624132  0.50049237  0.75502021  1
  Cu  Cu107  1  0.17237984  0.49909752  0.75177805  1
  Cu  Cu108  1  0.00064714  0.67079968  0.00252718  1
  Cu  Cu109  1  0.16906261  0.50808119  0.25205372  1
  Cu  Cu110  1  0.49690907  0.83896845  0.24473347  1
  Cu  Cu111  1  0.50344617  0.83447639  0.75751397  1
  Cu  Cu112  1  0.66327867  0.32817306  0.00232468  1
  Cu  Cu113  1  0.50255569  0.16042980  0.75322040  1
  Cu  Cu114  1  0.33714631  0.33463716  0.50139774  1
  Se  Se115  1  0.08496249  0.06987062  0.06540432  1
  Se  Se116  1  0.08294166  0.07643054  0.55966393  1
  Se  Se117  1  0.08759864  0.41917615  0.04719008  1
  Se  Se118  1  0.08434843  0.41941183  0.54812777  1
  Se  Se119  1  0.07620794  0.74785976  0.06827492  1
  Se  Se120  1  0.08132994  0.75605069  0.55044271  1
  Se  Se121  1  0.42063059  0.08363758  0.04909454  1
  Se  Se122  1  0.42356671  0.08378324  0.55174870  1
  Se  Se123  1  0.41903595  0.41736152  0.05538380  1
  Se  Se124  1  0.40968861  0.41580741  0.56726785  1
  Se  Se125  1  0.41372323  0.74961325  0.05420645  1
  Se  Se126  1  0.40798854  0.75009117  0.56044913  1
  Se  Se127  1  0.75150140  0.08678918  0.05643646  1
  Se  Se128  1  0.75271523  0.07856449  0.55589223  1
  Se  Se129  1  0.74408646  0.41108005  0.06168577  1
  Se  Se130  1  0.75724803  0.43505855  0.54328809  1
  Se  Se131  1  0.74270443  0.74025943  0.04502011  1
  Se  Se132  1  0.73879936  0.74665774  0.55929971  1
  Se  Se133  1  0.25722048  0.25501158  0.06200006  1
  Se  Se134  1  0.25630725  0.25236146  0.56175873  1
  Se  Se135  1  0.24514497  0.58524118  0.05893113  1
  Se  Se136  1  0.24724018  0.58402877  0.55331246  1
  Se  Se137  1  0.25660334  0.92396859  0.05911654  1
  Se  Se138  1  0.25491347  0.91523211  0.55663173  1
  Se  Se139  1  0.58096297  0.24584321  0.05689347  1
  Se  Se140  1  0.60393376  0.26957555  0.55481488  1
  Se  Se141  1  0.58534997  0.58384530  0.04882335  1
  Se  Se142  1  0.58578095  0.59358896  0.55914679  1
  Se  Se143  1  0.58251795  0.91669666  0.04960583  1
  Se  Se144  1  0.58504570  0.92162533  0.55674860  1
  Se  Se145  1  0.91933222  0.24518125  0.04937534  1
  Se  Se146  1  0.91759720  0.25069771  0.54851971  1
  Se  Se147  1  0.91928556  0.58689371  0.06117429  1
  Se  Se148  1  0.91784320  0.58895318  0.54807877  1
  Se  Se149  1  0.91124151  0.91446493  0.05858668  1
  Se  Se150  1  0.92107407  0.92477735  0.56335813  1
  Se  Se151  1  0.07406730  0.25968990  0.43586390  1
  Se  Se152  1  0.08134877  0.25309921  0.93818642  1
  Se  Se153  1  0.09048880  0.58316637  0.44271066  1
  Se  Se154  1  0.08475360  0.58384611  0.95482770  1
  Se  Se155  1  0.08757613  0.91592470  0.44413018  1
  Se  Se156  1  0.08186774  0.92633400  0.94480185  1
  Se  Se157  1  0.41877344  0.24835707  0.45140735  1
  Se  Se158  1  0.41226098  0.24581308  0.94794649  1
  Se  Se159  1  0.41284375  0.59439942  0.44209784  1
  Se  Se160  1  0.41560804  0.58143046  0.94974614  1
  Se  Se161  1  0.41328663  0.92656938  0.43214277  1
  Se  Se162  1  0.42146714  0.91026761  0.94575747  1
  Se  Se163  1  0.76272777  0.23527123  0.44480228  1
  Se  Se164  1  0.75293799  0.24866500  0.95188579  1
  Se  Se165  1  0.74742993  0.59014558  0.44691874  1
  Se  Se166  1  0.74615189  0.58323977  0.93370397  1
  Se  Se167  1  0.74326289  0.91886363  0.44124427  1
  Se  Se168  1  0.75015007  0.92108587  0.94760763  1
  Se  Se169  1  0.25486030  0.07466825  0.44075895  1
  Se  Se170  1  0.25305389  0.07191175  0.93653645  1
  Se  Se171  1  0.25219442  0.42300780  0.45642905  1
  Se  Se172  1  0.24946743  0.41844762  0.94772335  1
  Se  Se173  1  0.25192256  0.75609596  0.44138464  1
  Se  Se174  1  0.25831875  0.74798968  0.93907669  1
  Se  Se175  1  0.58146832  0.08435601  0.44257821  1
  Se  Se176  1  0.57925496  0.08683122  0.95040788  1
  Se  Se177  1  0.58869738  0.41020576  0.43854911  1
  Se  Se178  1  0.58131335  0.41456629  0.95088192  1
  Se  Se179  1  0.59441870  0.73903786  0.44444153  1
  Se  Se180  1  0.59934080  0.74134068  0.95298301  1
  Se  Se181  1  0.91420991  0.08258245  0.45364862  1
  Se  Se182  1  0.91351053  0.08349309  0.95144132  1
  Se  Se183  1  0.91704024  0.42342768  0.43928353  1
  Se  Se184  1  0.92419501  0.40785131  0.93458596  1
  Se  Se185  1  0.92495506  0.74840823  0.43523188  1
  Se  Se186  1  0.91746590  0.75510432  0.95175739  1
  Se  Se187  1  0.24153458  0.24470426  0.31401234  1
  Se  Se188  1  0.25375737  0.24997532  0.79893398  1
  Se  Se189  1  0.25504289  0.58830405  0.30457742  1
  Se  Se190  1  0.25024979  0.58349780  0.80779249  1
  Se  Se191  1  0.26136350  0.93088679  0.29801723  1
  Se  Se192  1  0.25181398  0.91212791  0.79593971  1
  Se  Se193  1  0.58365732  0.24333369  0.30171263  1
  Se  Se194  1  0.57947963  0.24317036  0.81479051  1
  Se  Se195  1  0.57819302  0.57720740  0.31011416  1
  Se  Se196  1  0.57122377  0.57721282  0.81349010  1
  Se  Se197  1  0.58334896  0.91913259  0.29779435  1
  Se  Se198  1  0.58656788  0.91865786  0.80862871  1
  Se  Se199  1  0.90724434  0.24245026  0.30855395  1
  Se  Se200  1  0.91232060  0.24721335  0.80827495  1
  Se  Se201  1  0.91796239  0.58070052  0.29683184  1
  Se  Se202  1  0.91084175  0.57892967  0.80235190  1
  Se  Se203  1  0.91446654  0.91985251  0.30648566  1
  Se  Se204  1  0.93028606  0.93253884  0.80819431  1
  Se  Se205  1  0.07801739  0.08283819  0.30400090  1
  Se  Se206  1  0.08371565  0.08657658  0.80110962  1
  Se  Se207  1  0.08920369  0.41733122  0.30398236  1
  Se  Se208  1  0.08537244  0.42136349  0.80895873  1
  Se  Se209  1  0.07681552  0.74013616  0.30093851  1
  Se  Se210  1  0.09076123  0.75727294  0.81421586  1
  Se  Se211  1  0.40794040  0.08455881  0.29720565  1
  Se  Se212  1  0.41793052  0.07814768  0.80659047  1
  Se  Se213  1  0.42227607  0.42242530  0.31494390  1
  Se  Se214  1  0.41125853  0.41026016  0.80837423  1
  Se  Se215  1  0.41648803  0.75158192  0.29701384  1
  Se  Se216  1  0.42289500  0.74501624  0.80749856  1
  Se  Se217  1  0.74547991  0.07588095  0.30541316  1
  Se  Se218  1  0.74940278  0.08322564  0.80767885  1
  Se  Se219  1  0.74712460  0.41157418  0.30174392  1
  Se  Se220  1  0.75502212  0.42299315  0.79767283  1
  Se  Se221  1  0.75710277  0.75510081  0.31223348  1
  Se  Se222  1  0.75859388  0.76138031  0.81104647  1
  Se  Se223  1  0.25005875  0.08679135  0.19860984  1
  Se  Se224  1  0.25507011  0.07836974  0.69600208  1
  Se  Se225  1  0.24902357  0.42280702  0.19385719  1
  Se  Se226  1  0.25205501  0.41210932  0.69874913  1
  Se  Se227  1  0.23788250  0.76865830  0.20116053  1
  Se  Se228  1  0.25063087  0.73616229  0.69812641  1
  Se  Se229  1  0.59373883  0.06753186  0.19559911  1
  Se  Se230  1  0.58616940  0.08301105  0.69502966  1
  Se  Se231  1  0.58007473  0.41612963  0.19995952  1
  Se  Se232  1  0.56889657  0.42762781  0.69132375  1
  Se  Se233  1  0.57855412  0.75690781  0.18480307  1
  Se  Se234  1  0.57708779  0.75816152  0.68936778  1
  Se  Se235  1  0.91263106  0.07725523  0.19896770  1
  Se  Se236  1  0.92049564  0.08110204  0.69777513  1
  Se  Se237  1  0.90884246  0.41999687  0.18232279  1
  Se  Se238  1  0.90639022  0.41472251  0.67789618  1
  Se  Se239  1  0.91229674  0.74820464  0.19784011  1
  Se  Se240  1  0.90479241  0.76482427  0.69472892  1
  Se  Se241  1  0.08898062  0.23928486  0.18579093  1
  Se  Se242  1  0.09252968  0.24013902  0.68385335  1
  Se  Se243  1  0.08152846  0.58481562  0.19785854  1
  Se  Se244  1  0.08833813  0.57538434  0.69013226  1
  Se  Se245  1  0.07609124  0.91719875  0.20786487  1
  Se  Se246  1  0.08136046  0.91653328  0.70113653  1
  Se  Se247  1  0.42683732  0.23956990  0.19152095  1
  Se  Se248  1  0.42109999  0.24464245  0.69787863  1
  Se  Se249  1  0.41523355  0.58994162  0.19616384  1
  Se  Se250  1  0.40779861  0.58968405  0.70377948  1
  Se  Se251  1  0.41631304  0.92132400  0.18859024  1
  Se  Se252  1  0.41980984  0.91430908  0.69915101  1
  Se  Se253  1  0.74545240  0.24787532  0.19717744  1
  Se  Se254  1  0.75661668  0.24094045  0.68852009  1
  Se  Se255  1  0.75469965  0.57518080  0.18899877  1
  Se  Se256  1  0.74881485  0.58655423  0.68785812  1
  Se  Se257  1  0.74458471  0.91071772  0.19449692  1
  Se  Se258  1  0.74716019  0.91795505  0.70810527  1
