# generated using pymatgen
data_In86Cu29Se144
_symmetry_space_group_name_H-M   'P 1'
_cell_length_a   17.58735160
_cell_length_b   17.58703607
_cell_length_c   23.44757390
_cell_angle_alpha   89.97651059
_cell_angle_beta   89.99200701
_cell_angle_gamma   90.01486657
_symmetry_Int_Tables_number   1
_chemical_formula_structural   In86Cu29Se144
_chemical_formula_sum   'In86 Cu29 Se144'
_cell_volume   7252.55378605
_cell_formula_units_Z   1
loop_
 _symmetry_equiv_pos_site_id
 _symmetry_equiv_pos_as_xyz
  1  'x, y, z'
loop_
 _atom_site_type_symbol
 _atom_site_label
 _atom_site_symmetry_multiplicity
 _atom_site_fract_x
 _atom_site_fract_y
 _atom_site_fract_z
 _atom_site_occupancy
  In  In0  1  -0.00192300  0.16693753  0.11667502  1
  In  In1  1  0.01633174  0.16555921  0.62534772  1
  In  In2  1  0.00874488  0.51025289  0.11969016  1
  In  In3  1  -0.00808437  0.49080864  0.62300877  1
  In  In4  1  -0.01205751  0.83173563  0.12180177  1
  In  In5  1  -0.00683312  0.83393247  0.62459933  1
  In  In6  1  0.32790509  0.17879507  0.11899821  1
  In  In7  1  0.33776902  0.17461480  0.63032944  1
  In  In8  1  0.33866966  0.51483863  0.10855735  1
  In  In9  1  0.32974695  0.50377636  0.62325139  1
  In  In10  1  0.33009506  0.81185427  0.11536871  1
  In  In11  1  0.35872724  0.82359064  0.64890879  1
  In  In12  1  0.67860230  0.15956302  0.14059707  1
  In  In13  1  0.65052478  0.18124773  0.62005398  1
  In  In14  1  0.65900698  0.48895051  0.12280285  1
  In  In15  1  0.67638115  0.50408739  0.61701165  1
  In  In16  1  0.67233212  0.84109729  0.11679307  1
  In  In17  1  0.66317836  0.81491095  0.63315864  1
  In  In18  1  0.17557115  0.00329589  0.37923539  1
  In  In19  1  0.18285670  -0.00121342  0.87531883  1
  In  In20  1  0.16586523  0.33445072  0.38513142  1
  In  In21  1  0.16551149  0.33702715  0.87103133  1
  In  In22  1  0.16510371  0.65371002  0.37245736  1
  In  In23  1  0.17493053  0.65025608  0.87671520  1
  In  In24  1  0.51352984  -0.00500965  0.37638584  1
  In  In25  1  0.48301600  -0.00528865  0.86731071  1
  In  In26  1  0.51132207  0.32632505  0.39223696  1
  In  In27  1  0.49951701  0.34697987  0.87120824  1
  In  In28  1  0.48912499  0.65859805  0.37279342  1
  In  In29  1  0.50040381  0.66215910  0.87103180  1
  In  In30  1  0.81299320  0.00367185  0.37513520  1
  In  In31  1  0.83400677  -0.00260855  0.88076566  1
  In  In32  1  0.83580387  0.33986934  0.37264737  1
  In  In33  1  0.83624793  0.32982724  0.87960304  1
  In  In34  1  0.84203775  0.65600277  0.37979610  1
  In  In35  1  0.81702550  0.67355240  0.88307932  1
  In  In36  1  0.00056144  0.17945445  0.37552637  1
  In  In37  1  -0.00829580  0.17682693  0.87918097  1
  In  In38  1  -0.00552299  0.50096897  0.37941761  1
  In  In39  1  0.00694059  0.48907742  0.87842057  1
  In  In40  1  -0.00153467  0.81306826  0.37329640  1
  In  In41  1  -0.01186728  0.82532169  0.87670559  1
  In  In42  1  0.32919003  0.17431370  0.38856625  1
  In  In43  1  0.32598034  0.15967545  0.86609042  1
  In  In44  1  0.33512659  0.50354570  0.38583469  1
  In  In45  1  0.33930483  0.50150189  0.86874055  1
  In  In46  1  0.34782730  0.82209858  0.37607005  1
  In  In47  1  0.34621441  0.83195023  0.86579910  1
  In  In48  1  0.66308135  0.15866034  0.36796290  1
  In  In49  1  0.67022563  0.17548101  0.87831802  1
  In  In50  1  0.67524972  0.49017693  0.38713460  1
  In  In51  1  0.65118582  0.51043155  0.88439283  1
  In  In52  1  0.66722083  0.84769006  0.37314964  1
  In  In53  1  0.67817751  0.81716001  0.88008888  1
  In  In54  1  0.15674558  0.00723038  0.12016538  1
  In  In55  1  0.17578863  0.01402144  0.62345611  1
  In  In56  1  0.16372812  0.33796136  0.11444736  1
  In  In57  1  0.16861394  0.33571374  0.62765286  1
  In  In58  1  0.17913153  0.65283441  0.13018676  1
  In  In59  1  0.18492571  0.66349476  0.62564797  1
  In  In60  1  0.51474358  0.00005170  0.12299429  1
  In  In61  1  0.48706021  0.00307810  0.63126314  1
  In  In62  1  0.50076019  0.34446729  0.12438412  1
  In  In63  1  0.48924661  0.32439591  0.61518187  1
  In  In64  1  0.48764565  0.65828830  0.11467575  1
  In  In65  1  0.50521483  0.66324551  0.62966122  1
  In  In66  1  0.82719446  -0.00135687  0.12048564  1
  In  In67  1  0.83666800  -0.00736141  0.62158053  1
  In  In68  1  0.82410989  0.32627601  0.12128632  1
  In  In69  1  0.82537399  0.35212595  0.62598952  1
  In  In70  1  0.84093328  0.67446099  0.12089630  1
  In  In71  1  0.82944114  0.66217984  0.62378799  1
  In  In72  1  0.00331600  0.66092617  0.75641000  1
  In  In73  1  0.00559139  0.00067687  0.75613328  1
  In  In74  1  0.83476925  0.17127593  0.49650138  1
  In  In75  1  0.66741666  0.66781068  0.24535356  1
  In  In76  1  -0.00774557  0.33497277  0.25425043  1
  In  In77  1  0.33555823  0.33898074  0.24931824  1
  In  In78  1  0.66275865  0.33893415  0.74943477  1
  In  In79  1  0.16455334  0.82843918  -0.00870521  1
  In  In80  1  0.17285566  0.83348930  0.50447223  1
  In  In81  1  0.33881244  -0.00645062  0.25360979  1
  In  In82  1  0.50479725  0.83142881  0.50778305  1
  In  In83  1  0.49995239  0.16797580  -0.00188658  1
  In  In84  1  0.66304878  -0.00439196  0.74416808  1
  In  In85  1  -0.00636715  -0.00640278  0.24138633  1
  Cu  Cu86  1  0.66405830  0.00318686  0.49924728  1
  Cu  Cu87  1  0.50036095  0.82917808  0.24741920  1
  Cu  Cu88  1  -0.00320229  0.00871897  -0.00019484  1
  Cu  Cu89  1  0.17243821  0.50499805  0.24853511  1
  Cu  Cu90  1  0.50510011  0.16540200  0.25679686  1
  Cu  Cu91  1  0.17179352  0.49636141  0.75031199  1
  Cu  Cu92  1  -0.00066418  -0.00529212  0.50230259  1
  Cu  Cu93  1  -0.00289925  0.66050205  0.50053922  1
  Cu  Cu94  1  0.00650327  0.33195544  0.50293851  1
  Cu  Cu95  1  0.49823504  0.49993439  0.24774463  1
  Cu  Cu96  1  0.49878999  0.50214214  0.74741575  1
  Cu  Cu97  1  0.17228621  0.83579081  0.75132304  1
  Cu  Cu98  1  -0.00518561  0.66549245  -0.00183267  1
  Cu  Cu99  1  0.66407975  0.66225845  0.00422007  1
  Cu  Cu100  1  0.32937393  0.00043974  -0.00767535  1
  Cu  Cu101  1  0.16856063  0.81806732  0.25024796  1
  Cu  Cu102  1  0.83221084  0.83283385  0.24504140  1
  Cu  Cu103  1  0.82703171  0.50578081  0.75048226  1
  Cu  Cu104  1  0.32412758  0.33770695  -0.00634011  1
  Cu  Cu105  1  0.66696907  -0.00168930  -0.00037038  1
  Cu  Cu106  1  0.67049266  0.67047192  0.50073147  1
  Cu  Cu107  1  0.83528319  0.50136743  0.25309387  1
  Cu  Cu108  1  0.33188432  0.00576916  0.50765093  1
  Cu  Cu109  1  0.67035587  0.33208041  0.00106941  1
  Cu  Cu110  1  0.17127491  0.17535176  0.74750953  1
  Cu  Cu111  1  0.83754236  0.17024853  0.75326809  1
  Cu  Cu112  1  0.16211461  0.16537713  0.24932617  1
  Cu  Cu113  1  -0.00272685  0.33871131  -0.00156510  1
  Cu  Cu114  1  0.33019613  0.33561963  0.50731388  1
  Se  Se115  1  0.08629214  0.09101044  0.04730831  1
  Se  Se116  1  0.08424847  0.07930283  0.55129412  1
  Se  Se117  1  0.08320384  0.42348495  0.04854985  1
  Se  Se118  1  0.08567010  0.41808916  0.55678321  1
  Se  Se119  1  0.07911744  0.74417291  0.05908261  1
  Se  Se120  1  0.07764507  0.74065975  0.56143487  1
  Se  Se121  1  0.40818240  0.07611389  0.05927426  1
  Se  Se122  1  0.41812584  0.08882491  0.55813013  1
  Se  Se123  1  0.41185563  0.41048341  0.05206601  1
  Se  Se124  1  0.41543617  0.42279897  0.55395140  1
  Se  Se125  1  0.42405276  0.75424830  0.04548098  1
  Se  Se126  1  0.40752599  0.74424123  0.56034203  1
  Se  Se127  1  0.74247396  0.08615369  0.05620093  1
  Se  Se128  1  0.74434127  0.08304685  0.56106261  1
  Se  Se129  1  0.75138345  0.41888738  0.05332997  1
  Se  Se130  1  0.74671975  0.41293065  0.54725769  1
  Se  Se131  1  0.75021722  0.74883653  0.05296017  1
  Se  Se132  1  0.75038310  0.75340571  0.55667744  1
  Se  Se133  1  0.24414717  0.25067720  0.04737710  1
  Se  Se134  1  0.24864637  0.24838168  0.55924708  1
  Se  Se135  1  0.24158649  0.58574423  0.04570825  1
  Se  Se136  1  0.24435886  0.57837119  0.55039376  1
  Se  Se137  1  0.25024588  0.92170262  0.05704668  1
  Se  Se138  1  0.26514987  0.91487538  0.56860517  1
  Se  Se139  1  0.58928176  0.25102630  0.06282210  1
  Se  Se140  1  0.59279704  0.26981448  0.54656935  1
  Se  Se141  1  0.58074464  0.57588168  0.05454925  1
  Se  Se142  1  0.58617861  0.59037704  0.55538547  1
  Se  Se143  1  0.57975700  0.91429877  0.04804706  1
  Se  Se144  1  0.59102719  0.92566412  0.56692283  1
  Se  Se145  1  0.91550235  0.25334300  0.05253497  1
  Se  Se146  1  0.92213554  0.25498239  0.56356584  1
  Se  Se147  1  0.91342478  0.58176283  0.05316173  1
  Se  Se148  1  0.91282963  0.57926456  0.55602179  1
  Se  Se149  1  0.91674605  0.92139899  0.05274458  1
  Se  Se150  1  0.91430329  0.91069878  0.55022391  1
  Se  Se151  1  0.08598138  0.24421638  0.45054927  1
  Se  Se152  1  0.08171180  0.25715961  0.94315461  1
  Se  Se153  1  0.08254964  0.58017464  0.44666564  1
  Se  Se154  1  0.07966111  0.58478678  0.94454001  1
  Se  Se155  1  0.07836891  0.91616939  0.43876856  1
  Se  Se156  1  0.07280691  0.92674268  0.93661550  1
  Se  Se157  1  0.41594621  0.25085354  0.45558859  1
  Se  Se158  1  0.40984173  0.25627458  0.93735438  1
  Se  Se159  1  0.41952783  0.58792912  0.45199364  1
  Se  Se160  1  0.43385739  0.56550052  0.93886750  1
  Se  Se161  1  0.41153551  0.92461104  0.44594836  1
  Se  Se162  1  0.41387977  0.91518034  0.94457989  1
  Se  Se163  1  0.74290956  0.25471307  0.43631393  1
  Se  Se164  1  0.75402942  0.24717234  0.95037280  1
  Se  Se165  1  0.75395435  0.58330934  0.44947794  1
  Se  Se166  1  0.74843600  0.57864358  0.95120091  1
  Se  Se167  1  0.74841517  0.91658246  0.45050553  1
  Se  Se168  1  0.75067504  0.91372227  0.94699300  1
  Se  Se169  1  0.24617284  0.08544361  0.45290795  1
  Se  Se170  1  0.24801405  0.09116498  0.94654824  1
  Se  Se171  1  0.24909989  0.41764738  0.45019308  1
  Se  Se172  1  0.24811163  0.42368007  0.93764587  1
  Se  Se173  1  0.25528559  0.74261157  0.44105924  1
  Se  Se174  1  0.26225647  0.74321565  0.93757566  1
  Se  Se175  1  0.58201981  0.08635543  0.44584459  1
  Se  Se176  1  0.58629754  0.07512248  0.93698880  1
  Se  Se177  1  0.55774082  0.44689764  0.44381829  1
  Se  Se178  1  0.58129426  0.41124385  0.94948475  1
  Se  Se179  1  0.58946344  0.74678686  0.43721293  1
  Se  Se180  1  0.58395015  0.74222277  0.94447569  1
  Se  Se181  1  0.92320119  0.07491616  0.43753935  1
  Se  Se182  1  0.91121849  0.08888237  0.94562923  1
  Se  Se183  1  0.91977455  0.40982044  0.44702898  1
  Se  Se184  1  0.91159501  0.42114691  0.94686870  1
  Se  Se185  1  0.91501088  0.74788891  0.44967084  1
  Se  Se186  1  0.90931400  0.75174382  0.95062937  1
  Se  Se187  1  0.24315799  0.24542594  0.30845384  1
  Se  Se188  1  0.25325651  0.25748744  0.80286951  1
  Se  Se189  1  0.25889817  0.57853602  0.30688240  1
  Se  Se190  1  0.25445534  0.58439086  0.79859443  1
  Se  Se191  1  0.24374805  0.90187835  0.31104765  1
  Se  Se192  1  0.25696342  0.91877700  0.80285845  1
  Se  Se193  1  0.58008824  0.25581737  0.30950749  1
  Se  Se194  1  0.57622517  0.24392885  0.80841882  1
  Se  Se195  1  0.58311664  0.57710364  0.30781081  1
  Se  Se196  1  0.58733653  0.58104198  0.80039977  1
  Se  Se197  1  0.58160146  0.91594034  0.29843591  1
  Se  Se198  1  0.58760703  0.91070683  0.81575759  1
  Se  Se199  1  0.90089761  0.23573829  0.30365287  1
  Se  Se200  1  0.91804540  0.25708990  0.80355459  1
  Se  Se201  1  0.92184000  0.58294290  0.30389804  1
  Se  Se202  1  0.90830469  0.57773352  0.81618215  1
  Se  Se203  1  0.91024234  0.90981460  0.31146695  1
  Se  Se204  1  0.90687866  0.90893888  0.80439503  1
  Se  Se205  1  0.08438801  0.08280005  0.30752783  1
  Se  Se206  1  0.09401366  0.09466271  0.81218930  1
  Se  Se207  1  0.09335583  0.42110461  0.30777887  1
  Se  Se208  1  0.08070708  0.41682401  0.79942229  1
  Se  Se209  1  0.08331173  0.73863540  0.30351285  1
  Se  Se210  1  0.09418894  0.75771981  0.81343816  1
  Se  Se211  1  0.41770223  0.09182806  0.31581361  1
  Se  Se212  1  0.42110826  0.09061041  0.80030432  1
  Se  Se213  1  0.42391006  0.42021499  0.31382554  1
  Se  Se214  1  0.41555616  0.41485593  0.79633635  1
  Se  Se215  1  0.41800223  0.74445161  0.29872013  1
  Se  Se216  1  0.42392640  0.74634627  0.79884224  1
  Se  Se217  1  0.74508323  0.07881787  0.29813795  1
  Se  Se218  1  0.75480182  0.08799295  0.80766167  1
  Se  Se219  1  0.74956515  0.42093291  0.30557513  1
  Se  Se220  1  0.74991315  0.42456660  0.81428038  1
  Se  Se221  1  0.75576505  0.75360257  0.31050665  1
  Se  Se222  1  0.75184702  0.74490221  0.80132178  1
  Se  Se223  1  0.24757340  0.08708805  0.19246094  1
  Se  Se224  1  0.25383677  0.08703060  0.69838335  1
  Se  Se225  1  0.24707422  0.42397458  0.18541673  1
  Se  Se226  1  0.25531064  0.41550186  0.69514610  1
  Se  Se227  1  0.25765944  0.74310934  0.19654265  1
  Se  Se228  1  0.25249727  0.74723360  0.70096056  1
  Se  Se229  1  0.58203989  0.07968976  0.20074159  1
  Se  Se230  1  0.57657962  0.09715674  0.69391984  1
  Se  Se231  1  0.58310299  0.41345194  0.20025698  1
  Se  Se232  1  0.57833196  0.42480044  0.68423102  1
  Se  Se233  1  0.57776236  0.75282307  0.18257483  1
  Se  Se234  1  0.55525380  0.76959495  0.69787669  1
  Se  Se235  1  0.90845697  0.09341301  0.18961149  1
  Se  Se236  1  0.91345554  0.08753719  0.69150658  1
  Se  Se237  1  0.91340571  0.42470794  0.18741620  1
  Se  Se238  1  0.91109542  0.41986447  0.70041044  1
  Se  Se239  1  0.91923619  0.74857448  0.19794023  1
  Se  Se240  1  0.91379407  0.75030335  0.69595721  1
  Se  Se241  1  0.08647667  0.24905743  0.19046816  1
  Se  Se242  1  0.08150493  0.25441606  0.69768777  1
  Se  Se243  1  0.08270699  0.58488082  0.19799935  1
  Se  Se244  1  0.08901787  0.57645475  0.68979640  1
  Se  Se245  1  0.09503976  0.90345377  0.18967894  1
  Se  Se246  1  0.09256336  0.91244722  0.68957661  1
  Se  Se247  1  0.42498982  0.24039247  0.19277972  1
  Se  Se248  1  0.42438824  0.25498198  0.69740107  1
  Se  Se249  1  0.41508123  0.57857247  0.19118593  1
  Se  Se250  1  0.41369965  0.58429818  0.69432317  1
  Se  Se251  1  0.42019248  0.90892537  0.18504682  1
  Se  Se252  1  0.41846262  0.92861302  0.71006647  1
  Se  Se253  1  0.74086632  0.26599377  0.19952787  1
  Se  Se254  1  0.75497065  0.24449865  0.69055994  1
  Se  Se255  1  0.75721408  0.57657990  0.18719840  1
  Se  Se256  1  0.74445242  0.58592503  0.69532369  1
  Se  Se257  1  0.74924004  0.91669070  0.19344536  1
  Se  Se258  1  0.76046704  0.90521245  0.69241870  1
