# generated using pymatgen
data_In86Cu29Se144
_symmetry_space_group_name_H-M   'P 1'
_cell_length_a   17.57024911
_cell_length_b   17.57366759
_cell_length_c   23.43355396
_cell_angle_alpha   90.01462961
_cell_angle_beta   89.99789080
_cell_angle_gamma   90.00318716
_symmetry_Int_Tables_number   1
_chemical_formula_structural   In86Cu29Se144
_chemical_formula_sum   'In86 Cu29 Se144'
_cell_volume   7235.66531571
_cell_formula_units_Z   1
loop_
 _symmetry_equiv_pos_site_id
 _symmetry_equiv_pos_as_xyz
  1  'x, y, z'
loop_
 _atom_site_type_symbol
 _atom_site_label
 _atom_site_symmetry_multiplicity
 _atom_site_fract_x
 _atom_site_fract_y
 _atom_site_fract_z
 _atom_site_occupancy
  In  In0  1  -0.01381970  0.16468701  0.12253482  1
  In  In1  1  0.02435090  0.17188605  0.62729134  1
  In  In2  1  0.01328105  0.50519165  0.12623400  1
  In  In3  1  0.00998295  0.49307823  0.63587922  1
  In  In4  1  -0.00529498  0.82574019  0.12301869  1
  In  In5  1  -0.00117381  0.83734584  0.61705360  1
  In  In6  1  0.34239757  0.15763219  0.13430447  1
  In  In7  1  0.32974319  0.17809142  0.62160335  1
  In  In8  1  0.33782407  0.49366958  0.13389492  1
  In  In9  1  0.31519815  0.47211365  0.59813063  1
  In  In10  1  0.33316246  0.83219525  0.12867901  1
  In  In11  1  0.33084805  0.83709369  0.60782320  1
  In  In12  1  0.65994745  0.18045326  0.12540969  1
  In  In13  1  0.66245944  0.16416874  0.63744213  1
  In  In14  1  0.65329458  0.51302222  0.13085949  1
  In  In15  1  0.65050995  0.49637984  0.62221373  1
  In  In16  1  0.64906915  0.82147067  0.11211306  1
  In  In17  1  0.67265601  0.83377737  0.62241136  1
  In  In18  1  0.20200482  -0.03064979  0.41160616  1
  In  In19  1  0.15842814  -0.00904267  0.87360761  1
  In  In20  1  0.18971336  0.31946057  0.39772212  1
  In  In21  1  0.16863490  0.32719000  0.85882545  1
  In  In22  1  0.17102505  0.66388149  0.37364010  1
  In  In23  1  0.16826904  0.68245562  0.87333261  1
  In  In24  1  0.48117975  -0.00342906  0.37339946  1
  In  In25  1  0.51313362  -0.00627770  0.88461518  1
  In  In26  1  0.50318549  0.33941175  0.37070426  1
  In  In27  1  0.49841757  0.33022436  0.87657755  1
  In  In28  1  0.50072793  0.66822378  0.36873428  1
  In  In29  1  0.49351460  0.66160658  0.89135307  1
  In  In30  1  0.82417901  -0.01192264  0.37526165  1
  In  In31  1  0.81870992  0.00002441  0.87839482  1
  In  In32  1  0.82948758  0.34124061  0.37538628  1
  In  In33  1  0.83103826  0.34090052  0.86605405  1
  In  In34  1  0.84292909  0.67323648  0.36593262  1
  In  In35  1  0.84556706  0.66906297  0.87432562  1
  In  In36  1  0.01304516  0.17831645  0.37910038  1
  In  In37  1  -0.00105362  0.17137151  0.86853366  1
  In  In38  1  0.00999921  0.51188620  0.37340085  1
  In  In39  1  -0.00297806  0.50239330  0.86401361  1
  In  In40  1  0.02199144  0.82105416  0.39275652  1
  In  In41  1  0.00500242  0.82713554  0.88109626  1
  In  In42  1  0.32672791  0.16016178  0.37173512  1
  In  In43  1  0.33466980  0.18092054  0.87067845  1
  In  In44  1  0.33316621  0.50048087  0.37377236  1
  In  In45  1  0.34563769  0.49847050  0.87843473  1
  In  In46  1  0.34286534  0.83148419  0.37315224  1
  In  In47  1  0.33260329  0.82811630  0.88654725  1
  In  In48  1  0.65227827  0.17147707  0.37429271  1
  In  In49  1  0.65570210  0.15610914  0.86968743  1
  In  In50  1  0.65648764  0.49436368  0.36705960  1
  In  In51  1  0.65582896  0.49272685  0.87370438  1
  In  In52  1  0.67428291  0.82482564  0.37692304  1
  In  In53  1  0.66129654  0.84493625  0.88786130  1
  In  In54  1  0.18372389  -0.00231989  0.12969440  1
  In  In55  1  0.17289232  0.00899045  0.60214871  1
  In  In56  1  0.17003469  0.34355745  0.12496434  1
  In  In57  1  0.16813784  0.33121630  0.62755463  1
  In  In58  1  0.15878068  0.67186601  0.13856044  1
  In  In59  1  0.16577708  0.66136068  0.61897975  1
  In  In60  1  0.48420162  -0.01905909  0.11122435  1
  In  In61  1  0.50706025  0.00205912  0.62534776  1
  In  In62  1  0.49565661  0.33708660  0.12403824  1
  In  In63  1  0.49103658  0.33662479  0.63137903  1
  In  In64  1  0.49522457  0.66838476  0.12658589  1
  In  In65  1  0.49029415  0.65785335  0.61472086  1
  In  In66  1  0.83370945  -0.00703726  0.12119838  1
  In  In67  1  0.83677028  -0.01597916  0.62772666  1
  In  In68  1  0.82464762  0.32209355  0.12084289  1
  In  In69  1  0.82888871  0.33629385  0.63532151  1
  In  In70  1  0.82662442  0.67207147  0.13217209  1
  In  In71  1  0.83835268  0.68640043  0.62317083  1
  In  In72  1  0.82844496  0.50250801  -0.00905055  1
  In  In73  1  0.01082805  -0.00397951  0.26697754  1
  In  In74  1  0.49200596  0.16303617  0.50049126  1
  In  In75  1  0.84207268  0.15766290  0.51089568  1
  In  In76  1  0.83051351  0.16681721  -0.00614077  1
  In  In77  1  0.66993107  0.66504804  0.75146689  1
  In  In78  1  0.00037499  0.00434379  0.74381237  1
  In  In79  1  0.17361794  0.50510380  0.00241240  1
  In  In80  1  0.33421332  0.00494682  0.73842749  1
  In  In81  1  0.17060773  0.16333211  -0.00825113  1
  In  In82  1  0.33329577  0.65952259  0.74785329  1
  In  In83  1  0.00367216  0.33864916  0.24843764  1
  In  In84  1  0.83656285  0.50775322  0.49485018  1
  In  In85  1  0.65843946  -0.00126017  0.23989334  1
  Cu  Cu86  1  0.17318332  0.17260652  0.25401307  1
  Cu  Cu87  1  0.16890000  0.83535647  0.26047513  1
  Cu  Cu88  1  0.00142820  0.66930494  0.00239747  1
  Cu  Cu89  1  0.34113335  0.67017665  0.48953581  1
  Cu  Cu90  1  0.66322763  0.67101733  0.00716968  1
  Cu  Cu91  1  0.33788846  -0.00386083  0.00392715  1
  Cu  Cu92  1  0.83419723  0.82249540  0.24826049  1
  Cu  Cu93  1  0.49608964  0.17714583  0.24969639  1
  Cu  Cu94  1  0.49935824  0.50159975  0.24904387  1
  Cu  Cu95  1  0.65971459  0.66791020  0.49638623  1
  Cu  Cu96  1  0.82935055  0.16500432  0.24728199  1
  Cu  Cu97  1  0.83421618  0.83879657  0.74799356  1
  Cu  Cu98  1  0.16585785  0.83562770  0.74785114  1
  Cu  Cu99  1  0.16807748  0.50054651  0.74150097  1
  Cu  Cu100  1  0.00819458  -0.00692924  0.00166480  1
  Cu  Cu101  1  0.17136414  0.49795049  0.25493918  1
  Cu  Cu102  1  0.66426894  -0.01367813  0.50232402  1
  Cu  Cu103  1  0.65690132  0.33764727  -0.00137669  1
  Cu  Cu104  1  0.49402076  0.48974163  0.74844229  1
  Cu  Cu105  1  0.49862220  0.83245459  0.24461114  1
  Cu  Cu106  1  0.33723521  0.33093657  0.00126857  1
  Cu  Cu107  1  0.50094612  0.16563539  0.75276001  1
  Cu  Cu108  1  0.83230530  0.50868427  0.74972981  1
  Cu  Cu109  1  0.00444338  0.66791975  0.49951698  1
  Cu  Cu110  1  0.82823394  0.49710898  0.25003962  1
  Cu  Cu111  1  0.01322522  0.34060330  0.50837941  1
  Cu  Cu112  1  0.50537816  0.82948406  0.75452403  1
  Cu  Cu113  1  0.66516191  0.32982298  0.49794347  1
  Cu  Cu114  1  0.82941534  0.17028436  0.75240091  1
  Se  Se115  1  0.08142592  0.07884493  0.06156734  1
  Se  Se116  1  0.05435100  0.06898625  0.55434809  1
  Se  Se117  1  0.07500960  0.40918180  0.05268108  1
  Se  Se118  1  0.09278360  0.42773686  0.55948379  1
  Se  Se119  1  0.08687064  0.74711512  0.05848278  1
  Se  Se120  1  0.08692578  0.75239429  0.55335676  1
  Se  Se121  1  0.41519846  0.08840851  0.05339850  1
  Se  Se122  1  0.40412041  0.07151782  0.56065777  1
  Se  Se123  1  0.41279756  0.42085328  0.05468262  1
  Se  Se124  1  0.43594299  0.41924267  0.55096633  1
  Se  Se125  1  0.43380393  0.77092656  0.06155262  1
  Se  Se126  1  0.42138490  0.75253675  0.54721248  1
  Se  Se127  1  0.74485746  0.08429849  0.06115105  1
  Se  Se128  1  0.73757502  0.07391845  0.56251604  1
  Se  Se129  1  0.74080825  0.41651425  0.05750210  1
  Se  Se130  1  0.74812356  0.41266585  0.55477590  1
  Se  Se131  1  0.75532374  0.74961513  0.05498948  1
  Se  Se132  1  0.74648089  0.74752407  0.55012517  1
  Se  Se133  1  0.25426778  0.25072967  0.05999460  1
  Se  Se134  1  0.25097753  0.25868820  0.55264407  1
  Se  Se135  1  0.25288590  0.59023679  0.07069533  1
  Se  Se136  1  0.26022936  0.59313567  0.55049961  1
  Se  Se137  1  0.25096426  0.91435503  0.05502959  1
  Se  Se138  1  0.24151628  0.91033622  0.53966407  1
  Se  Se139  1  0.57641143  0.25283121  0.05243478  1
  Se  Se140  1  0.58883897  0.24879199  0.56027249  1
  Se  Se141  1  0.57691994  0.58478465  0.05392351  1
  Se  Se142  1  0.58091877  0.57973419  0.54816462  1
  Se  Se143  1  0.59812476  0.93312726  0.05316193  1
  Se  Se144  1  0.57776241  0.90939911  0.55722454  1
  Se  Se145  1  0.92540354  0.26109898  0.04959134  1
  Se  Se146  1  0.92291293  0.26328631  0.56362625  1
  Se  Se147  1  0.91953363  0.58513972  0.05860538  1
  Se  Se148  1  0.92510821  0.58853715  0.56237219  1
  Se  Se149  1  0.91953294  0.91456620  0.05378203  1
  Se  Se150  1  0.90770862  0.91219941  0.55004550  1
  Se  Se151  1  0.08839710  0.24711385  0.45850100  1
  Se  Se152  1  0.08004978  0.25874246  0.93869826  1
  Se  Se153  1  0.08931698  0.58419578  0.44825550  1
  Se  Se154  1  0.07670355  0.58761256  0.93966855  1
  Se  Se155  1  0.06565384  0.93945003  0.44601507  1
  Se  Se156  1  0.09134756  0.90876328  0.94936619  1
  Se  Se157  1  0.41241157  0.25590770  0.43793532  1
  Se  Se158  1  0.41793827  0.24545950  0.94747822  1
  Se  Se159  1  0.42324451  0.58273853  0.43942380  1
  Se  Se160  1  0.40009959  0.58746350  0.95447306  1
  Se  Se161  1  0.41277942  0.91753044  0.44828847  1
  Se  Se162  1  0.42056836  0.91379590  0.94794933  1
  Se  Se163  1  0.74977690  0.24722570  0.44434580  1
  Se  Se164  1  0.74130892  0.26171182  0.93734037  1
  Se  Se165  1  0.74249294  0.59028160  0.43413781  1
  Se  Se166  1  0.73585585  0.59647111  0.93581584  1
  Se  Se167  1  0.75180417  0.90788471  0.44981945  1
  Se  Se168  1  0.76030003  0.91162596  0.95273619  1
  Se  Se169  1  0.24700948  0.09787534  0.45144135  1
  Se  Se170  1  0.26195726  0.07045677  0.93493912  1
  Se  Se171  1  0.24265210  0.43686455  0.44837872  1
  Se  Se172  1  0.25146708  0.40454843  0.94005254  1
  Se  Se173  1  0.25195712  0.75133701  0.44018459  1
  Se  Se174  1  0.25298276  0.73969516  0.95039177  1
  Se  Se175  1  0.58787736  0.07056707  0.44224501  1
  Se  Se176  1  0.58659657  0.08749671  0.95010078  1
  Se  Se177  1  0.58579420  0.41514559  0.44457483  1
  Se  Se178  1  0.57245468  0.42227889  0.94731538  1
  Se  Se179  1  0.57875276  0.75270404  0.44187955  1
  Se  Se180  1  0.58027637  0.75200593  0.95009119  1
  Se  Se181  1  0.91571622  0.08332679  0.43208291  1
  Se  Se182  1  0.93001086  0.07472895  0.94033783  1
  Se  Se183  1  0.93073252  0.41007308  0.44253046  1
  Se  Se184  1  0.92488552  0.41214803  0.93884929  1
  Se  Se185  1  0.91516820  0.74532190  0.44595082  1
  Se  Se186  1  0.91527325  0.75115888  0.94992466  1
  Se  Se187  1  0.25225226  0.25904971  0.30798150  1
  Se  Se188  1  0.25398923  0.24582168  0.79428021  1
  Se  Se189  1  0.25501638  0.58665677  0.30214491  1
  Se  Se190  1  0.24204377  0.57451632  0.81173809  1
  Se  Se191  1  0.24985751  0.92096492  0.31340008  1
  Se  Se192  1  0.25279660  0.91033336  0.80622383  1
  Se  Se193  1  0.58576191  0.25585281  0.30016953  1
  Se  Se194  1  0.58334800  0.25221782  0.80511120  1
  Se  Se195  1  0.58551203  0.58647600  0.29896803  1
  Se  Se196  1  0.56638337  0.58150090  0.80655607  1
  Se  Se197  1  0.57752744  0.91183389  0.30883715  1
  Se  Se198  1  0.58583554  0.91407796  0.80750873  1
  Se  Se199  1  0.91127025  0.24457971  0.30704974  1
  Se  Se200  1  0.91550532  0.25364824  0.80189728  1
  Se  Se201  1  0.91662603  0.57566618  0.30256773  1
  Se  Se202  1  0.91924033  0.59292289  0.79750829  1
  Se  Se203  1  0.91167587  0.90074532  0.31136483  1
  Se  Se204  1  0.91549417  0.91693112  0.81085500  1
  Se  Se205  1  0.10137282  0.09129245  0.31746676  1
  Se  Se206  1  0.09548362  0.09117996  0.80439424  1
  Se  Se207  1  0.09564336  0.41263027  0.31596787  1
  Se  Se208  1  0.08456515  0.42008413  0.79919955  1
  Se  Se209  1  0.08209649  0.74940258  0.30775856  1
  Se  Se210  1  0.08153062  0.75493082  0.80181635  1
  Se  Se211  1  0.41697674  0.08776951  0.30144320  1
  Se  Se212  1  0.42149190  0.08044471  0.81097706  1
  Se  Se213  1  0.41618929  0.41836429  0.30300686  1
  Se  Se214  1  0.41215409  0.40999776  0.80560880  1
  Se  Se215  1  0.41554298  0.74850338  0.29847363  1
  Se  Se216  1  0.42173858  0.75009748  0.81100124  1
  Se  Se217  1  0.74798205  0.08625369  0.30741996  1
  Se  Se218  1  0.74926192  0.08155212  0.80280015  1
  Se  Se219  1  0.74674606  0.41136278  0.30205026  1
  Se  Se220  1  0.74599337  0.42665346  0.80154523  1
  Se  Se221  1  0.74490411  0.74380023  0.30053123  1
  Se  Se222  1  0.75516231  0.75946759  0.81093002  1
  Se  Se223  1  0.25281528  0.08243925  0.20308513  1
  Se  Se224  1  0.23545905  0.09132453  0.68591421  1
  Se  Se225  1  0.25044993  0.41140716  0.20102129  1
  Se  Se226  1  0.25650032  0.41981750  0.69126680  1
  Se  Se227  1  0.24932613  0.75494430  0.20105962  1
  Se  Se228  1  0.25060826  0.75874116  0.68799056  1
  Se  Se229  1  0.56699294  0.09157399  0.18607531  1
  Se  Se230  1  0.58182083  0.07568713  0.70317573  1
  Se  Se231  1  0.58152230  0.41608167  0.19474445  1
  Se  Se232  1  0.58577253  0.41153932  0.69820532  1
  Se  Se233  1  0.58560504  0.74880456  0.19531458  1
  Se  Se234  1  0.57489835  0.74607729  0.68879696  1
  Se  Se235  1  0.91296799  0.07848027  0.19776885  1
  Se  Se236  1  0.90757389  0.09508538  0.68625614  1
  Se  Se237  1  0.90797091  0.42102701  0.18510709  1
  Se  Se238  1  0.91469550  0.41958684  0.70030778  1
  Se  Se239  1  0.92450972  0.74235586  0.19817237  1
  Se  Se240  1  0.92218378  0.76020933  0.69534957  1
  Se  Se241  1  0.08808863  0.23933641  0.18819197  1
  Se  Se242  1  0.07654118  0.26477349  0.70025256  1
  Se  Se243  1  0.08153363  0.57963627  0.20556219  1
  Se  Se244  1  0.08561431  0.59268366  0.69705617  1
  Se  Se245  1  0.08930149  0.91153647  0.19401922  1
  Se  Se246  1  0.09567252  0.91916922  0.68424519  1
  Se  Se247  1  0.41075753  0.25918667  0.19639370  1
  Se  Se248  1  0.41585364  0.24409527  0.69733780  1
  Se  Se249  1  0.41511169  0.58670805  0.19824267  1
  Se  Se250  1  0.41545242  0.56756133  0.68548973  1
  Se  Se251  1  0.41454059  0.92151001  0.19748163  1
  Se  Se252  1  0.42260815  0.90160745  0.68964200  1
  Se  Se253  1  0.74682456  0.25205723  0.19835169  1
  Se  Se254  1  0.74333285  0.25402678  0.70131443  1
  Se  Se255  1  0.74715353  0.58404475  0.19806301  1
  Se  Se256  1  0.75479170  0.58065429  0.68241969  1
  Se  Se257  1  0.75371307  0.90359657  0.18933847  1
  Se  Se258  1  0.74351490  0.91725238  0.69820581  1
