# generated using pymatgen
data_In86Cu29Se144
_symmetry_space_group_name_H-M   'P 1'
_cell_length_a   17.57393747
_cell_length_b   17.57492576
_cell_length_c   23.43279915
_cell_angle_alpha   90.02526851
_cell_angle_beta   90.03021791
_cell_angle_gamma   90.01916618
_symmetry_Int_Tables_number   1
_chemical_formula_structural   In86Cu29Se144
_chemical_formula_sum   'In86 Cu29 Se144'
_cell_volume   7237.46737605
_cell_formula_units_Z   1
loop_
 _symmetry_equiv_pos_site_id
 _symmetry_equiv_pos_as_xyz
  1  'x, y, z'
loop_
 _atom_site_type_symbol
 _atom_site_label
 _atom_site_symmetry_multiplicity
 _atom_site_fract_x
 _atom_site_fract_y
 _atom_site_fract_z
 _atom_site_occupancy
  In  In0  1  0.00375811  0.16597107  0.12829083  1
  In  In1  1  -0.00977609  0.16544060  0.62891497  1
  In  In2  1  -0.00784704  0.50789069  0.13290652  1
  In  In3  1  0.01784217  0.50829360  0.61003347  1
  In  In4  1  0.00255930  0.83872155  0.12368421  1
  In  In5  1  0.00214912  0.83324858  0.62491065  1
  In  In6  1  0.33860118  0.17455603  0.12329016  1
  In  In7  1  0.32031696  0.16298799  0.63191690  1
  In  In8  1  0.33212668  0.48669554  0.12142711  1
  In  In9  1  0.33930454  0.50562241  0.62415742  1
  In  In10  1  0.32714765  0.83808726  0.11009342  1
  In  In11  1  0.31606191  0.84393022  0.63650955  1
  In  In12  1  0.66313579  0.15225826  0.12316134  1
  In  In13  1  0.68600423  0.16919532  0.63388553  1
  In  In14  1  0.68129165  0.50563894  0.11249373  1
  In  In15  1  0.65365125  0.50536544  0.62376226  1
  In  In16  1  0.67232988  0.83160327  0.12215332  1
  In  In17  1  0.66725158  0.82618234  0.62170687  1
  In  In18  1  0.15130603  -0.00614142  0.36761702  1
  In  In19  1  0.16448559  -0.00115966  0.88226052  1
  In  In20  1  0.17395544  0.33618478  0.36515652  1
  In  In21  1  0.15339764  0.32744277  0.87928648  1
  In  In22  1  0.13447237  0.68627245  0.40230164  1
  In  In23  1  0.17601443  0.67865488  0.86599525  1
  In  In24  1  0.50242849  -0.01454696  0.37022839  1
  In  In25  1  0.47861712  -0.00000464  0.87795627  1
  In  In26  1  0.49573657  0.35045579  0.37505697  1
  In  In27  1  0.52405779  0.32391665  0.87804737  1
  In  In28  1  0.49628708  0.65478206  0.37214217  1
  In  In29  1  0.49179943  0.67534700  0.88478630  1
  In  In30  1  0.83985836  -0.00580480  0.36549083  1
  In  In31  1  0.84711700  -0.00951267  0.88546952  1
  In  In32  1  0.83814821  0.32410305  0.36844675  1
  In  In33  1  0.82456933  0.33978680  0.89160623  1
  In  In34  1  0.85748625  0.68731852  0.35901632  1
  In  In35  1  0.83719614  0.66244928  0.87778373  1
  In  In36  1  0.01573499  0.16432031  0.35258887  1
  In  In37  1  0.01164562  0.15937633  0.88905856  1
  In  In38  1  0.00929861  0.50758196  0.37226289  1
  In  In39  1  -0.01241507  0.50358634  0.87589213  1
  In  In40  1  0.00086973  0.82945707  0.37414063  1
  In  In41  1  0.00002542  0.83280580  0.87519287  1
  In  In42  1  0.31225417  0.17216145  0.36617033  1
  In  In43  1  0.33570972  0.13478092  0.87928552  1
  In  In44  1  0.33241837  0.50214260  0.37609080  1
  In  In45  1  0.33246008  0.51601688  0.87453353  1
  In  In46  1  0.33015439  0.81748171  0.37811526  1
  In  In47  1  0.32843712  0.83539352  0.88224519  1
  In  In48  1  0.68058473  0.16136405  0.36941693  1
  In  In49  1  0.66609289  0.18670601  0.87971144  1
  In  In50  1  0.65126448  0.50309478  0.37540618  1
  In  In51  1  0.67254627  0.48866443  0.88630122  1
  In  In52  1  0.68645359  0.84424456  0.36093233  1
  In  In53  1  0.66773206  0.83278674  0.88455707  1
  In  In54  1  0.15989789  -0.01328189  0.11756417  1
  In  In55  1  0.16890542  -0.00652308  0.63372808  1
  In  In56  1  0.17316734  0.32252753  0.14160096  1
  In  In57  1  0.15875866  0.34367983  0.62141538  1
  In  In58  1  0.15108413  0.67818381  0.13027042  1
  In  In59  1  0.16352410  0.67184659  0.62547424  1
  In  In60  1  0.51224836  0.00522296  0.12223039  1
  In  In61  1  0.49638857  -0.01511913  0.63113390  1
  In  In62  1  0.48985618  0.33007699  0.12103704  1
  In  In63  1  0.49600876  0.35051927  0.62984344  1
  In  In64  1  0.50976266  0.67770760  0.11674418  1
  In  In65  1  0.50034619  0.65219266  0.62529185  1
  In  In66  1  0.83535467  -0.00320032  0.12172345  1
  In  In67  1  0.84843220  0.00348535  0.62918628  1
  In  In68  1  0.83787792  0.34497827  0.11517007  1
  In  In69  1  0.83454815  0.32612979  0.62957966  1
  In  In70  1  0.83674960  0.66657889  0.12233835  1
  In  In71  1  0.83187251  0.68313069  0.62001298  1
  In  In72  1  0.66498784  0.66432019  0.74975985  1
  In  In73  1  0.50079432  0.16452639  -0.00288797  1
  In  In74  1  0.33280385  0.00057713  0.24570634  1
  In  In75  1  0.83452769  0.50640972  0.48911555  1
  In  In76  1  0.84000814  0.16566958  0.49979520  1
  In  In77  1  0.66608503  0.33226323  0.24511628  1
  In  In78  1  0.16148077  0.50210355  0.00535169  1
  In  In79  1  0.16293757  0.16794017  0.49414174  1
  In  In80  1  0.49700396  0.81354757  0.50208150  1
  In  In81  1  -0.00224455  0.33400471  0.74920992  1
  In  In82  1  0.66232335  0.00657373  0.75957300  1
  In  In83  1  0.33944924  0.32526403  0.75544931  1
  In  In84  1  0.32716306  0.66174357  0.24739854  1
  In  In85  1  0.49917186  0.17170395  0.50542719  1
  Cu  Cu86  1  0.67002629  -0.00448674  0.48949507  1
  Cu  Cu87  1  0.16674656  0.50883396  0.74488682  1
  Cu  Cu88  1  0.15922586  0.83372277  0.75375083  1
  Cu  Cu89  1  0.83757339  0.83982889  0.74908757  1
  Cu  Cu90  1  0.83781144  0.17161673  0.75959529  1
  Cu  Cu91  1  0.33257819  0.33217729  -0.00091059  1
  Cu  Cu92  1  0.51167161  0.83207756  0.24264396  1
  Cu  Cu93  1  0.33044567  0.66874641  -0.00104417  1
  Cu  Cu94  1  0.16463425  0.15503159  0.75788076  1
  Cu  Cu95  1  -0.00047475  0.33195689  0.00666580  1
  Cu  Cu96  1  -0.00101154  -0.00190817  0.00394237  1
  Cu  Cu97  1  0.49889205  0.16914905  0.24555529  1
  Cu  Cu98  1  0.32585073  -0.00735701  0.50614622  1
  Cu  Cu99  1  0.16488386  0.50381117  0.25247724  1
  Cu  Cu100  1  0.83160572  0.50257931  0.24540519  1
  Cu  Cu101  1  0.67080509  -0.00470296  0.00099391  1
  Cu  Cu102  1  0.83581256  0.15772810  0.24323422  1
  Cu  Cu103  1  0.48330109  0.82900506  0.75682226  1
  Cu  Cu104  1  0.33564148  0.34146852  0.49671558  1
  Cu  Cu105  1  0.49877998  0.49989241  0.24790819  1
  Cu  Cu106  1  0.67131071  0.67119466  0.49429398  1
  Cu  Cu107  1  0.66257744  0.34211421  0.50362300  1
  Cu  Cu108  1  0.67158917  0.66278269  0.00126465  1
  Cu  Cu109  1  -0.00225616  -0.00436038  0.49829083  1
  Cu  Cu110  1  0.32388385  0.65838878  0.50342613  1
  Cu  Cu111  1  0.83978974  0.83264792  0.24170937  1
  Cu  Cu112  1  0.50439928  0.49830580  0.75338355  1
  Cu  Cu113  1  -0.00133876  0.67062101  0.00155714  1
  Cu  Cu114  1  0.83348411  0.49843608  0.75520872  1
  Se  Se115  1  0.08214986  0.08330719  0.05565567  1
  Se  Se116  1  0.07591595  0.07956551  0.55954900  1
  Se  Se117  1  0.07968054  0.41160221  0.06894696  1
  Se  Se118  1  0.07972200  0.40846758  0.54487918  1
  Se  Se119  1  0.08445097  0.75488569  0.05114279  1
  Se  Se120  1  0.08802380  0.75737038  0.55526398  1
  Se  Se121  1  0.41005709  0.07482400  0.05634810  1
  Se  Se122  1  0.40804823  0.07451642  0.56153327  1
  Se  Se123  1  0.41826988  0.41670775  0.04801178  1
  Se  Se124  1  0.41913759  0.42138726  0.55288547  1
  Se  Se125  1  0.41716773  0.75168837  0.05026106  1
  Se  Se126  1  0.40100971  0.74069337  0.56808506  1
  Se  Se127  1  0.75159675  0.08188667  0.05262056  1
  Se  Se128  1  0.74493306  0.07371022  0.55644338  1
  Se  Se129  1  0.74469515  0.40879805  0.04502905  1
  Se  Se130  1  0.75050501  0.41761511  0.56045634  1
  Se  Se131  1  0.75462676  0.74919526  0.05230028  1
  Se  Se132  1  0.75001004  0.75844280  0.54642139  1
  Se  Se133  1  0.25034086  0.25758684  0.05883561  1
  Se  Se134  1  0.25753564  0.25756974  0.55650892  1
  Se  Se135  1  0.25196623  0.59363260  0.06507787  1
  Se  Se136  1  0.24308295  0.57700859  0.56017332  1
  Se  Se137  1  0.25103310  0.92479099  0.04350060  1
  Se  Se138  1  0.23934099  0.91254972  0.55664866  1
  Se  Se139  1  0.59001663  0.25368283  0.05822860  1
  Se  Se140  1  0.59406492  0.25616424  0.56646674  1
  Se  Se141  1  0.58261053  0.58193650  0.05158888  1
  Se  Se142  1  0.58609219  0.58963708  0.54779368  1
  Se  Se143  1  0.58491625  0.91459058  0.05414384  1
  Se  Se144  1  0.58667119  0.92073343  0.55206250  1
  Se  Se145  1  0.91705806  0.24568200  0.05771175  1
  Se  Se146  1  0.92970644  0.26249559  0.55502479  1
  Se  Se147  1  0.91929707  0.58082387  0.05284054  1
  Se  Se148  1  0.91879652  0.59536609  0.55341528  1
  Se  Se149  1  0.91372108  0.91082617  0.05193621  1
  Se  Se150  1  0.91470138  0.91738472  0.55603162  1
  Se  Se151  1  0.07526057  0.25384670  0.43213616  1
  Se  Se152  1  0.08762527  0.24951098  0.95780312  1
  Se  Se153  1  0.08342729  0.56963370  0.45555353  1
  Se  Se154  1  0.08035060  0.59169673  0.93909438  1
  Se  Se155  1  0.08358746  0.91542653  0.44521185  1
  Se  Se156  1  0.07938818  0.91324904  0.94788978  1
  Se  Se157  1  0.40772223  0.25222486  0.43790185  1
  Se  Se158  1  0.40830417  0.25252473  0.93498205  1
  Se  Se159  1  0.41370578  0.58512806  0.44741378  1
  Se  Se160  1  0.41502706  0.58205898  0.95129998  1
  Se  Se161  1  0.41126532  0.91707672  0.44588686  1
  Se  Se162  1  0.42320836  0.90629009  0.94968692  1
  Se  Se163  1  0.74087589  0.25912314  0.44482249  1
  Se  Se164  1  0.75590542  0.24139237  0.95527715  1
  Se  Se165  1  0.74699167  0.59591324  0.42818656  1
  Se  Se166  1  0.75568074  0.58068808  0.94703271  1
  Se  Se167  1  0.75935471  0.91717165  0.44050934  1
  Se  Se168  1  0.75624237  0.91099748  0.95047591  1
  Se  Se169  1  0.25452340  0.07215716  0.43922022  1
  Se  Se170  1  0.23582480  0.09301526  0.95079514  1
  Se  Se171  1  0.24751703  0.41606809  0.44141549  1
  Se  Se172  1  0.25129393  0.41464410  0.93961885  1
  Se  Se173  1  0.24829781  0.75211945  0.45469873  1
  Se  Se174  1  0.24204854  0.74969906  0.94894146  1
  Se  Se175  1  0.58604435  0.08085808  0.43901983  1
  Se  Se176  1  0.59140481  0.07297032  0.93655228  1
  Se  Se177  1  0.57763623  0.42173965  0.45029619  1
  Se  Se178  1  0.57483163  0.41961693  0.95072791  1
  Se  Se179  1  0.59142125  0.74946966  0.42975043  1
  Se  Se180  1  0.58593450  0.74782833  0.95072816  1
  Se  Se181  1  0.92912846  0.08242582  0.43473584  1
  Se  Se182  1  0.91582312  0.08569334  0.95337190  1
  Se  Se183  1  0.92135515  0.40808758  0.43628944  1
  Se  Se184  1  0.92222283  0.41915672  0.95151908  1
  Se  Se185  1  0.91484388  0.75294404  0.44522236  1
  Se  Se186  1  0.91479802  0.75111376  0.94489659  1
  Se  Se187  1  0.24189860  0.24837896  0.29131298  1
  Se  Se188  1  0.24320203  0.24094009  0.81491701  1
  Se  Se189  1  0.23721122  0.58776042  0.31603174  1
  Se  Se190  1  0.25282707  0.58740391  0.79883116  1
  Se  Se191  1  0.25183810  0.90656581  0.30964641  1
  Se  Se192  1  0.24357986  0.91393056  0.81090604  1
  Se  Se193  1  0.57680369  0.24635920  0.31252747  1
  Se  Se194  1  0.58143593  0.24026434  0.79945178  1
  Se  Se195  1  0.58265558  0.58455451  0.29843498  1
  Se  Se196  1  0.58052610  0.58018038  0.81663384  1
  Se  Se197  1  0.58930537  0.91963939  0.29735321  1
  Se  Se198  1  0.57481450  0.90555026  0.81149129  1
  Se  Se199  1  0.91510533  0.24481405  0.29660343  1
  Se  Se200  1  0.91857585  0.25108376  0.82061145  1
  Se  Se201  1  0.92012034  0.57924264  0.30053707  1
  Se  Se202  1  0.91668835  0.58738182  0.80163607  1
  Se  Se203  1  0.92431038  0.91226537  0.29918558  1
  Se  Se204  1  0.91991524  0.92010020  0.80482378  1
  Se  Se205  1  0.09077328  0.07347070  0.28849246  1
  Se  Se206  1  0.07686718  0.07782601  0.81073470  1
  Se  Se207  1  0.08095864  0.41681938  0.30224357  1
  Se  Se208  1  0.09019629  0.42778790  0.80752765  1
  Se  Se209  1  0.08558430  0.74193332  0.30922772  1
  Se  Se210  1  0.07522458  0.74611736  0.80265818  1
  Se  Se211  1  0.42238641  0.09018759  0.31182123  1
  Se  Se212  1  0.42706955  0.09103949  0.80101764  1
  Se  Se213  1  0.41218449  0.42142111  0.30176367  1
  Se  Se214  1  0.42331991  0.42052288  0.81535661  1
  Se  Se215  1  0.42631051  0.75576439  0.30242893  1
  Se  Se216  1  0.40517191  0.74437482  0.81131206  1
  Se  Se217  1  0.75205700  0.07679381  0.29849710  1
  Se  Se218  1  0.76014066  0.08749525  0.81893688  1
  Se  Se219  1  0.75244888  0.42385975  0.30879698  1
  Se  Se220  1  0.75437771  0.41557032  0.81084736  1
  Se  Se221  1  0.75342482  0.74787516  0.29386938  1
  Se  Se222  1  0.75385306  0.75896380  0.80664778  1
  Se  Se223  1  0.24610897  0.08585198  0.18312258  1
  Se  Se224  1  0.25131907  0.07631006  0.70360342  1
  Se  Se225  1  0.25187342  0.42269352  0.20009055  1
  Se  Se226  1  0.24742834  0.41673966  0.69473750  1
  Se  Se227  1  0.24801245  0.76339173  0.19070353  1
  Se  Se228  1  0.24420300  0.74876938  0.70125897  1
  Se  Se229  1  0.58432283  0.08168652  0.20082188  1
  Se  Se230  1  0.57997511  0.08759100  0.68712064  1
  Se  Se231  1  0.57922546  0.42307804  0.18469082  1
  Se  Se232  1  0.58960472  0.41821501  0.69971456  1
  Se  Se233  1  0.59290450  0.74458674  0.19312152  1
  Se  Se234  1  0.56958939  0.75824129  0.69344320  1
  Se  Se235  1  0.92065721  0.07450694  0.19241237  1
  Se  Se236  1  0.91796237  0.08660644  0.70475900  1
  Se  Se237  1  0.91263314  0.41351784  0.19600990  1
  Se  Se238  1  0.91552098  0.42897087  0.68706517  1
  Se  Se239  1  0.92269249  0.74711382  0.19051712  1
  Se  Se240  1  0.91473664  0.75222130  0.69462235  1
  Se  Se241  1  0.06925151  0.25820707  0.20066570  1
  Se  Se242  1  0.09458541  0.24114309  0.69343264  1
  Se  Se243  1  0.08159846  0.58727001  0.19922883  1
  Se  Se244  1  0.07766993  0.58535833  0.69261549  1
  Se  Se245  1  0.08840121  0.91279972  0.19572433  1
  Se  Se246  1  0.07682261  0.91803500  0.69893388  1
  Se  Se247  1  0.41479017  0.25495681  0.19823717  1
  Se  Se248  1  0.42594473  0.24110169  0.68829767  1
  Se  Se249  1  0.42190998  0.58030043  0.18436315  1
  Se  Se250  1  0.41913246  0.58004871  0.70028090  1
  Se  Se251  1  0.42462640  0.90933994  0.18616626  1
  Se  Se252  1  0.40815686  0.91954675  0.70368694  1
  Se  Se253  1  0.75546097  0.24255162  0.18611988  1
  Se  Se254  1  0.75508537  0.25588923  0.70686574  1
  Se  Se255  1  0.74933014  0.58417608  0.19094716  1
  Se  Se256  1  0.75815841  0.57794821  0.68848410  1
  Se  Se257  1  0.75146127  0.91628159  0.19287017  1
  Se  Se258  1  0.74889921  0.91607898  0.69192229  1
