# generated using pymatgen
data_In86Cu29Se144
_symmetry_space_group_name_H-M   'P 1'
_cell_length_a   17.57778843
_cell_length_b   17.57759645
_cell_length_c   23.43184749
_cell_angle_alpha   90.01140286
_cell_angle_beta   89.97476860
_cell_angle_gamma   89.99957958
_symmetry_Int_Tables_number   1
_chemical_formula_structural   In86Cu29Se144
_chemical_formula_sum   'In86 Cu29 Se144'
_cell_volume   7239.86059371
_cell_formula_units_Z   1
loop_
 _symmetry_equiv_pos_site_id
 _symmetry_equiv_pos_as_xyz
  1  'x, y, z'
loop_
 _atom_site_type_symbol
 _atom_site_label
 _atom_site_symmetry_multiplicity
 _atom_site_fract_x
 _atom_site_fract_y
 _atom_site_fract_z
 _atom_site_occupancy
  In  In0  1  0.00504582  0.18103813  0.11130314  1
  In  In1  1  -0.00184602  0.16688033  0.62587656  1
  In  In2  1  0.00144518  0.49913716  0.11795881  1
  In  In3  1  -0.00718826  0.51583967  0.64529082  1
  In  In4  1  -0.01729676  0.83134443  0.12381065  1
  In  In5  1  -0.00457483  0.83259275  0.62032918  1
  In  In6  1  0.32402332  0.16590738  0.12959978  1
  In  In7  1  0.32513867  0.18222232  0.62310233  1
  In  In8  1  0.33417532  0.50969251  0.11479042  1
  In  In9  1  0.33704415  0.49056898  0.62008826  1
  In  In10  1  0.33545164  0.82860139  0.13466696  1
  In  In11  1  0.32995992  0.84805316  0.62113486  1
  In  In12  1  0.67666259  0.15940158  0.13291580  1
  In  In13  1  0.67236013  0.15811217  0.62519083  1
  In  In14  1  0.66369459  0.48750703  0.11001622  1
  In  In15  1  0.68877384  0.52230362  0.60517307  1
  In  In16  1  0.67946688  0.83949028  0.12877091  1
  In  In17  1  0.67694839  0.80731262  0.62499838  1
  In  In18  1  0.17153743  -0.00454223  0.37885675  1
  In  In19  1  0.15347858  0.01919341  0.87953640  1
  In  In20  1  0.14657349  0.33731527  0.37280077  1
  In  In21  1  0.11862188  0.35996968  0.91717424  1
  In  In22  1  0.17298770  0.67132257  0.36860193  1
  In  In23  1  0.15938362  0.66322022  0.87150452  1
  In  In24  1  0.50741414  0.01345847  0.35826911  1
  In  In25  1  0.48670628  0.00382684  0.87708151  1
  In  In26  1  0.52051057  0.32869159  0.36846682  1
  In  In27  1  0.51388910  0.34848616  0.87912760  1
  In  In28  1  0.49429861  0.66974064  0.37621560  1
  In  In29  1  0.50753073  0.64284100  0.87696863  1
  In  In30  1  0.82769008  0.00499134  0.38171596  1
  In  In31  1  0.84236528  -0.01167544  0.87914094  1
  In  In32  1  0.83462170  0.33386695  0.37187882  1
  In  In33  1  0.85399665  0.31331164  0.90393234  1
  In  In34  1  0.84117112  0.65062784  0.38377250  1
  In  In35  1  0.83423406  0.66622227  0.87384417  1
  In  In36  1  -0.01125511  0.17559248  0.38034736  1
  In  In37  1  0.00090581  0.16774568  0.87418392  1
  In  In38  1  -0.00891450  0.49272366  0.36580100  1
  In  In39  1  -0.00823138  0.49909698  0.87720099  1
  In  In40  1  0.01018461  0.82309486  0.38146722  1
  In  In41  1  -0.01098162  0.82082613  0.86406347  1
  In  In42  1  0.33220706  0.15379129  0.37042604  1
  In  In43  1  0.31999165  0.16448018  0.87748316  1
  In  In44  1  0.33108769  0.51504634  0.37165492  1
  In  In45  1  0.33439977  0.50283513  0.89012124  1
  In  In46  1  0.32996111  0.83048625  0.37037482  1
  In  In47  1  0.32904180  0.83442955  0.87403878  1
  In  In48  1  0.67723413  0.17800559  0.36094063  1
  In  In49  1  0.67702373  0.18798083  0.87571786  1
  In  In50  1  0.68440857  0.49286593  0.38185767  1
  In  In51  1  0.66798249  0.49547219  0.88540456  1
  In  In52  1  0.66305551  0.83852647  0.37921163  1
  In  In53  1  0.68666061  0.83507840  0.87405701  1
  In  In54  1  0.16417271  0.01042708  0.12706617  1
  In  In55  1  0.15869728  -0.00807289  0.61545114  1
  In  In56  1  0.15316094  0.32783024  0.11259718  1
  In  In57  1  0.16218830  0.32470268  0.62264611  1
  In  In58  1  0.17464697  0.65343818  0.13020731  1
  In  In59  1  0.14552891  0.66630585  0.62685590  1
  In  In60  1  0.49990737  0.00927247  0.14450592  1
  In  In61  1  0.50849126  0.00272290  0.62467407  1
  In  In62  1  0.50094842  0.34367092  0.12870690  1
  In  In63  1  0.49058817  0.34366721  0.62337696  1
  In  In64  1  0.49666516  0.65298165  0.12762885  1
  In  In65  1  0.51777184  0.66577150  0.62695246  1
  In  In66  1  0.82678433  -0.00159143  0.12307231  1
  In  In67  1  0.84580703  0.01132500  0.61575739  1
  In  In68  1  0.83795956  0.33450591  0.11565225  1
  In  In69  1  0.84299829  0.34349255  0.62266599  1
  In  In70  1  0.83535894  0.67267177  0.12189238  1
  In  In71  1  0.83938063  0.66223866  0.62405089  1
  In  In72  1  0.49810009  0.83084105  0.49260079  1
  In  In73  1  0.51039981  0.82351609  0.01714547  1
  In  In74  1  0.50413055  0.17046246  0.00160902  1
  In  In75  1  0.67062111  0.34382692  0.75376346  1
  In  In76  1  0.33023852  0.33613602  0.24112629  1
  In  In77  1  0.66824901  0.66505076  0.25112710  1
  In  In78  1  0.67250793  -0.00108737  0.74412786  1
  In  In79  1  0.32414480  0.33340142  0.75219942  1
  In  In80  1  0.16225734  0.49984813  0.50274872  1
  In  In81  1  0.32905148  0.66618052  0.75790991  1
  In  In82  1  -0.00133641  0.00008462  0.25102779  1
  In  In83  1  0.32713006  0.00298033  0.75590301  1
  In  In84  1  0.16292284  0.82521956  -0.00697911  1
  In  In85  1  0.50165580  0.16821404  0.49741477  1
  Cu  Cu86  1  0.16437070  0.82857351  0.25393149  1
  Cu  Cu87  1  0.50272170  0.49800628  0.24710152  1
  Cu  Cu88  1  0.84011042  0.82767199  0.74626589  1
  Cu  Cu89  1  0.67043797  0.67051138  0.00093317  1
  Cu  Cu90  1  -0.00744371  0.33278829  0.49968475  1
  Cu  Cu91  1  0.33383099  0.32910327  0.00762038  1
  Cu  Cu92  1  0.84166136  0.17382521  0.24767864  1
  Cu  Cu93  1  0.83342484  0.83292323  0.25082406  1
  Cu  Cu94  1  0.67234392  0.00901151  0.00120650  1
  Cu  Cu95  1  0.00072829  0.00228023  0.49910901  1
  Cu  Cu96  1  0.67209391  0.33049239  0.49407183  1
  Cu  Cu97  1  0.83313373  0.49871168  0.75445786  1
  Cu  Cu98  1  0.83852754  0.16904465  0.75378940  1
  Cu  Cu99  1  0.32865529  0.00189027  0.49487522  1
  Cu  Cu100  1  0.33177819  0.33329425  0.49759491  1
  Cu  Cu101  1  0.33028157  0.67198364  0.49594095  1
  Cu  Cu102  1  0.33272332  -0.00713782  0.00514150  1
  Cu  Cu103  1  0.15742091  0.50129147  0.24564653  1
  Cu  Cu104  1  0.49637291  0.83198978  0.25475451  1
  Cu  Cu105  1  0.50745098  0.50131284  0.74924518  1
  Cu  Cu106  1  -0.00103406  0.66469309  0.50208481  1
  Cu  Cu107  1  0.83380817  0.49308373  0.24518197  1
  Cu  Cu108  1  0.15782992  0.16878553  0.74981917  1
  Cu  Cu109  1  0.16448626  0.16706063  0.24582185  1
  Cu  Cu110  1  -0.00753968  0.00210699  0.00069235  1
  Cu  Cu111  1  -0.00444656  0.66795062  -0.00412544  1
  Cu  Cu112  1  0.15561253  0.83502189  0.74305843  1
  Cu  Cu113  1  0.67061155  -0.00311751  0.49998340  1
  Cu  Cu114  1  0.51048927  0.83108018  0.75012991  1
  Se  Se115  1  0.08209710  0.07941651  0.05261709  1
  Se  Se116  1  0.08223798  0.08750707  0.55368929  1
  Se  Se117  1  0.07860845  0.41550979  0.04421821  1
  Se  Se118  1  0.06944643  0.41481228  0.56233226  1
  Se  Se119  1  0.07543650  0.74434179  0.06057319  1
  Se  Se120  1  0.08367375  0.75195924  0.55080754  1
  Se  Se121  1  0.41495256  0.07542115  0.06147325  1
  Se  Se122  1  0.40819801  0.07828525  0.55944286  1
  Se  Se123  1  0.41806516  0.41576056  0.05559515  1
  Se  Se124  1  0.41785478  0.41853654  0.54485108  1
  Se  Se125  1  0.40411146  0.73695330  0.05986594  1
  Se  Se126  1  0.41142255  0.74609651  0.56191685  1
  Se  Se127  1  0.75624683  0.09109954  0.05366815  1
  Se  Se128  1  0.75105237  0.08668036  0.55003536  1
  Se  Se129  1  0.77156101  0.43357408  0.04748702  1
  Se  Se130  1  0.75454106  0.41269764  0.55004641  1
  Se  Se131  1  0.75009476  0.75696124  0.05446207  1
  Se  Se132  1  0.75552419  0.73770109  0.55080727  1
  Se  Se133  1  0.24930574  0.24257524  0.05490299  1
  Se  Se134  1  0.24478361  0.25166858  0.54739461  1
  Se  Se135  1  0.23896976  0.57976293  0.04904985  1
  Se  Se136  1  0.25356347  0.59337061  0.56144086  1
  Se  Se137  1  0.24940451  0.91292310  0.06153873  1
  Se  Se138  1  0.24713128  0.91491658  0.54590410  1
  Se  Se139  1  0.59034343  0.25317210  0.06650098  1
  Se  Se140  1  0.59089669  0.25787094  0.56048092  1
  Se  Se141  1  0.58500532  0.58897487  0.05374743  1
  Se  Se142  1  0.56690493  0.56943645  0.55482209  1
  Se  Se143  1  0.59014153  0.93378692  0.06453271  1
  Se  Se144  1  0.59146864  0.91482164  0.55930503  1
  Se  Se145  1  0.91330785  0.24897398  0.04346514  1
  Se  Se146  1  0.91293091  0.24754829  0.55580502  1
  Se  Se147  1  0.91512524  0.58707195  0.05392117  1
  Se  Se148  1  0.92524841  0.57512989  0.55778764  1
  Se  Se149  1  0.91026817  0.91689166  0.05275650  1
  Se  Se150  1  0.91558443  0.91589662  0.54933221  1
  Se  Se151  1  0.08070481  0.25224337  0.44806889  1
  Se  Se152  1  0.10201169  0.22015310  0.94539384  1
  Se  Se153  1  0.07781265  0.58643434  0.43658427  1
  Se  Se154  1  0.07989656  0.58567884  0.94368257  1
  Se  Se155  1  0.08421437  0.91743446  0.44656249  1
  Se  Se156  1  0.07048140  0.91888092  0.93871717  1
  Se  Se157  1  0.41221202  0.25632151  0.43438761  1
  Se  Se158  1  0.41217981  0.25648316  0.93895337  1
  Se  Se159  1  0.41368518  0.58617455  0.44641349  1
  Se  Se160  1  0.42445886  0.58206376  0.95336487  1
  Se  Se161  1  0.41657735  0.93023503  0.43416509  1
  Se  Se162  1  0.41567203  0.91138433  0.95004350  1
  Se  Se163  1  0.75344785  0.24607812  0.44070993  1
  Se  Se164  1  0.73590999  0.26094917  0.95742903  1
  Se  Se165  1  0.74931102  0.58316622  0.45318063  1
  Se  Se166  1  0.75211217  0.58791408  0.94597318  1
  Se  Se167  1  0.75287273  0.91139857  0.44822787  1
  Se  Se168  1  0.75151601  0.91828947  0.95067653  1
  Se  Se169  1  0.24578510  0.09001812  0.44608661  1
  Se  Se170  1  0.25224124  0.07639776  0.95056736  1
  Se  Se171  1  0.25183165  0.41374136  0.43638922  1
  Se  Se172  1  0.25299960  0.40976611  0.95013456  1
  Se  Se173  1  0.24700331  0.75378132  0.44316504  1
  Se  Se174  1  0.26145223  0.73564479  0.94023167  1
  Se  Se175  1  0.59332334  0.07989122  0.43830231  1
  Se  Se176  1  0.59073655  0.07950102  0.93662488  1
  Se  Se177  1  0.58658956  0.41334442  0.44302404  1
  Se  Se178  1  0.58534184  0.41773048  0.95720023  1
  Se  Se179  1  0.59436293  0.73545708  0.44575398  1
  Se  Se180  1  0.59003373  0.74922489  0.93852843  1
  Se  Se181  1  0.91461963  0.08571730  0.44828808  1
  Se  Se182  1  0.91334962  0.08530383  0.94318059  1
  Se  Se183  1  0.91488550  0.41845645  0.44302457  1
  Se  Se184  1  0.90635075  0.43162243  0.95475294  1
  Se  Se185  1  0.91704534  0.74739841  0.44683709  1
  Se  Se186  1  0.91297821  0.75446388  0.94446833  1
  Se  Se187  1  0.24164550  0.25038857  0.30779104  1
  Se  Se188  1  0.23370215  0.24828205  0.81238182  1
  Se  Se189  1  0.24552077  0.58178530  0.29744685  1
  Se  Se190  1  0.24559378  0.56546135  0.81078966  1
  Se  Se191  1  0.24706771  0.91643896  0.30366032  1
  Se  Se192  1  0.23115198  0.91152624  0.81024843  1
  Se  Se193  1  0.57872161  0.24037458  0.29425574  1
  Se  Se194  1  0.57455087  0.24903260  0.80647008  1
  Se  Se195  1  0.58037155  0.57475171  0.31241888  1
  Se  Se196  1  0.59588483  0.57516504  0.80525939  1
  Se  Se197  1  0.58698213  0.91248800  0.30287062  1
  Se  Se198  1  0.58027759  0.91706038  0.81299630  1
  Se  Se199  1  0.92377630  0.25649577  0.30181797  1
  Se  Se200  1  0.91271138  0.25512520  0.81192547  1
  Se  Se201  1  0.91054864  0.58233145  0.30016979  1
  Se  Se202  1  0.91797922  0.58567196  0.80395630  1
  Se  Se203  1  0.91390227  0.91008178  0.31421980  1
  Se  Se204  1  0.91692852  0.91843277  0.79902136  1
  Se  Se205  1  0.08660242  0.09080601  0.31145932  1
  Se  Se206  1  0.07495337  0.08059033  0.79911614  1
  Se  Se207  1  0.07601422  0.41379375  0.29552271  1
  Se  Se208  1  0.07901934  0.40762493  0.81832523  1
  Se  Se209  1  0.07767272  0.74457765  0.30226995  1
  Se  Se210  1  0.08298693  0.74569839  0.79946464  1
  Se  Se211  1  0.41173908  0.08469943  0.29561479  1
  Se  Se212  1  0.42160664  0.09939619  0.80592419  1
  Se  Se213  1  0.41902971  0.42032956  0.30861775  1
  Se  Se214  1  0.42194643  0.42501430  0.80822810  1
  Se  Se215  1  0.41296000  0.74463082  0.30311631  1
  Se  Se216  1  0.42937915  0.75479424  0.81283458  1
  Se  Se217  1  0.76311075  0.08547605  0.30211208  1
  Se  Se218  1  0.75453189  0.08866399  0.81116283  1
  Se  Se219  1  0.74904282  0.41424864  0.30168791  1
  Se  Se220  1  0.76532470  0.41550699  0.82022637  1
  Se  Se221  1  0.75633003  0.75222160  0.31389197  1
  Se  Se222  1  0.75330149  0.74900708  0.80051010  1
  Se  Se223  1  0.25030095  0.07881848  0.20106203  1
  Se  Se224  1  0.24172129  0.09025062  0.68963292  1
  Se  Se225  1  0.23760066  0.42274830  0.18232334  1
  Se  Se226  1  0.23939649  0.42463787  0.68888799  1
  Se  Se227  1  0.24764804  0.74579255  0.19847377  1
  Se  Se228  1  0.24796080  0.75879829  0.68984599  1
  Se  Se229  1  0.59568536  0.08186717  0.20508742  1
  Se  Se230  1  0.57329729  0.09638903  0.69790013  1
  Se  Se231  1  0.59161917  0.42103378  0.19484964  1
  Se  Se232  1  0.58564981  0.42684616  0.68458375  1
  Se  Se233  1  0.57692881  0.75631115  0.18984714  1
  Se  Se234  1  0.59273636  0.74327134  0.70260110  1
  Se  Se235  1  0.91823472  0.09108049  0.18608129  1
  Se  Se236  1  0.91532817  0.08365079  0.69675898  1
  Se  Se237  1  0.91928138  0.41584714  0.18847872  1
  Se  Se238  1  0.91701375  0.41343157  0.70247069  1
  Se  Se239  1  0.91449166  0.74726692  0.19918925  1
  Se  Se240  1  0.92382808  0.74440596  0.69294450  1
  Se  Se241  1  0.08252152  0.24947284  0.19123327  1
  Se  Se242  1  0.07729870  0.25406323  0.69590435  1
  Se  Se243  1  0.07359276  0.58555663  0.19315802  1
  Se  Se244  1  0.09752259  0.57878252  0.70557058  1
  Se  Se245  1  0.08688578  0.90705258  0.18963916  1
  Se  Se246  1  0.07648866  0.92037900  0.68975978  1
  Se  Se247  1  0.42529053  0.24144169  0.19148127  1
  Se  Se248  1  0.42300914  0.24626018  0.69367967  1
  Se  Se249  1  0.41152958  0.57642862  0.19726383  1
  Se  Se250  1  0.41878161  0.57894113  0.69262735  1
  Se  Se251  1  0.41338520  0.91649151  0.20169112  1
  Se  Se252  1  0.42653142  0.91290589  0.69594315  1
  Se  Se253  1  0.75924110  0.25532677  0.19141380  1
  Se  Se254  1  0.75601308  0.24637447  0.69281637  1
  Se  Se255  1  0.75171259  0.57596279  0.18679027  1
  Se  Se256  1  0.75364940  0.57978202  0.69430861  1
  Se  Se257  1  0.75290185  0.92218880  0.20200427  1
  Se  Se258  1  0.76124234  0.90943149  0.68397808  1
