# generated using pymatgen
data_In86Cu29Se144
_symmetry_space_group_name_H-M   'P 1'
_cell_length_a   17.58253119
_cell_length_b   17.58277509
_cell_length_c   23.44751402
_cell_angle_alpha   90.01180567
_cell_angle_beta   90.00290111
_cell_angle_gamma   90.01719701
_symmetry_Int_Tables_number   1
_chemical_formula_structural   In86Cu29Se144
_chemical_formula_sum   'In86 Cu29 Se144'
_cell_volume   7248.79123410
_cell_formula_units_Z   1
loop_
 _symmetry_equiv_pos_site_id
 _symmetry_equiv_pos_as_xyz
  1  'x, y, z'
loop_
 _atom_site_type_symbol
 _atom_site_label
 _atom_site_symmetry_multiplicity
 _atom_site_fract_x
 _atom_site_fract_y
 _atom_site_fract_z
 _atom_site_occupancy
  In  In0  1  -0.01857408  0.18997397  0.14394917  1
  In  In1  1  -0.00977508  0.15334068  0.62247230  1
  In  In2  1  -0.00293784  0.49730450  0.12522786  1
  In  In3  1  -0.00649074  0.51379336  0.62548322  1
  In  In4  1  -0.00861281  0.83564577  0.13632849  1
  In  In5  1  -0.00454746  0.83623854  0.61343372  1
  In  In6  1  0.34058561  0.15687454  0.11856977  1
  In  In7  1  0.34251593  0.15786903  0.63049551  1
  In  In8  1  0.33312790  0.49409885  0.11730674  1
  In  In9  1  0.33870084  0.48903616  0.63108219  1
  In  In10  1  0.32408382  0.83322172  0.12178107  1
  In  In11  1  0.33707422  0.84548882  0.62634765  1
  In  In12  1  0.66757857  0.16634354  0.12457029  1
  In  In13  1  0.65466307  0.17327614  0.62454165  1
  In  In14  1  0.66930412  0.49734037  0.12523118  1
  In  In15  1  0.67981875  0.51221764  0.61758304  1
  In  In16  1  0.68257488  0.81970323  0.13878579  1
  In  In17  1  0.68249025  0.82145340  0.63034441  1
  In  In18  1  0.13325194  -0.01025522  0.38287037  1
  In  In19  1  0.16019708  -0.00428605  0.86427165  1
  In  In20  1  0.15805859  0.33885232  0.36950181  1
  In  In21  1  0.17957876  0.33140071  0.87394757  1
  In  In22  1  0.15744452  0.68733867  0.38832991  1
  In  In23  1  0.15212345  0.66496137  0.87297448  1
  In  In24  1  0.51707121  0.00425007  0.37750911  1
  In  In25  1  0.50943610  0.01145465  0.86732758  1
  In  In26  1  0.50963913  0.32811366  0.37845302  1
  In  In27  1  0.49374419  0.34384509  0.87974717  1
  In  In28  1  0.49485305  0.65293654  0.38112722  1
  In  In29  1  0.51070386  0.64632395  0.86913824  1
  In  In30  1  0.83296888  -0.00463496  0.37695180  1
  In  In31  1  0.83784208  0.00289787  0.87116983  1
  In  In32  1  0.83656750  0.35035761  0.35629583  1
  In  In33  1  0.82888246  0.33576101  0.88518720  1
  In  In34  1  0.83376748  0.66955686  0.37354147  1
  In  In35  1  0.82219240  0.64667635  0.85860546  1
  In  In36  1  -0.00653011  0.16127877  0.36376908  1
  In  In37  1  -0.00239007  0.15628809  0.87626544  1
  In  In38  1  -0.01274628  0.50278846  0.36732559  1
  In  In39  1  -0.00804105  0.50838846  0.88447133  1
  In  In40  1  -0.00784449  0.82723179  0.37993507  1
  In  In41  1  -0.00094071  0.83024256  0.86722264  1
  In  In42  1  0.33655461  0.17294928  0.37990432  1
  In  In43  1  0.34279140  0.18058692  0.86648372  1
  In  In44  1  0.33640950  0.51472744  0.38241333  1
  In  In45  1  0.34645752  0.48413574  0.87863921  1
  In  In46  1  0.32006947  0.82812036  0.38652990  1
  In  In47  1  0.32151682  0.83450580  0.86653279  1
  In  In48  1  0.66416317  0.16604563  0.37158699  1
  In  In49  1  0.67393172  0.16153396  0.88309189  1
  In  In50  1  0.66637239  0.50087933  0.36979701  1
  In  In51  1  0.66718852  0.50016681  0.87674156  1
  In  In52  1  0.67791329  0.84500010  0.37323463  1
  In  In53  1  0.66621284  0.82912064  0.86611583  1
  In  In54  1  0.15994653  -0.00363277  0.12658316  1
  In  In55  1  0.16923142  -0.00830220  0.62372141  1
  In  In56  1  0.14879027  0.33683688  0.12774447  1
  In  In57  1  0.17280581  0.34630684  0.62605867  1
  In  In58  1  0.16723768  0.65378572  0.12400231  1
  In  In59  1  0.14092647  0.66738480  0.61750617  1
  In  In60  1  0.50332729  0.01263898  0.11899902  1
  In  In61  1  0.49469853  0.00767659  0.63147713  1
  In  In62  1  0.51122307  0.34040916  0.11810247  1
  In  In63  1  0.50093470  0.32816267  0.62039184  1
  In  In64  1  0.51930663  0.65583497  0.12844034  1
  In  In65  1  0.51802310  0.66325827  0.62724875  1
  In  In66  1  0.82433699  0.00988996  0.13232342  1
  In  In67  1  0.84664550  -0.01540075  0.63228363  1
  In  In68  1  0.83252264  0.33446040  0.12724240  1
  In  In69  1  0.82357935  0.34399074  0.62242314  1
  In  In70  1  0.85034788  0.64046559  0.14922144  1
  In  In71  1  0.83428908  0.66386436  0.61823294  1
  In  In72  1  0.33193851  -0.00205777  0.24495743  1
  In  In73  1  0.16511972  0.50285848  0.49752362  1
  In  In74  1  0.16328412  0.82974316  -0.00582493  1
  In  In75  1  0.50047513  0.83193818  0.00102991  1
  In  In76  1  0.82687915  0.16674567  0.49266060  1
  In  In77  1  0.33083418  0.33077542  0.25337684  1
  In  In78  1  0.16899508  0.16179508  0.50213450  1
  In  In79  1  0.00390518  0.33398281  0.74329082  1
  In  In80  1  0.32984387  0.66633711  0.26182666  1
  In  In81  1  0.16441478  0.16954922  0.00115356  1
  In  In82  1  0.50395509  0.83304741  0.50885865  1
  In  In83  1  0.66426889  0.33897337  0.75492020  1
  In  In84  1  0.33429458  0.66794392  0.74576215  1
  In  In85  1  0.83068969  0.82300276  -0.00180351  1
  Cu  Cu86  1  0.15140020  0.50255920  0.25092614  1
  Cu  Cu87  1  0.34519423  0.33323035  0.50090124  1
  Cu  Cu88  1  0.16066770  0.83804483  0.74292968  1
  Cu  Cu89  1  0.50573152  0.16554812  0.24721120  1
  Cu  Cu90  1  -0.01143612  0.00836691  0.00277567  1
  Cu  Cu91  1  0.66906612  0.66598215  0.49676243  1
  Cu  Cu92  1  0.16717431  0.16172525  0.75019387  1
  Cu  Cu93  1  0.16954654  0.50085417  0.74985032  1
  Cu  Cu94  1  0.50317574  0.83708109  0.74681722  1
  Cu  Cu95  1  0.33664587  0.33437767  -0.00273051  1
  Cu  Cu96  1  0.67066213  0.65349563  0.00063660  1
  Cu  Cu97  1  0.83939204  0.83358384  0.74434179  1
  Cu  Cu98  1  0.82785553  0.16461446  0.25052297  1
  Cu  Cu99  1  0.34204715  0.65519095  -0.00093044  1
  Cu  Cu100  1  0.33704927  0.00857532  -0.01111984  1
  Cu  Cu101  1  0.83621927  0.83580122  0.25878553  1
  Cu  Cu102  1  0.33858536  0.00479168  0.50509608  1
  Cu  Cu103  1  0.66616891  0.34681529  0.49677423  1
  Cu  Cu104  1  0.50276164  0.50094278  0.25059821  1
  Cu  Cu105  1  0.66515263  -0.00024106  0.00333447  1
  Cu  Cu106  1  -0.00358530  0.33804403  0.00711339  1
  Cu  Cu107  1  -0.00315370  0.66089497  0.00307625  1
  Cu  Cu108  1  0.66850428  0.32786128  0.00409916  1
  Cu  Cu109  1  -0.00912040  0.33603979  0.49073360  1
  Cu  Cu110  1  0.50552550  0.83865032  0.25456347  1
  Cu  Cu111  1  0.66639014  0.00681185  0.50264195  1
  Cu  Cu112  1  0.49837280  0.16821074  0.74939659  1
  Cu  Cu113  1  0.83181872  0.16255129  0.75451481  1
  Cu  Cu114  1  0.15662281  0.83437477  0.25687554  1
  Se  Se115  1  0.07291592  0.08401612  0.06241441  1
  Se  Se116  1  0.07352317  0.06953965  0.55296919  1
  Se  Se117  1  0.08511020  0.42243237  0.05260280  1
  Se  Se118  1  0.07309534  0.40918059  0.55610245  1
  Se  Se119  1  0.07355841  0.74857710  0.06112503  1
  Se  Se120  1  0.09140795  0.76479021  0.54458118  1
  Se  Se121  1  0.42237018  0.08592012  0.04390713  1
  Se  Se122  1  0.42423608  0.08832660  0.55364818  1
  Se  Se123  1  0.42153757  0.41752272  0.05072981  1
  Se  Se124  1  0.42141320  0.42056230  0.55487577  1
  Se  Se125  1  0.41199866  0.73883842  0.06265651  1
  Se  Se126  1  0.41435268  0.74209986  0.56663202  1
  Se  Se127  1  0.75103333  0.08327310  0.05417848  1
  Se  Se128  1  0.74858416  0.08325273  0.56523547  1
  Se  Se129  1  0.75072901  0.41487118  0.05545644  1
  Se  Se130  1  0.75641862  0.42516203  0.54649627  1
  Se  Se131  1  0.74948323  0.73247972  0.06232758  1
  Se  Se132  1  0.75182299  0.75104274  0.54897794  1
  Se  Se133  1  0.25637976  0.25955497  0.06175607  1
  Se  Se134  1  0.25822858  0.25683632  0.55939943  1
  Se  Se135  1  0.25025211  0.58072921  0.05168014  1
  Se  Se136  1  0.24991161  0.58210708  0.56849053  1
  Se  Se137  1  0.25576476  0.92941050  0.04931432  1
  Se  Se138  1  0.25479336  0.91666187  0.55143763  1
  Se  Se139  1  0.58159900  0.24349024  0.05330355  1
  Se  Se140  1  0.58819951  0.25552616  0.54785123  1
  Se  Se141  1  0.58162727  0.57306099  0.05106972  1
  Se  Se142  1  0.58492420  0.58328829  0.54895619  1
  Se  Se143  1  0.59530312  0.91211856  0.06466604  1
  Se  Se144  1  0.59343311  0.92431234  0.56738420  1
  Se  Se145  1  0.91556603  0.24890517  0.05680277  1
  Se  Se146  1  0.91886728  0.25691658  0.55758276  1
  Se  Se147  1  0.91108142  0.58276887  0.05834136  1
  Se  Se148  1  0.91857449  0.58275028  0.54877295  1
  Se  Se149  1  0.91515962  0.91916517  0.05978523  1
  Se  Se150  1  0.90786068  0.91873557  0.54742234  1
  Se  Se151  1  0.07651192  0.25151372  0.44050640  1
  Se  Se152  1  0.07355361  0.26027404  0.94040484  1
  Se  Se153  1  0.06875922  0.58858406  0.44196449  1
  Se  Se154  1  0.08700633  0.58304425  0.95089845  1
  Se  Se155  1  0.09764272  0.88232258  0.45098154  1
  Se  Se156  1  0.06975627  0.92738769  0.94306517  1
  Se  Se157  1  0.42441239  0.24667754  0.44772412  1
  Se  Se158  1  0.41913512  0.24874809  0.94586297  1
  Se  Se159  1  0.41634704  0.58397499  0.45733057  1
  Se  Se160  1  0.42543959  0.57737863  0.94285973  1
  Se  Se161  1  0.41684780  0.92321148  0.44189717  1
  Se  Se162  1  0.41207180  0.91759907  0.93470505  1
  Se  Se163  1  0.74572489  0.26505585  0.43526937  1
  Se  Se164  1  0.75419825  0.24529191  0.95192886  1
  Se  Se165  1  0.74822239  0.58267594  0.43988422  1
  Se  Se166  1  0.75821381  0.57875528  0.94415408  1
  Se  Se167  1  0.74899937  0.92237752  0.45114337  1
  Se  Se168  1  0.74179243  0.91841390  0.94136875  1
  Se  Se169  1  0.25400325  0.07077528  0.43738181  1
  Se  Se170  1  0.24832129  0.08293414  0.93242881  1
  Se  Se171  1  0.25765358  0.40579759  0.44055940  1
  Se  Se172  1  0.24961756  0.41718038  0.94706778  1
  Se  Se173  1  0.27457683  0.71885502  0.44971752  1
  Se  Se174  1  0.26075383  0.73720954  0.94093082  1
  Se  Se175  1  0.58565607  0.09167172  0.44991159  1
  Se  Se176  1  0.58194248  0.08109701  0.94834642  1
  Se  Se177  1  0.57892825  0.42566857  0.44300246  1
  Se  Se178  1  0.59089370  0.41250391  0.94549617  1
  Se  Se179  1  0.58793235  0.75073183  0.43894354  1
  Se  Se180  1  0.59259598  0.74056972  0.94313483  1
  Se  Se181  1  0.92766375  0.07784499  0.44409682  1
  Se  Se182  1  0.90666472  0.08835167  0.94714783  1
  Se  Se183  1  0.90873241  0.41865108  0.43883732  1
  Se  Se184  1  0.91385653  0.41966107  0.95078035  1
  Se  Se185  1  0.89476233  0.76293729  0.44726676  1
  Se  Se186  1  0.92279254  0.73893448  0.93708299  1
  Se  Se187  1  0.23981976  0.23771087  0.30916131  1
  Se  Se188  1  0.24931983  0.25082073  0.79789596  1
  Se  Se189  1  0.23187745  0.57776553  0.31546612  1
  Se  Se190  1  0.24944502  0.57992498  0.81229237  1
  Se  Se191  1  0.24434673  0.91319392  0.31229291  1
  Se  Se192  1  0.24777847  0.91871723  0.79549678  1
  Se  Se193  1  0.58378185  0.25155870  0.30189674  1
  Se  Se194  1  0.57884672  0.24365901  0.81375870  1
  Se  Se195  1  0.57878527  0.58960578  0.30471445  1
  Se  Se196  1  0.60451909  0.58615566  0.79957684  1
  Se  Se197  1  0.58945412  0.92395048  0.30362699  1
  Se  Se198  1  0.58613703  0.91944987  0.80214022  1
  Se  Se199  1  0.91497763  0.25014032  0.29872081  1
  Se  Se200  1  0.91255667  0.24908994  0.80931053  1
  Se  Se201  1  0.90750379  0.58655560  0.29948159  1
  Se  Se202  1  0.93813825  0.59299438  0.80448292  1
  Se  Se203  1  0.92259766  0.91986987  0.30866085  1
  Se  Se204  1  0.91747576  0.91763849  0.80281290  1
  Se  Se205  1  0.09345147  0.08416220  0.30669585  1
  Se  Se206  1  0.07704195  0.08370459  0.80051025  1
  Se  Se207  1  0.07177683  0.41439491  0.30183242  1
  Se  Se208  1  0.08816273  0.42025566  0.81079091  1
  Se  Se209  1  0.07710694  0.74657993  0.30778956  1
  Se  Se210  1  0.08482901  0.75093773  0.79903388  1
  Se  Se211  1  0.42248994  0.08763322  0.30737480  1
  Se  Se212  1  0.41311508  0.08270609  0.80169372  1
  Se  Se213  1  0.41829120  0.42554536  0.31167000  1
  Se  Se214  1  0.42370175  0.41684024  0.80041030  1
  Se  Se215  1  0.42262900  0.76256459  0.31511127  1
  Se  Se216  1  0.42707281  0.75461676  0.81058202  1
  Se  Se217  1  0.75072835  0.08046687  0.30855085  1
  Se  Se218  1  0.74530181  0.08122764  0.80630277  1
  Se  Se219  1  0.72901129  0.40856270  0.29662489  1
  Se  Se220  1  0.76555958  0.42319169  0.80729189  1
  Se  Se221  1  0.74607226  0.75199033  0.30459815  1
  Se  Se222  1  0.75562740  0.75240008  0.79997792  1
  Se  Se223  1  0.24303580  0.09313025  0.18937149  1
  Se  Se224  1  0.24806973  0.07978826  0.69204672  1
  Se  Se225  1  0.24297788  0.42730745  0.19544973  1
  Se  Se226  1  0.25387004  0.41350054  0.70301575  1
  Se  Se227  1  0.24106079  0.75674005  0.19647529  1
  Se  Se228  1  0.24064334  0.75387848  0.68520978  1
  Se  Se229  1  0.58626394  0.07894799  0.19457892  1
  Se  Se230  1  0.58526140  0.08715223  0.69778511  1
  Se  Se231  1  0.58232111  0.41640742  0.19572128  1
  Se  Se232  1  0.58709736  0.42168893  0.68327927  1
  Se  Se233  1  0.58054596  0.74937158  0.19983923  1
  Se  Se234  1  0.58772561  0.75107566  0.69856714  1
  Se  Se235  1  0.91738821  0.08032264  0.20085936  1
  Se  Se236  1  0.91674818  0.08109690  0.70053908  1
  Se  Se237  1  0.92130540  0.41124714  0.19428159  1
  Se  Se238  1  0.90696161  0.42614309  0.69398940  1
  Se  Se239  1  0.91704438  0.74929951  0.20550474  1
  Se  Se240  1  0.91776151  0.75234407  0.68530507  1
  Se  Se241  1  0.09321782  0.24571965  0.20090576  1
  Se  Se242  1  0.09191857  0.23904995  0.68327878  1
  Se  Se243  1  0.07651104  0.58881049  0.19440618  1
  Se  Se244  1  0.08419402  0.58153365  0.69722537  1
  Se  Se245  1  0.08073519  0.91970212  0.19903293  1
  Se  Se246  1  0.07492859  0.91766052  0.68875185  1
  Se  Se247  1  0.42175460  0.24497658  0.18922354  1
  Se  Se248  1  0.41851449  0.25286118  0.69428857  1
  Se  Se249  1  0.41516462  0.57822573  0.19336950  1
  Se  Se250  1  0.43020239  0.57619972  0.69544401  1
  Se  Se251  1  0.42513607  0.90700419  0.18645739  1
  Se  Se252  1  0.41548204  0.92120907  0.70049701  1
  Se  Se253  1  0.74783876  0.24858318  0.19473092  1
  Se  Se254  1  0.75656559  0.24566892  0.69376188  1
  Se  Se255  1  0.72345085  0.60157832  0.19325287  1
  Se  Se256  1  0.74835220  0.59287332  0.69262863  1
  Se  Se257  1  0.75338751  0.91752657  0.20145099  1
  Se  Se258  1  0.74830357  0.91876701  0.69872402  1
