# generated using pymatgen
data_In86Cu29Se144
_symmetry_space_group_name_H-M   'P 1'
_cell_length_a   17.57816453
_cell_length_b   17.58308745
_cell_length_c   23.44599392
_cell_angle_alpha   89.99224338
_cell_angle_beta   89.96987393
_cell_angle_gamma   90.00676915
_symmetry_Int_Tables_number   1
_chemical_formula_structural   In86Cu29Se144
_chemical_formula_sum   'In86 Cu29 Se144'
_cell_volume   7246.64926163
_cell_formula_units_Z   1
loop_
 _symmetry_equiv_pos_site_id
 _symmetry_equiv_pos_as_xyz
  1  'x, y, z'
loop_
 _atom_site_type_symbol
 _atom_site_label
 _atom_site_symmetry_multiplicity
 _atom_site_fract_x
 _atom_site_fract_y
 _atom_site_fract_z
 _atom_site_occupancy
  In  In0  1  -0.00572966  0.16861096  0.13260067  1
  In  In1  1  -0.01358190  0.15708287  0.62210711  1
  In  In2  1  -0.00253274  0.49719467  0.11998235  1
  In  In3  1  -0.01017577  0.51278277  0.63150667  1
  In  In4  1  0.00032039  0.83573802  0.11835811  1
  In  In5  1  -0.00964810  0.82650969  0.63467988  1
  In  In6  1  0.35190740  0.16582688  0.12797297  1
  In  In7  1  0.35919704  0.16371802  0.62464558  1
  In  In8  1  0.32312111  0.49686975  0.12228959  1
  In  In9  1  0.33570300  0.49532577  0.63392303  1
  In  In10  1  0.33451551  0.83424680  0.11482336  1
  In  In11  1  0.33243009  0.83126008  0.62764554  1
  In  In12  1  0.65226060  0.16875461  0.13947508  1
  In  In13  1  0.65462731  0.16756989  0.61699208  1
  In  In14  1  0.67632812  0.49547574  0.13265050  1
  In  In15  1  0.67471710  0.50730508  0.60987500  1
  In  In16  1  0.66733612  0.83605215  0.12722477  1
  In  In17  1  0.68253126  0.84881394  0.61093368  1
  In  In18  1  0.16939170  0.00941507  0.37173801  1
  In  In19  1  0.14740055  -0.00349258  0.87169915  1
  In  In20  1  0.16299537  0.33137799  0.36469074  1
  In  In21  1  0.18375963  0.33318868  0.87501674  1
  In  In22  1  0.15800924  0.66055851  0.37508451  1
  In  In23  1  0.16646739  0.66812465  0.87565577  1
  In  In24  1  0.51592459  -0.01062464  0.39385800  1
  In  In25  1  0.50937406  -0.00407250  0.88174955  1
  In  In26  1  0.50336839  0.33618783  0.36971652  1
  In  In27  1  0.49034542  0.33383320  0.87875767  1
  In  In28  1  0.51569126  0.64735108  0.38540818  1
  In  In29  1  0.51047765  0.68293454  0.87101157  1
  In  In30  1  0.82059684  -0.00919047  0.37158333  1
  In  In31  1  0.81467717  -0.01924880  0.85894915  1
  In  In32  1  0.83995925  0.34061963  0.36532482  1
  In  In33  1  0.83917496  0.34223613  0.87868994  1
  In  In34  1  0.81995081  0.68705993  0.39243050  1
  In  In35  1  0.84323820  0.66046179  0.87779312  1
  In  In36  1  -0.00736587  0.15968020  0.36290711  1
  In  In37  1  0.00545655  0.15801799  0.87434478  1
  In  In38  1  -0.00130225  0.49629264  0.37620879  1
  In  In39  1  -0.01308723  0.52027337  0.88179157  1
  In  In40  1  -0.02695027  0.83504650  0.37930944  1
  In  In41  1  -0.00509250  0.83297512  0.87654434  1
  In  In42  1  0.34229240  0.17810267  0.37360943  1
  In  In43  1  0.33763687  0.17958205  0.87549327  1
  In  In44  1  0.34915761  0.49234312  0.37755612  1
  In  In45  1  0.32766394  0.49397470  0.87026348  1
  In  In46  1  0.34718739  0.84466778  0.37709384  1
  In  In47  1  0.34456556  0.82490372  0.87682669  1
  In  In48  1  0.65187577  0.16066984  0.36527185  1
  In  In49  1  0.67276833  0.15176449  0.87808782  1
  In  In50  1  0.66617970  0.50090103  0.36963396  1
  In  In51  1  0.67768092  0.51121343  0.87569799  1
  In  In52  1  0.66934174  0.83469488  0.38002846  1
  In  In53  1  0.66106539  0.83766513  0.88164707  1
  In  In54  1  0.16093108  -0.01219634  0.11828160  1
  In  In55  1  0.16311481  -0.01320364  0.62878189  1
  In  In56  1  0.15868448  0.33880816  0.13037689  1
  In  In57  1  0.17084402  0.34722312  0.62678120  1
  In  In58  1  0.16781560  0.66517865  0.11223106  1
  In  In59  1  0.16428865  0.67079313  0.63894526  1
  In  In60  1  0.50893823  0.00714566  0.12274416  1
  In  In61  1  0.51752821  0.01435390  0.60326992  1
  In  In62  1  0.50839113  0.31617541  0.14287612  1
  In  In63  1  0.50016416  0.33016932  0.61657577  1
  In  In64  1  0.50535198  0.68126004  0.12552991  1
  In  In65  1  0.49463816  0.66133425  0.62206469  1
  In  In66  1  0.83664352  -0.00711401  0.13064344  1
  In  In67  1  0.83917149  -0.01718807  0.63724564  1
  In  In68  1  0.82792364  0.34107675  0.13363004  1
  In  In69  1  0.82454989  0.34168970  0.61594817  1
  In  In70  1  0.82719405  0.66172323  0.11992683  1
  In  In71  1  0.84108460  0.66657618  0.62262546  1
  In  In72  1  0.00555805  0.32843206  0.75412908  1
  In  In73  1  0.50157485  0.50050705  -0.00060109  1
  In  In74  1  0.33970452  0.66576348  0.24746658  1
  In  In75  1  0.83335494  0.16685657  0.00716706  1
  In  In76  1  0.66193233  0.33193295  0.74336584  1
  In  In77  1  0.34055580  0.00561341  0.24978884  1
  In  In78  1  0.33533458  -0.00211826  0.74719342  1
  In  In79  1  0.16996225  0.83477951  0.50911554  1
  In  In80  1  0.17438393  0.17046224  0.49111012  1
  In  In81  1  0.15993814  0.50189909  0.49790534  1
  In  In82  1  -0.00676706  0.66833638  0.24935169  1
  In  In83  1  0.81134862  0.15809283  0.48641058  1
  In  In84  1  0.17112213  0.16460728  -0.00388874  1
  In  In85  1  0.67206917  0.67315924  0.74130003  1
  Cu  Cu86  1  0.32676355  0.66905735  0.50250603  1
  Cu  Cu87  1  0.33466187  0.66708734  -0.00462184  1
  Cu  Cu88  1  0.34139360  0.33347590  0.50116264  1
  Cu  Cu89  1  0.49403412  0.50027984  0.74751524  1
  Cu  Cu90  1  0.00513856  0.34890059  0.00062257  1
  Cu  Cu91  1  -0.01179781  0.33377818  0.49549208  1
  Cu  Cu92  1  0.16832175  0.49566204  0.24828853  1
  Cu  Cu93  1  0.83112241  0.16798710  0.25091746  1
  Cu  Cu94  1  0.66243686  0.66678650  0.49951907  1
  Cu  Cu95  1  -0.00864522  -0.00493602  -0.00386211  1
  Cu  Cu96  1  0.83046678  0.15553428  0.74730556  1
  Cu  Cu97  1  0.83282638  0.50790427  0.24966053  1
  Cu  Cu98  1  0.67167055  0.67219223  -0.00091146  1
  Cu  Cu99  1  0.82301060  0.83945339  0.25368247  1
  Cu  Cu100  1  0.66337913  -0.00167486  0.00262804  1
  Cu  Cu101  1  0.15930153  0.83498227  0.24383487  1
  Cu  Cu102  1  0.00046025  -0.00750136  0.50274209  1
  Cu  Cu103  1  0.50363383  0.83833675  0.74986173  1
  Cu  Cu104  1  0.50883573  0.83376172  0.25458574  1
  Cu  Cu105  1  0.33912879  0.33100337  0.00240733  1
  Cu  Cu106  1  0.16767562  0.50169293  0.75484438  1
  Cu  Cu107  1  0.00329517  0.67193282  -0.00257696  1
  Cu  Cu108  1  0.66675006  0.33457991  0.01273457  1
  Cu  Cu109  1  0.16234330  0.82718771  0.75338558  1
  Cu  Cu110  1  0.50189063  0.16876488  0.74453031  1
  Cu  Cu111  1  0.17009585  0.16933621  0.75140482  1
  Cu  Cu112  1  0.50326767  0.49673397  0.25377624  1
  Cu  Cu113  1  0.16450535  0.16375671  0.24786114  1
  Cu  Cu114  1  0.33564715  -0.00403741  -0.00191293  1
  Se  Se115  1  0.06998928  0.08202192  0.05409325  1
  Se  Se116  1  0.08366449  0.07852013  0.55496336  1
  Se  Se117  1  0.09414836  0.42476269  0.05408027  1
  Se  Se118  1  0.06949258  0.40983073  0.55830331  1
  Se  Se119  1  0.08655705  0.75581195  0.05047100  1
  Se  Se120  1  0.07878400  0.74181539  0.56270256  1
  Se  Se121  1  0.41631515  0.07920954  0.05304068  1
  Se  Se122  1  0.42523563  0.09651030  0.54278032  1
  Se  Se123  1  0.42081512  0.40844593  0.06421397  1
  Se  Se124  1  0.41384949  0.42300177  0.55725688  1
  Se  Se125  1  0.41842850  0.74696398  0.05098858  1
  Se  Se126  1  0.41074904  0.74930770  0.55650775  1
  Se  Se127  1  0.74025297  0.08001387  0.06572386  1
  Se  Se128  1  0.75221988  0.07338048  0.56644723  1
  Se  Se129  1  0.75467244  0.42006828  0.05667026  1
  Se  Se130  1  0.72358511  0.39442326  0.54754995  1
  Se  Se131  1  0.75139292  0.75589772  0.05579586  1
  Se  Se132  1  0.75096804  0.74254318  0.55437728  1
  Se  Se133  1  0.25518389  0.25173464  0.06204682  1
  Se  Se134  1  0.25663923  0.25666416  0.56101235  1
  Se  Se135  1  0.25389126  0.58097099  0.04778271  1
  Se  Se136  1  0.24819073  0.58778797  0.56287301  1
  Se  Se137  1  0.24750722  0.91469331  0.04800583  1
  Se  Se138  1  0.26423680  0.93257670  0.55735404  1
  Se  Se139  1  0.58271484  0.24884601  0.06098113  1
  Se  Se140  1  0.60254210  0.27084085  0.54997747  1
  Se  Se141  1  0.59209326  0.58889966  0.05998860  1
  Se  Se142  1  0.57637357  0.58282732  0.55022827  1
  Se  Se143  1  0.58033566  0.91317945  0.05577368  1
  Se  Se144  1  0.57202301  0.89987822  0.54941588  1
  Se  Se145  1  0.92641506  0.26403484  0.05922078  1
  Se  Se146  1  0.91124717  0.24618073  0.55080241  1
  Se  Se147  1  0.92161225  0.58868677  0.05444741  1
  Se  Se148  1  0.89971324  0.56393233  0.55536053  1
  Se  Se149  1  0.90898589  0.91526555  0.05305358  1
  Se  Se150  1  0.92064135  0.91287695  0.56010606  1
  Se  Se151  1  0.07078943  0.25464756  0.43742049  1
  Se  Se152  1  0.07692092  0.26016730  0.94071326  1
  Se  Se153  1  0.06481768  0.59673426  0.44819449  1
  Se  Se154  1  0.08694421  0.58456287  0.94749595  1
  Se  Se155  1  0.08350553  0.91938031  0.43916616  1
  Se  Se156  1  0.08167922  0.91415106  0.94785972  1
  Se  Se157  1  0.42427763  0.25436990  0.44526377  1
  Se  Se158  1  0.42242851  0.24529359  0.95208189  1
  Se  Se159  1  0.40974635  0.58526510  0.44910203  1
  Se  Se160  1  0.41753547  0.58965419  0.93438862  1
  Se  Se161  1  0.41994676  0.91201057  0.45573002  1
  Se  Se162  1  0.42081700  0.91315097  0.94548452  1
  Se  Se163  1  0.74034485  0.25988788  0.42652564  1
  Se  Se164  1  0.74380050  0.25792487  0.94448575  1
  Se  Se165  1  0.74469217  0.58123184  0.44517890  1
  Se  Se166  1  0.75515531  0.58457090  0.95027409  1
  Se  Se167  1  0.76402734  0.90400653  0.44842139  1
  Se  Se168  1  0.74987024  0.92034731  0.94729261  1
  Se  Se169  1  0.26662829  0.07507898  0.44057230  1
  Se  Se170  1  0.25698728  0.07277302  0.93343326  1
  Se  Se171  1  0.25132441  0.40640995  0.44194440  1
  Se  Se172  1  0.25700826  0.41514379  0.94917198  1
  Se  Se173  1  0.25164515  0.74597729  0.43726020  1
  Se  Se174  1  0.25117176  0.75246911  0.94377517  1
  Se  Se175  1  0.60493941  0.07925702  0.45059464  1
  Se  Se176  1  0.58327528  0.08694214  0.95106155  1
  Se  Se177  1  0.55915632  0.44343667  0.43321054  1
  Se  Se178  1  0.59576424  0.41056345  0.94088465  1
  Se  Se179  1  0.57991412  0.75169263  0.44663468  1
  Se  Se180  1  0.58109382  0.75304251  0.95172774  1
  Se  Se181  1  0.92348920  0.07451363  0.44065402  1
  Se  Se182  1  0.91143489  0.07773177  0.93815354  1
  Se  Se183  1  0.90890486  0.42097598  0.44445184  1
  Se  Se184  1  0.91414675  0.42526338  0.94931428  1
  Se  Se185  1  0.92414360  0.74625573  0.45636804  1
  Se  Se186  1  0.91350928  0.75207363  0.94777619  1
  Se  Se187  1  0.24818385  0.24343274  0.30323430  1
  Se  Se188  1  0.25625413  0.25173996  0.80017787  1
  Se  Se189  1  0.24722219  0.57627898  0.30925091  1
  Se  Se190  1  0.25215453  0.58702390  0.80576632  1
  Se  Se191  1  0.24623357  0.90821821  0.30478520  1
  Se  Se192  1  0.24513887  0.91131254  0.81046193  1
  Se  Se193  1  0.57803368  0.25137643  0.29838686  1
  Se  Se194  1  0.57977352  0.24336847  0.81180465  1
  Se  Se195  1  0.58504157  0.58826107  0.29917266  1
  Se  Se196  1  0.58006913  0.57802207  0.80468509  1
  Se  Se197  1  0.58569574  0.91847823  0.31095885  1
  Se  Se198  1  0.58531811  0.91843152  0.80641866  1
  Se  Se199  1  0.91978924  0.25313993  0.29775264  1
  Se  Se200  1  0.90517393  0.23808876  0.81004040  1
  Se  Se201  1  0.90614850  0.58670556  0.31554327  1
  Se  Se202  1  0.91206780  0.58071848  0.80013283  1
  Se  Se203  1  0.91522841  0.92027318  0.30140705  1
  Se  Se204  1  0.93217871  0.93061976  0.80753665  1
  Se  Se205  1  0.08263869  0.07724336  0.29915183  1
  Se  Se206  1  0.08230833  0.08492472  0.79742213  1
  Se  Se207  1  0.07873693  0.41986431  0.30233414  1
  Se  Se208  1  0.08746203  0.42197056  0.81685684  1
  Se  Se209  1  0.08312129  0.76022070  0.31042998  1
  Se  Se210  1  0.07827659  0.74708059  0.80828389  1
  Se  Se211  1  0.42869848  0.07812367  0.31959576  1
  Se  Se212  1  0.42378567  0.08885492  0.80869346  1
  Se  Se213  1  0.41208981  0.41389684  0.29847030  1
  Se  Se214  1  0.41777551  0.41398034  0.80408823  1
  Se  Se215  1  0.42748354  0.75043917  0.31225864  1
  Se  Se216  1  0.42078309  0.75104702  0.79897236  1
  Se  Se217  1  0.74937833  0.08325485  0.30371601  1
  Se  Se218  1  0.73871552  0.07820627  0.79692799  1
  Se  Se219  1  0.75013526  0.42017722  0.29945356  1
  Se  Se220  1  0.75444178  0.41987796  0.80506533  1
  Se  Se221  1  0.74848434  0.74935914  0.30801100  1
  Se  Se222  1  0.75145132  0.75200747  0.81523446  1
  Se  Se223  1  0.24244061  0.08427279  0.18462770  1
  Se  Se224  1  0.24742183  0.09157251  0.68599775  1
  Se  Se225  1  0.25354194  0.41299231  0.19684468  1
  Se  Se226  1  0.25014438  0.41522216  0.70365515  1
  Se  Se227  1  0.24360757  0.75441385  0.18901678  1
  Se  Se228  1  0.25489427  0.75228649  0.70145287  1
  Se  Se229  1  0.57443704  0.07829711  0.20416838  1
  Se  Se230  1  0.58029319  0.08384064  0.68969816  1
  Se  Se231  1  0.58841112  0.41574631  0.19895478  1
  Se  Se232  1  0.57911313  0.42940401  0.68531099  1
  Se  Se233  1  0.58949416  0.74968944  0.19952528  1
  Se  Se234  1  0.57847763  0.75949868  0.68416428  1
  Se  Se235  1  0.91430946  0.08230866  0.19824782  1
  Se  Se236  1  0.92218380  0.07624153  0.69928591  1
  Se  Se237  1  0.91849732  0.42494207  0.19653780  1
  Se  Se238  1  0.91052972  0.41079866  0.69387537  1
  Se  Se239  1  0.90468088  0.76092938  0.19093559  1
  Se  Se240  1  0.91673358  0.73548049  0.70144140  1
  Se  Se241  1  0.08101358  0.25076358  0.19765700  1
  Se  Se242  1  0.08840781  0.24105523  0.68426331  1
  Se  Se243  1  0.09228282  0.58295144  0.19119423  1
  Se  Se244  1  0.08164646  0.58092461  0.70141519  1
  Se  Se245  1  0.07603275  0.91862614  0.19258586  1
  Se  Se246  1  0.08094956  0.91086707  0.69861708  1
  Se  Se247  1  0.41380216  0.24329450  0.20743636  1
  Se  Se248  1  0.42131043  0.25822715  0.69539537  1
  Se  Se249  1  0.42738862  0.57410045  0.18617437  1
  Se  Se250  1  0.41244074  0.58922148  0.69823189  1
  Se  Se251  1  0.42215085  0.90492791  0.19166209  1
  Se  Se252  1  0.43035061  0.91982984  0.68507326  1
  Se  Se253  1  0.74804880  0.25163496  0.19794894  1
  Se  Se254  1  0.75748104  0.24066855  0.68705910  1
  Se  Se255  1  0.74863667  0.59183599  0.19796803  1
  Se  Se256  1  0.75539720  0.56987104  0.69120866  1
  Se  Se257  1  0.74213874  0.92357448  0.19879339  1
  Se  Se258  1  0.74372067  0.90819904  0.69979256  1
