# generated using pymatgen
data_In86Cu29Se144
_symmetry_space_group_name_H-M   'P 1'
_cell_length_a   17.57969393
_cell_length_b   17.57927509
_cell_length_c   23.44190999
_cell_angle_alpha   90.01483024
_cell_angle_beta   89.99765783
_cell_angle_gamma   89.99880374
_symmetry_Int_Tables_number   1
_chemical_formula_structural   In86Cu29Se144
_chemical_formula_sum   'In86 Cu29 Se144'
_cell_volume   7244.44718631
_cell_formula_units_Z   1
loop_
 _symmetry_equiv_pos_site_id
 _symmetry_equiv_pos_as_xyz
  1  'x, y, z'
loop_
 _atom_site_type_symbol
 _atom_site_label
 _atom_site_symmetry_multiplicity
 _atom_site_fract_x
 _atom_site_fract_y
 _atom_site_fract_z
 _atom_site_occupancy
  In  In0  1  -0.00050182  0.16241053  0.11330908  1
  In  In1  1  0.01104900  0.14961712  0.65212978  1
  In  In2  1  -0.01264812  0.50843383  0.11875236  1
  In  In3  1  0.00480334  0.50151113  0.63756980  1
  In  In4  1  0.00076399  0.83255431  0.11260867  1
  In  In5  1  0.00380071  0.83105341  0.63811851  1
  In  In6  1  0.33387324  0.15784883  0.12272241  1
  In  In7  1  0.34043115  0.15736578  0.63221249  1
  In  In8  1  0.34112761  0.49552942  0.13582412  1
  In  In9  1  0.32692232  0.50816181  0.63242390  1
  In  In10  1  0.33141781  0.83435849  0.12370851  1
  In  In11  1  0.33434936  0.84082745  0.62938088  1
  In  In12  1  0.65212428  0.15779824  0.11002378  1
  In  In13  1  0.66171105  0.16415526  0.62234488  1
  In  In14  1  0.67477942  0.49943505  0.12071163  1
  In  In15  1  0.67460552  0.50025612  0.62521445  1
  In  In16  1  0.66671943  0.84078156  0.12820117  1
  In  In17  1  0.64919750  0.83801245  0.62553629  1
  In  In18  1  0.16155607  -0.01828254  0.38160820  1
  In  In19  1  0.17206485  -0.00777108  0.87122459  1
  In  In20  1  0.18125019  0.31658796  0.37905804  1
  In  In21  1  0.15674414  0.32386976  0.86988287  1
  In  In22  1  0.18224572  0.67249627  0.37718648  1
  In  In23  1  0.18056829  0.69019940  0.85801574  1
  In  In24  1  0.50081064  0.00295481  0.37696956  1
  In  In25  1  0.49143526  0.00866114  0.88166755  1
  In  In26  1  0.48691040  0.33162844  0.37108362  1
  In  In27  1  0.48935120  0.32753531  0.87594305  1
  In  In28  1  0.51025678  0.67890768  0.35936489  1
  In  In29  1  0.51048329  0.67285423  0.87107567  1
  In  In30  1  0.83503838  -0.00029907  0.36819400  1
  In  In31  1  0.83602939  -0.00078323  0.87993799  1
  In  In32  1  0.83893719  0.33036184  0.37011013  1
  In  In33  1  0.84835511  0.32108491  0.89117141  1
  In  In34  1  0.81852972  0.67613862  0.37391488  1
  In  In35  1  0.83375833  0.67107578  0.87388920  1
  In  In36  1  -0.00806249  0.16205735  0.37877748  1
  In  In37  1  -0.00115880  0.16792889  0.87457491  1
  In  In38  1  -0.01167859  0.50066964  0.37736560  1
  In  In39  1  -0.00235557  0.49786610  0.87005386  1
  In  In40  1  0.01474123  0.84248855  0.38136282  1
  In  In41  1  0.00144434  0.83666546  0.86968081  1
  In  In42  1  0.34384198  0.17272059  0.37144194  1
  In  In43  1  0.32995391  0.16076277  0.87530846  1
  In  In44  1  0.35552715  0.51584373  0.35618558  1
  In  In45  1  0.33090978  0.49595960  0.87216374  1
  In  In46  1  0.33194231  0.84018234  0.37543186  1
  In  In47  1  0.33278273  0.83823227  0.87417714  1
  In  In48  1  0.65919623  0.14053427  0.36678564  1
  In  In49  1  0.67120171  0.16846257  0.88972012  1
  In  In50  1  0.64797578  0.51603480  0.36747221  1
  In  In51  1  0.66883964  0.51308335  0.87685296  1
  In  In52  1  0.66205652  0.82738896  0.36648515  1
  In  In53  1  0.67448803  0.82514199  0.88315760  1
  In  In54  1  0.17184847  0.00682183  0.11675649  1
  In  In55  1  0.16791893  -0.01058736  0.63760206  1
  In  In56  1  0.18161665  0.32714791  0.12224295  1
  In  In57  1  0.17086174  0.32818038  0.64051929  1
  In  In58  1  0.17177064  0.67541870  0.11902657  1
  In  In59  1  0.16008213  0.69131722  0.64690403  1
  In  In60  1  0.49754242  -0.00325025  0.12397456  1
  In  In61  1  0.49262822  -0.01582706  0.60776917  1
  In  In62  1  0.50040075  0.31892368  0.12218936  1
  In  In63  1  0.49758004  0.31679296  0.62368809  1
  In  In64  1  0.48538167  0.67964178  0.13375324  1
  In  In65  1  0.48574734  0.67978666  0.63286701  1
  In  In66  1  0.81792934  -0.01478786  0.11220365  1
  In  In67  1  0.84399227  0.00651007  0.63241300  1
  In  In68  1  0.80579359  0.32728999  0.09551830  1
  In  In69  1  0.83692282  0.33106733  0.63610933  1
  In  In70  1  0.83025436  0.66721152  0.11713066  1
  In  In71  1  0.82904999  0.66952267  0.63889894  1
  In  In72  1  0.83169085  0.15584005  0.50397930  1
  In  In73  1  0.82877623  0.83325139  0.50079446  1
  In  In74  1  0.00185203  0.66805963  0.23312695  1
  In  In75  1  0.16017458  0.50359714  -0.00587324  1
  In  In76  1  0.00717841  0.34530769  0.23748987  1
  In  In77  1  0.49816299  0.50352656  0.49249716  1
  In  In78  1  0.00304246  -0.00432547  0.25499110  1
  In  In79  1  0.17794675  0.50402972  0.50240342  1
  In  In80  1  0.66673978  0.33532694  0.75290509  1
  In  In81  1  0.17320838  0.15248435  0.51987492  1
  In  In82  1  0.66247205  0.33678012  0.23911708  1
  In  In83  1  0.66763109  0.00136217  0.75598059  1
  In  In84  1  0.50380027  0.50062218  0.00432032  1
  In  In85  1  0.83663517  0.49536000  0.51197114  1
  Cu  Cu86  1  0.49487379  0.15967170  0.75109621  1
  Cu  Cu87  1  0.33282191  0.68671578  0.50164382  1
  Cu  Cu88  1  0.65673268  0.66759214  0.49706176  1
  Cu  Cu89  1  0.33237147  0.00192027  0.50175623  1
  Cu  Cu90  1  0.00091129  0.67371670  -0.00881356  1
  Cu  Cu91  1  0.82803144  0.50445835  0.24227537  1
  Cu  Cu92  1  0.16829841  0.17090605  0.75837008  1
  Cu  Cu93  1  0.66136116  0.31521993  0.49426791  1
  Cu  Cu94  1  0.33771986  0.33816078  0.49660480  1
  Cu  Cu95  1  0.00797751  0.31916314  0.51409782  1
  Cu  Cu96  1  0.01140008  0.67471063  0.50789965  1
  Cu  Cu97  1  0.17198412  0.49103812  0.25339162  1
  Cu  Cu98  1  0.83266518  0.83143309  0.75750047  1
  Cu  Cu99  1  0.83507680  0.16146992  0.24131295  1
  Cu  Cu100  1  0.66428789  0.67862490  0.00115639  1
  Cu  Cu101  1  0.66445050  -0.00231070  0.00043719  1
  Cu  Cu102  1  0.83196260  0.49975828  0.75305425  1
  Cu  Cu103  1  0.17255131  0.83264144  0.24791090  1
  Cu  Cu104  1  0.17997167  0.16333821  0.24910268  1
  Cu  Cu105  1  0.33257650  0.66893955  -0.00218762  1
  Cu  Cu106  1  0.49838721  0.15930684  0.24379043  1
  Cu  Cu107  1  0.33191191  -0.00414378  -0.00017603  1
  Cu  Cu108  1  0.33165924  0.31700130  -0.00237174  1
  Cu  Cu109  1  0.49768869  0.83774355  0.75051038  1
  Cu  Cu110  1  0.00057930  0.33430297  -0.00470963  1
  Cu  Cu111  1  0.49975340  0.50033821  0.75551382  1
  Cu  Cu112  1  0.49355066  0.84457922  0.24893027  1
  Cu  Cu113  1  0.00202409  0.00073878  -0.00841436  1
  Cu  Cu114  1  0.17116261  0.50283950  0.75480303  1
  Se  Se115  1  0.08594727  0.08331926  0.04679099  1
  Se  Se116  1  0.06864180  0.06928107  0.56825947  1
  Se  Se117  1  0.07853455  0.41084256  0.06139286  1
  Se  Se118  1  0.08565315  0.41172954  0.56393240  1
  Se  Se119  1  0.08790404  0.74959665  0.04762527  1
  Se  Se120  1  0.08908980  0.75756859  0.56348431  1
  Se  Se121  1  0.41761436  0.07952464  0.05204898  1
  Se  Se122  1  0.41520191  0.08815858  0.55266349  1
  Se  Se123  1  0.40475209  0.40680960  0.05571821  1
  Se  Se124  1  0.41286694  0.41904835  0.56062861  1
  Se  Se125  1  0.41463261  0.75143039  0.05279101  1
  Se  Se126  1  0.42046108  0.76287189  0.55590051  1
  Se  Se127  1  0.75233947  0.08623951  0.04776315  1
  Se  Se128  1  0.74068922  0.06396811  0.56013011  1
  Se  Se129  1  0.75285549  0.44036878  0.03960325  1
  Se  Se130  1  0.73981084  0.39389763  0.55802580  1
  Se  Se131  1  0.74960287  0.75970329  0.05511470  1
  Se  Se132  1  0.74194949  0.73832302  0.56043365  1
  Se  Se133  1  0.24695285  0.23645137  0.05122346  1
  Se  Se134  1  0.25974888  0.26187814  0.56274619  1
  Se  Se135  1  0.26013018  0.58035445  0.05697493  1
  Se  Se136  1  0.25547504  0.60304973  0.56214292  1
  Se  Se137  1  0.24653393  0.91213166  0.05235600  1
  Se  Se138  1  0.25085561  0.92371442  0.55961134  1
  Se  Se139  1  0.59460782  0.26662238  0.04929970  1
  Se  Se140  1  0.57720935  0.23923195  0.55051736  1
  Se  Se141  1  0.58446387  0.59892454  0.06315849  1
  Se  Se142  1  0.58280703  0.58731115  0.56191933  1
  Se  Se143  1  0.58201324  0.91540660  0.05483496  1
  Se  Se144  1  0.58953491  0.91408543  0.54477916  1
  Se  Se145  1  0.91691746  0.25142339  0.05005090  1
  Se  Se146  1  0.92313063  0.24120889  0.57027387  1
  Se  Se147  1  0.91721899  0.59111627  0.04559782  1
  Se  Se148  1  0.92640846  0.59382184  0.56475776  1
  Se  Se149  1  0.91904451  0.91907590  0.04766940  1
  Se  Se150  1  0.92023202  0.91517699  0.56393419  1
  Se  Se151  1  0.08477477  0.24282686  0.45022814  1
  Se  Se152  1  0.08451256  0.24781308  0.94677112  1
  Se  Se153  1  0.07808329  0.58807127  0.44291573  1
  Se  Se154  1  0.08416508  0.59776895  0.93004161  1
  Se  Se155  1  0.08137312  0.91813851  0.45951708  1
  Se  Se156  1  0.08515356  0.91422140  0.94191293  1
  Se  Se157  1  0.41955723  0.24987979  0.44825749  1
  Se  Se158  1  0.41921405  0.23812701  0.94603795  1
  Se  Se159  1  0.41037277  0.60314827  0.43975798  1
  Se  Se160  1  0.41366998  0.58651387  0.94014271  1
  Se  Se161  1  0.41427331  0.92122043  0.44535389  1
  Se  Se162  1  0.41708554  0.91408487  0.94686660  1
  Se  Se163  1  0.74911061  0.24482952  0.43393447  1
  Se  Se164  1  0.74585539  0.25975034  0.95468528  1
  Se  Se165  1  0.74275962  0.58076583  0.44546151  1
  Se  Se166  1  0.74736796  0.59511643  0.94732815  1
  Se  Se167  1  0.74425381  0.92062670  0.43597027  1
  Se  Se168  1  0.75112263  0.91725863  0.94744066  1
  Se  Se169  1  0.25231112  0.08274342  0.43943082  1
  Se  Se170  1  0.24842747  0.07757144  0.94422628  1
  Se  Se171  1  0.26415789  0.42020921  0.43410152  1
  Se  Se172  1  0.25238626  0.40519769  0.94281098  1
  Se  Se173  1  0.24410595  0.76447861  0.44884173  1
  Se  Se174  1  0.25008943  0.75149120  0.94394835  1
  Se  Se175  1  0.57828187  0.08866272  0.44765510  1
  Se  Se176  1  0.58104204  0.08429602  0.95016289  1
  Se  Se177  1  0.59306396  0.40853584  0.43698530  1
  Se  Se178  1  0.58477240  0.41425043  0.93619485  1
  Se  Se179  1  0.57918776  0.75105092  0.44086085  1
  Se  Se180  1  0.57547070  0.75554805  0.94891286  1
  Se  Se181  1  0.92645322  0.06403736  0.44675082  1
  Se  Se182  1  0.91532047  0.08820121  0.94640064  1
  Se  Se183  1  0.92617203  0.39902926  0.45123471  1
  Se  Se184  1  0.92065931  0.42673284  0.94848970  1
  Se  Se185  1  0.92315186  0.74055371  0.44205236  1
  Se  Se186  1  0.91555385  0.75711984  0.94088372  1
  Se  Se187  1  0.25934275  0.25275158  0.30001337  1
  Se  Se188  1  0.25679922  0.25399423  0.80684197  1
  Se  Se189  1  0.24679655  0.58577330  0.30241072  1
  Se  Se190  1  0.25804438  0.58568412  0.80362714  1
  Se  Se191  1  0.24653061  0.92089663  0.30419341  1
  Se  Se192  1  0.24416704  0.90453161  0.79999487  1
  Se  Se193  1  0.58035433  0.24346800  0.30451519  1
  Se  Se194  1  0.57932501  0.23780099  0.80967881  1
  Se  Se195  1  0.57109617  0.58077903  0.29034085  1
  Se  Se196  1  0.58708166  0.58473745  0.80188519  1
  Se  Se197  1  0.58083223  0.92053490  0.30515961  1
  Se  Se198  1  0.57862927  0.91205243  0.81613364  1
  Se  Se199  1  0.91962745  0.24367761  0.29772610  1
  Se  Se200  1  0.91911437  0.25824614  0.80877280  1
  Se  Se201  1  0.91120844  0.58286380  0.30285859  1
  Se  Se202  1  0.91440444  0.58510291  0.80474514  1
  Se  Se203  1  0.91333572  0.89694226  0.30853379  1
  Se  Se204  1  0.91289712  0.92206115  0.80467339  1
  Se  Se205  1  0.09361095  0.09261624  0.31229389  1
  Se  Se206  1  0.08645072  0.08486273  0.80932689  1
  Se  Se207  1  0.08943019  0.41846899  0.31692322  1
  Se  Se208  1  0.08517124  0.41804767  0.80356200  1
  Se  Se209  1  0.08746811  0.75173350  0.30549641  1
  Se  Se210  1  0.07699300  0.75291998  0.79702937  1
  Se  Se211  1  0.41715051  0.08158868  0.30383100  1
  Se  Se212  1  0.41124924  0.07674771  0.80380253  1
  Se  Se213  1  0.42166303  0.41407689  0.29619411  1
  Se  Se214  1  0.41688016  0.41386702  0.80495852  1
  Se  Se215  1  0.41174843  0.75952617  0.30321423  1
  Se  Se216  1  0.41945013  0.75227647  0.80672461  1
  Se  Se217  1  0.75470227  0.07785523  0.29572605  1
  Se  Se218  1  0.75471800  0.09522609  0.81331791  1
  Se  Se219  1  0.75275284  0.42381488  0.30773448  1
  Se  Se220  1  0.75656326  0.41856770  0.81588210  1
  Se  Se221  1  0.74148446  0.74214163  0.29754567  1
  Se  Se222  1  0.74340235  0.74806534  0.80407141  1
  Se  Se223  1  0.25332230  0.07427244  0.19449914  1
  Se  Se224  1  0.24443161  0.08877601  0.69773669  1
  Se  Se225  1  0.25226814  0.40857734  0.19714355  1
  Se  Se226  1  0.25526459  0.41736463  0.70162000  1
  Se  Se227  1  0.25216559  0.74602534  0.19479124  1
  Se  Se228  1  0.27292116  0.74626830  0.70159721  1
  Se  Se229  1  0.58555391  0.08210977  0.19030842  1
  Se  Se230  1  0.57412156  0.08082299  0.69004138  1
  Se  Se231  1  0.57033583  0.42723539  0.18354874  1
  Se  Se232  1  0.57383515  0.42078908  0.68867305  1
  Se  Se233  1  0.57735374  0.76060035  0.19596700  1
  Se  Se234  1  0.58146651  0.75230219  0.69927744  1
  Se  Se235  1  0.91825180  0.07958208  0.18592841  1
  Se  Se236  1  0.90572501  0.08551839  0.71065845  1
  Se  Se237  1  0.89997321  0.41722326  0.18143708  1
  Se  Se238  1  0.91784271  0.41676965  0.70132243  1
  Se  Se239  1  0.90791016  0.76392118  0.18647300  1
  Se  Se240  1  0.91711252  0.74738001  0.70409266  1
  Se  Se241  1  0.09189306  0.23820473  0.18994841  1
  Se  Se242  1  0.07996426  0.25611943  0.70839635  1
  Se  Se243  1  0.09631453  0.56772887  0.18578746  1
  Se  Se244  1  0.08581277  0.58715457  0.70350529  1
  Se  Se245  1  0.08870284  0.90952539  0.18815692  1
  Se  Se246  1  0.08265052  0.91482621  0.70773379  1
  Se  Se247  1  0.41517072  0.24392125  0.19237790  1
  Se  Se248  1  0.41536936  0.25010176  0.69995443  1
  Se  Se249  1  0.40976425  0.59012560  0.20030359  1
  Se  Se250  1  0.41791184  0.58296457  0.69942053  1
  Se  Se251  1  0.40821213  0.92223485  0.19358497  1
  Se  Se252  1  0.42288434  0.92666475  0.69468686  1
  Se  Se253  1  0.75437428  0.24335517  0.18261114  1
  Se  Se254  1  0.75134083  0.23622707  0.69553935  1
  Se  Se255  1  0.74708707  0.59010888  0.19019314  1
  Se  Se256  1  0.74405762  0.58038326  0.70076397  1
  Se  Se257  1  0.75071348  0.92373782  0.19652326  1
  Se  Se258  1  0.75376138  0.90827326  0.69188784  1
