# generated using pymatgen
data_In86Cu29Se144
_symmetry_space_group_name_H-M   'P 1'
_cell_length_a   17.57234440
_cell_length_b   17.57507507
_cell_length_c   23.43391733
_cell_angle_alpha   89.99554403
_cell_angle_beta   89.99012828
_cell_angle_gamma   90.00322427
_symmetry_Int_Tables_number   1
_chemical_formula_structural   In86Cu29Se144
_chemical_formula_sum   'In86 Cu29 Se144'
_cell_volume   7237.22009123
_cell_formula_units_Z   1
loop_
 _symmetry_equiv_pos_site_id
 _symmetry_equiv_pos_as_xyz
  1  'x, y, z'
loop_
 _atom_site_type_symbol
 _atom_site_label
 _atom_site_symmetry_multiplicity
 _atom_site_fract_x
 _atom_site_fract_y
 _atom_site_fract_z
 _atom_site_occupancy
  In  In0  1  -0.00534764  0.14355352  0.11681678  1
  In  In1  1  -0.01443472  0.16401822  0.62813314  1
  In  In2  1  -0.00272227  0.51505731  0.12780440  1
  In  In3  1  0.01613479  0.50353818  0.62271305  1
  In  In4  1  -0.01172450  0.84127298  0.13106904  1
  In  In5  1  -0.00383776  0.83223413  0.62680306  1
  In  In6  1  0.34836151  0.18338795  0.11501362  1
  In  In7  1  0.35638997  0.16810319  0.62103093  1
  In  In8  1  0.33679827  0.48884011  0.13480327  1
  In  In9  1  0.32351004  0.49430594  0.62004357  1
  In  In10  1  0.32061344  0.82831597  0.13190698  1
  In  In11  1  0.32470879  0.83715773  0.61673851  1
  In  In12  1  0.65249372  0.17560591  0.13734030  1
  In  In13  1  0.65745510  0.17345569  0.63832348  1
  In  In14  1  0.65233619  0.49411823  0.11515377  1
  In  In15  1  0.65902432  0.50213691  0.62642100  1
  In  In16  1  0.68298936  0.83293316  0.12248544  1
  In  In17  1  0.67437683  0.82304840  0.62991598  1
  In  In18  1  0.15226468  -0.00352196  0.37250952  1
  In  In19  1  0.16745684  0.01109512  0.87407949  1
  In  In20  1  0.18638224  0.33527299  0.37222694  1
  In  In21  1  0.16855894  0.32088596  0.87408085  1
  In  In22  1  0.16869687  0.66714842  0.38338194  1
  In  In23  1  0.16604415  0.67673335  0.87284168  1
  In  In24  1  0.51847522  0.00353643  0.36858574  1
  In  In25  1  0.52288596  0.00523661  0.88186691  1
  In  In26  1  0.50463254  0.34171971  0.38045249  1
  In  In27  1  0.50352364  0.33229960  0.87341567  1
  In  In28  1  0.48224325  0.65860730  0.37399299  1
  In  In29  1  0.50081187  0.64473791  0.88061911  1
  In  In30  1  0.82634283  -0.00694002  0.37045686  1
  In  In31  1  0.82470646  -0.01114357  0.87434171  1
  In  In32  1  0.80958626  0.33920088  0.37040272  1
  In  In33  1  0.83129914  0.35086967  0.87786124  1
  In  In34  1  0.84936955  0.66063377  0.37435888  1
  In  In35  1  0.83283048  0.66729861  0.87417096  1
  In  In36  1  0.00987775  0.15870221  0.36672518  1
  In  In37  1  0.01226932  0.16300727  0.87919089  1
  In  In38  1  -0.00867066  0.52410144  0.37187693  1
  In  In39  1  -0.01555047  0.50156978  0.87638534  1
  In  In40  1  -0.00008333  0.83108316  0.37921779  1
  In  In41  1  -0.00666753  0.82808049  0.86907597  1
  In  In42  1  0.34522022  0.18555113  0.36575282  1
  In  In43  1  0.33084064  0.17838599  0.87874129  1
  In  In44  1  0.33830764  0.50201357  0.38169438  1
  In  In45  1  0.36387069  0.50007890  0.87978249  1
  In  In46  1  0.33141995  0.81276060  0.37528030  1
  In  In47  1  0.32372443  0.83030287  0.87719818  1
  In  In48  1  0.65994533  0.16929023  0.37182087  1
  In  In49  1  0.65537091  0.15416842  0.87428083  1
  In  In50  1  0.65708339  0.46794174  0.36845673  1
  In  In51  1  0.66744359  0.50015833  0.87224858  1
  In  In52  1  0.67066648  0.84737132  0.37607423  1
  In  In53  1  0.68086376  0.84523944  0.87002303  1
  In  In54  1  0.15084398  -0.00199085  0.12219547  1
  In  In55  1  0.16501865  -0.01246670  0.62209700  1
  In  In56  1  0.18237605  0.33197666  0.12800711  1
  In  In57  1  0.16946659  0.34962786  0.62288050  1
  In  In58  1  0.16317098  0.66036877  0.13828448  1
  In  In59  1  0.16003256  0.65618183  0.61877346  1
  In  In60  1  0.50661010  0.01755303  0.12484752  1
  In  In61  1  0.49953554  0.01210785  0.62357344  1
  In  In62  1  0.49664677  0.33316558  0.12963461  1
  In  In63  1  0.50189552  0.32980492  0.62777446  1
  In  In64  1  0.49688375  0.65168699  0.12323976  1
  In  In65  1  0.51377039  0.66849162  0.62409006  1
  In  In66  1  0.83853320  -0.00945075  0.12756582  1
  In  In67  1  0.84042010  -0.00684044  0.63402383  1
  In  In68  1  0.81265708  0.33251953  0.12379036  1
  In  In69  1  0.82366179  0.32644057  0.62738975  1
  In  In70  1  0.83782748  0.67825803  0.11545297  1
  In  In71  1  0.82389969  0.67554268  0.62807719  1
  In  In72  1  0.33668257  0.00392266  0.74269644  1
  In  In73  1  0.82585073  0.16343091  -0.00031209  1
  In  In74  1  0.33658065  0.66287685  0.75312065  1
  In  In75  1  0.50347783  0.83318951  0.00329724  1
  In  In76  1  0.82727597  0.50284337  0.49712282  1
  In  In77  1  -0.00470001  0.33486758  0.74980999  1
  In  In78  1  0.17382916  0.16360969  0.49114240  1
  In  In79  1  -0.00174778  0.32977087  0.24769396  1
  In  In80  1  0.82742471  0.16381953  0.49439152  1
  In  In81  1  0.66905302  0.66548391  0.24442752  1
  In  In82  1  0.16476112  0.83315163  -0.00112591  1
  In  In83  1  0.33528557  0.00293384  0.24825497  1
  In  In84  1  0.16848421  0.49626225  0.00619260  1
  In  In85  1  0.50024253  0.83107149  0.49827074  1
  Cu  Cu86  1  0.82962518  0.16251635  0.24519375  1
  Cu  Cu87  1  0.16954876  0.50238183  0.74779056  1
  Cu  Cu88  1  0.16558734  0.50231462  0.25769194  1
  Cu  Cu89  1  0.65785002  0.33744557  -0.00081103  1
  Cu  Cu90  1  0.66893615  0.66535842  0.49960088  1
  Cu  Cu91  1  0.00095553  0.34204895  0.49584082  1
  Cu  Cu92  1  0.50807321  0.83117119  0.75252638  1
  Cu  Cu93  1  0.84124411  0.83131645  0.24988327  1
  Cu  Cu94  1  0.34176881  0.33378116  0.49926899  1
  Cu  Cu95  1  0.83006357  0.50780648  0.74972553  1
  Cu  Cu96  1  0.66964975  0.66626429  -0.00323690  1
  Cu  Cu97  1  0.50160347  0.83174634  0.25403398  1
  Cu  Cu98  1  0.49597934  0.49481364  0.25095741  1
  Cu  Cu99  1  0.83319189  0.83132986  0.75009432  1
  Cu  Cu100  1  0.50181189  0.16746425  0.75224421  1
  Cu  Cu101  1  0.67120185  0.00405937  0.49982279  1
  Cu  Cu102  1  0.33691215  0.00859006  -0.00283972  1
  Cu  Cu103  1  0.15641921  0.83209173  0.74561059  1
  Cu  Cu104  1  0.16755626  0.15889386  0.24555759  1
  Cu  Cu105  1  0.83044871  0.16312582  0.75552185  1
  Cu  Cu106  1  0.16759048  0.16648293  0.75125179  1
  Cu  Cu107  1  0.00193128  0.67408764  0.50065100  1
  Cu  Cu108  1  -0.00173227  0.33214648  -0.00137791  1
  Cu  Cu109  1  -0.00203693  0.67024792  -0.00016311  1
  Cu  Cu110  1  0.33643347  -0.00142320  0.49409354  1
  Cu  Cu111  1  -0.00028807  -0.00872245  0.50295367  1
  Cu  Cu112  1  0.34090721  0.33618806  0.00146191  1
  Cu  Cu113  1  0.16040019  0.82382088  0.25444498  1
  Cu  Cu114  1  0.50424193  0.49270516  0.74980456  1
  Se  Se115  1  0.08590742  0.08042422  0.04599062  1
  Se  Se116  1  0.07660624  0.08359073  0.55692442  1
  Se  Se117  1  0.07558260  0.40818347  0.06575959  1
  Se  Se118  1  0.08783659  0.42120731  0.54781928  1
  Se  Se119  1  0.08032544  0.74287772  0.06316048  1
  Se  Se120  1  0.08415009  0.75429107  0.55773015  1
  Se  Se121  1  0.42269579  0.08791379  0.05054464  1
  Se  Se122  1  0.42096197  0.08160601  0.54538763  1
  Se  Se123  1  0.41879706  0.42022747  0.05813943  1
  Se  Se124  1  0.41876644  0.41484649  0.55941628  1
  Se  Se125  1  0.40832458  0.74723748  0.06182829  1
  Se  Se126  1  0.41122306  0.74176822  0.55882404  1
  Se  Se127  1  0.74406885  0.08569779  0.07175628  1
  Se  Se128  1  0.74784859  0.08034746  0.56628752  1
  Se  Se129  1  0.74703124  0.41856929  0.04862915  1
  Se  Se130  1  0.74130759  0.40901178  0.55707637  1
  Se  Se131  1  0.75241725  0.75490195  0.04447690  1
  Se  Se132  1  0.74995073  0.75209128  0.55037554  1
  Se  Se133  1  0.25005863  0.25359229  0.04917819  1
  Se  Se134  1  0.25591396  0.25303239  0.55802473  1
  Se  Se135  1  0.25402637  0.58595997  0.06726994  1
  Se  Se136  1  0.25204681  0.58548838  0.55316974  1
  Se  Se137  1  0.25930468  0.92533383  0.05683516  1
  Se  Se138  1  0.24813690  0.92030600  0.54539497  1
  Se  Se139  1  0.58264131  0.25395076  0.05869264  1
  Se  Se140  1  0.57435404  0.23447588  0.56162964  1
  Se  Se141  1  0.57983672  0.58591642  0.04606231  1
  Se  Se142  1  0.58438382  0.58283939  0.55085393  1
  Se  Se143  1  0.59218056  0.92431789  0.06070838  1
  Se  Se144  1  0.58989402  0.92077946  0.56015307  1
  Se  Se145  1  0.91757154  0.25459867  0.06122336  1
  Se  Se146  1  0.92208486  0.25998487  0.55352738  1
  Se  Se147  1  0.91613229  0.58311698  0.05085749  1
  Se  Se148  1  0.92053578  0.58918583  0.55985334  1
  Se  Se149  1  0.92201818  0.91901495  0.05372371  1
  Se  Se150  1  0.91192527  0.91467969  0.55677863  1
  Se  Se151  1  0.07823869  0.25740719  0.43666997  1
  Se  Se152  1  0.08589760  0.25105943  0.94943418  1
  Se  Se153  1  0.07848203  0.58277879  0.44876418  1
  Se  Se154  1  0.08061354  0.58823552  0.94208457  1
  Se  Se155  1  0.08639096  0.91303445  0.44872824  1
  Se  Se156  1  0.07856099  0.92048192  0.93649449  1
  Se  Se157  1  0.42227146  0.24857478  0.44620109  1
  Se  Se158  1  0.42213016  0.25165065  0.94625661  1
  Se  Se159  1  0.41798997  0.58342154  0.45319990  1
  Se  Se160  1  0.41096400  0.59085651  0.95735050  1
  Se  Se161  1  0.41674887  0.92050223  0.43160907  1
  Se  Se162  1  0.41139309  0.92260976  0.93797850  1
  Se  Se163  1  0.73479958  0.26175459  0.44862867  1
  Se  Se164  1  0.74137622  0.25846613  0.93864444  1
  Se  Se165  1  0.73953417  0.58661368  0.43147013  1
  Se  Se166  1  0.75165521  0.58115668  0.94222470  1
  Se  Se167  1  0.75503540  0.91785442  0.45047774  1
  Se  Se168  1  0.74182481  0.92270338  0.95104319  1
  Se  Se169  1  0.26243873  0.07707077  0.42748937  1
  Se  Se170  1  0.25008844  0.08819098  0.94402677  1
  Se  Se171  1  0.25256111  0.41501655  0.44945752  1
  Se  Se172  1  0.25703300  0.41286550  0.93907890  1
  Se  Se173  1  0.24878578  0.75238245  0.45203579  1
  Se  Se174  1  0.26061444  0.73485214  0.94983008  1
  Se  Se175  1  0.58646146  0.08395719  0.44592704  1
  Se  Se176  1  0.58444831  0.09004709  0.95776933  1
  Se  Se177  1  0.57387225  0.43180881  0.45296783  1
  Se  Se178  1  0.57979582  0.42214880  0.94208719  1
  Se  Se179  1  0.58904345  0.74349002  0.43474046  1
  Se  Se180  1  0.58835399  0.74726287  0.93584563  1
  Se  Se181  1  0.92731054  0.07663431  0.44044614  1
  Se  Se182  1  0.91850381  0.07731424  0.93997308  1
  Se  Se183  1  0.91698025  0.41307582  0.43383801  1
  Se  Se184  1  0.91489617  0.42097402  0.95289351  1
  Se  Se185  1  0.91230069  0.75088421  0.44838842  1
  Se  Se186  1  0.91568500  0.75141129  0.94398584  1
  Se  Se187  1  0.24770649  0.24696174  0.29630405  1
  Se  Se188  1  0.25297524  0.25054206  0.80003663  1
  Se  Se189  1  0.24988617  0.58247466  0.31346929  1
  Se  Se190  1  0.24916499  0.57230552  0.81639870  1
  Se  Se191  1  0.24620341  0.90929988  0.30849654  1
  Se  Se192  1  0.24357666  0.91174734  0.80239927  1
  Se  Se193  1  0.59956118  0.27497594  0.31060181  1
  Se  Se194  1  0.58762941  0.24906752  0.80527042  1
  Se  Se195  1  0.57914599  0.57794718  0.30823253  1
  Se  Se196  1  0.58275976  0.58223891  0.80182577  1
  Se  Se197  1  0.59075501  0.91558290  0.29803322  1
  Se  Se198  1  0.58533789  0.92047737  0.80447841  1
  Se  Se199  1  0.90581518  0.24226667  0.31135661  1
  Se  Se200  1  0.91117348  0.24558459  0.81528949  1
  Se  Se201  1  0.90315526  0.57602291  0.29385646  1
  Se  Se202  1  0.91779877  0.58668390  0.80216596  1
  Se  Se203  1  0.92042082  0.91536245  0.30740464  1
  Se  Se204  1  0.91466749  0.91768112  0.80291908  1
  Se  Se205  1  0.08186608  0.07462352  0.29404118  1
  Se  Se206  1  0.08242898  0.08353358  0.80072347  1
  Se  Se207  1  0.08273044  0.41836456  0.31462469  1
  Se  Se208  1  0.08772143  0.42336432  0.81113625  1
  Se  Se209  1  0.08011730  0.74314266  0.31208370  1
  Se  Se210  1  0.07959837  0.74567340  0.80097759  1
  Se  Se211  1  0.43055206  0.09258364  0.30280685  1
  Se  Se212  1  0.42099247  0.08496227  0.81270868  1
  Se  Se213  1  0.41373230  0.41589613  0.30966188  1
  Se  Se214  1  0.41728154  0.41208711  0.80191161  1
  Se  Se215  1  0.41541006  0.74540048  0.29916293  1
  Se  Se216  1  0.42494416  0.75582549  0.81400563  1
  Se  Se217  1  0.74812289  0.08511940  0.30709389  1
  Se  Se218  1  0.74659924  0.07892868  0.80705376  1
  Se  Se219  1  0.76388108  0.43744512  0.29698282  1
  Se  Se220  1  0.75070536  0.41834824  0.80070331  1
  Se  Se221  1  0.75559680  0.75425366  0.30976410  1
  Se  Se222  1  0.74930554  0.74832326  0.80383411  1
  Se  Se223  1  0.24921248  0.08617399  0.18090477  1
  Se  Se224  1  0.24472211  0.09310704  0.68219032  1
  Se  Se225  1  0.24657359  0.41591808  0.20483090  1
  Se  Se226  1  0.25291331  0.41566164  0.69925475  1
  Se  Se227  1  0.24955404  0.74355290  0.20432425  1
  Se  Se228  1  0.24639436  0.75346600  0.69185117  1
  Se  Se229  1  0.58306088  0.08027801  0.20469509  1
  Se  Se230  1  0.58133354  0.07655272  0.70182557  1
  Se  Se231  1  0.58380325  0.41863139  0.19546350  1
  Se  Se232  1  0.58888106  0.41055583  0.69660501  1
  Se  Se233  1  0.57675259  0.75580012  0.18520536  1
  Se  Se234  1  0.58825129  0.74475185  0.70013199  1
  Se  Se235  1  0.91705926  0.07908001  0.19731004  1
  Se  Se236  1  0.91745016  0.08258031  0.70333655  1
  Se  Se237  1  0.91035257  0.41718951  0.18627335  1
  Se  Se238  1  0.90961123  0.42730414  0.68654913  1
  Se  Se239  1  0.91821597  0.74308508  0.19590152  1
  Se  Se240  1  0.91641062  0.74720873  0.69632108  1
  Se  Se241  1  0.08502942  0.23903887  0.18478613  1
  Se  Se242  1  0.08824396  0.24718298  0.68749508  1
  Se  Se243  1  0.07706737  0.58183360  0.20656355  1
  Se  Se244  1  0.08368064  0.58619983  0.69913025  1
  Se  Se245  1  0.08584557  0.91103116  0.19734358  1
  Se  Se246  1  0.07747322  0.92160305  0.69517955  1
  Se  Se247  1  0.40869066  0.25491199  0.19775454  1
  Se  Se248  1  0.41630231  0.24981218  0.70020958  1
  Se  Se249  1  0.41501339  0.58291364  0.19968946  1
  Se  Se250  1  0.42460021  0.57657114  0.68955142  1
  Se  Se251  1  0.42452799  0.91052668  0.18800529  1
  Se  Se252  1  0.42552722  0.90387627  0.68822761  1
  Se  Se253  1  0.74588819  0.25398016  0.20235536  1
  Se  Se254  1  0.75024846  0.25094220  0.70376308  1
  Se  Se255  1  0.74998522  0.58154883  0.17634559  1
  Se  Se256  1  0.74446503  0.58557735  0.69318109  1
  Se  Se257  1  0.75299758  0.91312448  0.19926675  1
  Se  Se258  1  0.74715448  0.91525468  0.69799191  1
