# generated using pymatgen
data_In86Cu29Se144
_symmetry_space_group_name_H-M   'P 1'
_cell_length_a   17.71304931
_cell_length_b   17.70400059
_cell_length_c   23.57079098
_cell_angle_alpha   89.97240944
_cell_angle_beta   89.99142112
_cell_angle_gamma   90.00358125
_symmetry_Int_Tables_number   1
_chemical_formula_structural   In86Cu29Se144
_chemical_formula_sum   'In86 Cu29 Se144'
_cell_volume   7391.60665052
_cell_formula_units_Z   1
loop_
 _symmetry_equiv_pos_site_id
 _symmetry_equiv_pos_as_xyz
  1  'x, y, z'
loop_
 _atom_site_type_symbol
 _atom_site_label
 _atom_site_symmetry_multiplicity
 _atom_site_fract_x
 _atom_site_fract_y
 _atom_site_fract_z
 _atom_site_occupancy
  In  In0  1  -0.00574250  0.16684261  0.12360365  1
  In  In1  1  -0.01987994  0.11435151  0.57017053  1
  In  In2  1  0.00455422  0.49792326  0.13018127  1
  In  In3  1  0.00253317  0.49335193  0.62352126  1
  In  In4  1  0.00570652  0.83103059  0.12279847  1
  In  In5  1  0.01790363  0.86676985  0.59992085  1
  In  In6  1  0.36367403  0.12535695  0.15744089  1
  In  In7  1  0.33989340  0.16512578  0.62280574  1
  In  In8  1  0.34190992  0.48893064  0.13690146  1
  In  In9  1  0.32807847  0.48746137  0.61728681  1
  In  In10  1  0.33778535  0.84350483  0.12546932  1
  In  In11  1  0.36076937  0.86519805  0.59673326  1
  In  In12  1  0.65940496  0.16085679  0.12665687  1
  In  In13  1  0.65792485  0.16505595  0.61618611  1
  In  In14  1  0.64287802  0.49771978  0.12812645  1
  In  In15  1  0.66568145  0.51077463  0.62583004  1
  In  In16  1  0.64046325  0.86792878  0.14452973  1
  In  In17  1  0.66382302  0.83876609  0.62508582  1
  In  In18  1  0.19968740  -0.04081405  0.43137335  1
  In  In19  1  0.16548142  -0.00174205  0.86878628  1
  In  In20  1  0.18493962  0.32726160  0.38046496  1
  In  In21  1  0.17295534  0.31887984  0.86970751  1
  In  In22  1  0.17466254  0.65356160  0.38075971  1
  In  In23  1  0.18356216  0.68075859  0.86957014  1
  In  In24  1  0.49583560  -0.00871808  0.37867683  1
  In  In25  1  0.49558326  0.00126603  0.86653131  1
  In  In26  1  0.50092400  0.32640640  0.38024645  1
  In  In27  1  0.49164889  0.33048071  0.86732891  1
  In  In28  1  0.48679475  0.68026319  0.37953791  1
  In  In29  1  0.50872218  0.67883687  0.86709726  1
  In  In30  1  0.82811021  0.01482045  0.39217800  1
  In  In31  1  0.83342181  0.00515393  0.86617190  1
  In  In32  1  0.81413165  0.31571842  0.37469960  1
  In  In33  1  0.81114945  0.30917761  0.86799817  1
  In  In34  1  0.84074741  0.66772649  0.37465785  1
  In  In35  1  0.82988683  0.68443699  0.87023703  1
  In  In36  1  0.00619915  0.15432240  0.39247596  1
  In  In37  1  0.00032297  0.15108681  0.86964478  1
  In  In38  1  0.00497399  0.50783693  0.37680561  1
  In  In39  1  0.00062285  0.49674381  0.87655452  1
  In  In40  1  0.00875540  0.83757656  0.39369637  1
  In  In41  1  -0.00443549  0.85219795  0.87093971  1
  In  In42  1  0.32838107  0.15763491  0.38078281  1
  In  In43  1  0.33963260  0.16692109  0.86580411  1
  In  In44  1  0.33869460  0.50065290  0.37528441  1
  In  In45  1  0.34358986  0.49425071  0.87079016  1
  In  In46  1  0.34178123  0.82811735  0.37451862  1
  In  In47  1  0.32341179  0.84946801  0.88791555  1
  In  In48  1  0.66213037  0.15939847  0.38331338  1
  In  In49  1  0.66936899  0.14848213  0.89646845  1
  In  In50  1  0.66241088  0.47602396  0.37358757  1
  In  In51  1  0.65096697  0.50579319  0.86995565  1
  In  In52  1  0.64422408  0.85603812  0.38711145  1
  In  In53  1  0.65647878  0.83938919  0.86531464  1
  In  In54  1  0.18227672  -0.00574503  0.12684368  1
  In  In55  1  0.17438315  0.00921730  0.62021638  1
  In  In56  1  0.17147062  0.33597279  0.12900820  1
  In  In57  1  0.16879737  0.33270158  0.62014440  1
  In  In58  1  0.18246922  0.69110978  0.12856895  1
  In  In59  1  0.17162960  0.67750212  0.62056756  1
  In  In60  1  0.50000936  0.00581164  0.11358640  1
  In  In61  1  0.50435533  0.00788500  0.62348986  1
  In  In62  1  0.50605749  0.31364642  0.14255365  1
  In  In63  1  0.48653832  0.31424695  0.60228832  1
  In  In64  1  0.48807365  0.66739045  0.12793177  1
  In  In65  1  0.50861867  0.67484460  0.61442936  1
  In  In66  1  0.81275996  0.00530424  0.12755002  1
  In  In67  1  0.82936260  -0.00198789  0.62591287  1
  In  In68  1  0.82363747  0.30107179  0.12014918  1
  In  In69  1  0.83825593  0.32035029  0.62259883  1
  In  In70  1  0.83509367  0.67370194  0.12275944  1
  In  In71  1  0.81490065  0.67706302  0.63079281  1
  In  In72  1  0.65798602  0.32731308  0.73642183  1
  In  In73  1  0.17725998  0.16431518  0.00283335  1
  In  In74  1  0.82996453  0.83726688  0.00140518  1
  In  In75  1  -0.00165490  0.32844153  0.25636663  1
  In  In76  1  0.83102949  0.49520584  0.00062087  1
  In  In77  1  0.00631187  0.32458995  0.74121591  1
  In  In78  1  0.49488280  0.50281755  -0.00107415  1
  In  In79  1  0.83762360  0.50459046  0.50015310  1
  In  In80  1  0.00579506  0.66859303  0.24713548  1
  In  In81  1  0.66992128  0.65878138  0.25095848  1
  In  In82  1  0.00190295  -0.00246143  0.26634271  1
  In  In83  1  0.33509433  0.67671435  0.73869074  1
  In  In84  1  0.16763554  0.50104035  0.01143529  1
  In  In85  1  -0.00352203  0.67470705  0.74440737  1
  Cu  Cu86  1  0.65762156  0.32974405  0.00696353  1
  Cu  Cu87  1  0.49925725  0.84054604  0.74337950  1
  Cu  Cu88  1  0.82512679  0.15759673  0.25443032  1
  Cu  Cu89  1  0.17471203  0.16433410  0.74327344  1
  Cu  Cu90  1  0.83203954  0.48715499  0.24491362  1
  Cu  Cu91  1  0.49455985  0.49881719  0.74518635  1
  Cu  Cu92  1  0.67073630  0.67692419  -0.00620086  1
  Cu  Cu93  1  0.82581788  0.50319060  0.75178328  1
  Cu  Cu94  1  0.82845042  0.84037505  0.74792843  1
  Cu  Cu95  1  0.00261410  0.34434526  0.49960547  1
  Cu  Cu96  1  0.01124981  0.66615525  -0.00226341  1
  Cu  Cu97  1  0.33594034  0.33955800  0.49349858  1
  Cu  Cu98  1  0.00226023  -0.00105011  -0.00512145  1
  Cu  Cu99  1  0.16843346  0.16328662  0.26041086  1
  Cu  Cu100  1  0.17088358  0.84340629  0.74098791  1
  Cu  Cu101  1  0.32970977  0.65648039  0.49863578  1
  Cu  Cu102  1  0.49909332  0.49507068  0.25688447  1
  Cu  Cu103  1  0.82584321  0.83957658  0.26049185  1
  Cu  Cu104  1  0.50095184  0.16139321  0.25970425  1
  Cu  Cu105  1  0.33595954  0.67546940  0.00304238  1
  Cu  Cu106  1  0.17419673  0.83679115  0.26040742  1
  Cu  Cu107  1  0.66154972  -0.00392349  0.50251351  1
  Cu  Cu108  1  0.00147754  0.66779896  0.50183362  1
  Cu  Cu109  1  0.17932405  0.49926544  0.25364186  1
  Cu  Cu110  1  -0.01049370  0.32527980  -0.00543602  1
  Cu  Cu111  1  0.17357220  0.49536268  0.74364444  1
  Cu  Cu112  1  0.50118020  0.16462048  0.74428251  1
  Cu  Cu113  1  0.66749416  0.66611878  0.49893631  1
  Cu  Cu114  1  0.33071913  0.33413685  -0.00067274  1
  Se  Se115  1  0.08017597  0.07476633  0.06039025  1
  Se  Se116  1  0.12338756  0.11132180  0.54780036  1
  Se  Se117  1  0.06898421  0.40139447  0.05668125  1
  Se  Se118  1  0.08758262  0.42233309  0.55332158  1
  Se  Se119  1  0.08748612  0.74857194  0.05602757  1
  Se  Se120  1  0.08560322  0.75295309  0.55117609  1
  Se  Se121  1  0.40895615  0.09605501  0.05765661  1
  Se  Se122  1  0.42786354  0.09253180  0.55367850  1
  Se  Se123  1  0.41577476  0.40680848  0.06011140  1
  Se  Se124  1  0.42019400  0.42299788  0.54622949  1
  Se  Se125  1  0.41903665  0.75465111  0.05775049  1
  Se  Se126  1  0.41410210  0.74482147  0.54803862  1
  Se  Se127  1  0.74945783  0.09132562  0.05573606  1
  Se  Se128  1  0.74488105  0.07824483  0.55528125  1
  Se  Se129  1  0.73905891  0.41251672  0.06411493  1
  Se  Se130  1  0.75301817  0.41730635  0.56362545  1
  Se  Se131  1  0.73930170  0.75251347  0.06337468  1
  Se  Se132  1  0.74372019  0.75207487  0.55386641  1
  Se  Se133  1  0.25929169  0.25512661  0.06425488  1
  Se  Se134  1  0.26254268  0.25830847  0.55596380  1
  Se  Se135  1  0.26560158  0.58819088  0.06480594  1
  Se  Se136  1  0.24636476  0.58240400  0.55748209  1
  Se  Se137  1  0.24138406  0.90501090  0.05506625  1
  Se  Se138  1  0.24018274  0.91435524  0.54802789  1
  Se  Se139  1  0.57509727  0.24841585  0.05989625  1
  Se  Se140  1  0.60630627  0.27076447  0.55002197  1
  Se  Se141  1  0.58907072  0.59660713  0.05347683  1
  Se  Se142  1  0.58520793  0.58131372  0.55027891  1
  Se  Se143  1  0.59543972  0.92637468  0.05283903  1
  Se  Se144  1  0.57755573  0.91425621  0.55527652  1
  Se  Se145  1  0.91372427  0.23747915  0.04803471  1
  Se  Se146  1  0.92847928  0.25660915  0.55272363  1
  Se  Se147  1  0.92846152  0.58911053  0.05594815  1
  Se  Se148  1  0.92038185  0.59516646  0.56570750  1
  Se  Se149  1  0.92183114  0.92717921  0.06235337  1
  Se  Se150  1  0.88923970  0.89701637  0.55740569  1
  Se  Se151  1  0.08036251  0.26300869  0.44142351  1
  Se  Se152  1  0.07974106  0.24939564  0.94053316  1
  Se  Se153  1  0.08271275  0.58210083  0.45013545  1
  Se  Se154  1  0.08886912  0.58784668  0.93729487  1
  Se  Se155  1  0.06088131  0.93526018  0.46455717  1
  Se  Se156  1  0.08530176  0.91757838  0.94194194  1
  Se  Se157  1  0.41200105  0.24581518  0.44587420  1
  Se  Se158  1  0.40866923  0.25615449  0.93900999  1
  Se  Se159  1  0.42072869  0.58204144  0.44500884  1
  Se  Se160  1  0.40948922  0.59620246  0.93828164  1
  Se  Se161  1  0.40924150  0.91497433  0.44796334  1
  Se  Se162  1  0.44041892  0.90078983  0.93691599  1
  Se  Se163  1  0.74897406  0.23921419  0.45161547  1
  Se  Se164  1  0.74494783  0.25010035  0.95452180  1
  Se  Se165  1  0.74374206  0.58542230  0.43614422  1
  Se  Se166  1  0.74557692  0.58956271  0.93783596  1
  Se  Se167  1  0.74960536  0.91600831  0.44958353  1
  Se  Se168  1  0.74655848  0.92105782  0.93571152  1
  Se  Se169  1  0.23126481  0.10097018  0.45354416  1
  Se  Se170  1  0.25840312  0.07820634  0.93700023  1
  Se  Se171  1  0.24985494  0.42555060  0.44581553  1
  Se  Se172  1  0.25065263  0.41438718  0.94134071  1
  Se  Se173  1  0.25451869  0.74370897  0.44264630  1
  Se  Se174  1  0.24770893  0.75280090  0.95069644  1
  Se  Se175  1  0.57606297  0.07649476  0.44853407  1
  Se  Se176  1  0.54487766  0.10459028  0.93758651  1
  Se  Se177  1  0.58739114  0.40557062  0.44903544  1
  Se  Se178  1  0.58688008  0.40960895  0.94198540  1
  Se  Se179  1  0.58240870  0.74846816  0.44666546  1
  Se  Se180  1  0.58535431  0.75545033  0.94065181  1
  Se  Se181  1  0.91554332  0.08752277  0.46290191  1
  Se  Se182  1  0.91739829  0.07828551  0.94147345  1
  Se  Se183  1  0.91725045  0.41195323  0.43408324  1
  Se  Se184  1  0.91144155  0.40244082  0.93345807  1
  Se  Se185  1  0.91712232  0.74537113  0.44705330  1
  Se  Se186  1  0.92716880  0.74742128  0.94149973  1
  Se  Se187  1  0.25622992  0.24660720  0.30685849  1
  Se  Se188  1  0.25480823  0.24963851  0.79702935  1
  Se  Se189  1  0.25732169  0.58602645  0.30522020  1
  Se  Se190  1  0.25041025  0.57891224  0.80305450  1
  Se  Se191  1  0.23894772  0.91896583  0.32855583  1
  Se  Se192  1  0.25315274  0.91508754  0.80453135  1
  Se  Se193  1  0.58467133  0.24390439  0.31160597  1
  Se  Se194  1  0.58012908  0.24260432  0.80676456  1
  Se  Se195  1  0.58002793  0.57621268  0.31491794  1
  Se  Se196  1  0.57506466  0.58451832  0.79763093  1
  Se  Se197  1  0.57752315  0.91721359  0.30389996  1
  Se  Se198  1  0.58259065  0.92471591  0.79547788  1
  Se  Se199  1  0.91381926  0.23134517  0.31315630  1
  Se  Se200  1  0.91372661  0.24230800  0.80466862  1
  Se  Se201  1  0.91047696  0.57201023  0.30044842  1
  Se  Se202  1  0.91049369  0.57974775  0.80945199  1
  Se  Se203  1  0.90848709  0.90988757  0.32371716  1
  Se  Se204  1  0.91642222  0.92315990  0.79695027  1
  Se  Se205  1  0.09466133  0.08272897  0.32216286  1
  Se  Se206  1  0.08987073  0.08451360  0.79924641  1
  Se  Se207  1  0.09138635  0.42182677  0.30914007  1
  Se  Se208  1  0.09141172  0.42050819  0.80690767  1
  Se  Se209  1  0.08677306  0.75611534  0.31475646  1
  Se  Se210  1  0.09231600  0.76217085  0.80300861  1
  Se  Se211  1  0.41533723  0.08081642  0.31208392  1
  Se  Se212  1  0.41362433  0.08202791  0.79480623  1
  Se  Se213  1  0.41877027  0.41103916  0.31072764  1
  Se  Se214  1  0.41325862  0.41375599  0.79660887  1
  Se  Se215  1  0.41668803  0.74881841  0.30006778  1
  Se  Se216  1  0.41681419  0.76344439  0.80506413  1
  Se  Se217  1  0.74766163  0.07663589  0.31323930  1
  Se  Se218  1  0.74554979  0.09729258  0.81200023  1
  Se  Se219  1  0.75281987  0.40883928  0.30233599  1
  Se  Se220  1  0.74514877  0.41977475  0.80766753  1
  Se  Se221  1  0.74897681  0.75256314  0.31438621  1
  Se  Se222  1  0.74585299  0.75573954  0.80039585  1
  Se  Se223  1  0.24326363  0.07336434  0.20689712  1
  Se  Se224  1  0.26045032  0.08028459  0.69353130  1
  Se  Se225  1  0.25385428  0.40832002  0.20175337  1
  Se  Se226  1  0.25258219  0.41050422  0.69261456  1
  Se  Se227  1  0.26010861  0.76268735  0.20270067  1
  Se  Se228  1  0.25487675  0.77283381  0.67944930  1
  Se  Se229  1  0.57452068  0.08238767  0.19446155  1
  Se  Se230  1  0.58908728  0.08593609  0.69369366  1
  Se  Se231  1  0.58209850  0.41202061  0.20320828  1
  Se  Se232  1  0.56942341  0.42035744  0.68130362  1
  Se  Se233  1  0.57762466  0.74998734  0.19573392  1
  Se  Se234  1  0.57932609  0.75231260  0.69198619  1
  Se  Se235  1  0.91474386  0.08314421  0.19721530  1
  Se  Se236  1  0.93116928  0.08672051  0.67036633  1
  Se  Se237  1  0.90987063  0.40823486  0.18404662  1
  Se  Se238  1  0.90724290  0.42370033  0.69419164  1
  Se  Se239  1  0.90672475  0.76437255  0.19723130  1
  Se  Se240  1  0.91052635  0.76473638  0.68698613  1
  Se  Se241  1  0.08981870  0.23731782  0.19530283  1
  Se  Se242  1  0.08979749  0.23566319  0.68180946  1
  Se  Se243  1  0.10255954  0.57867014  0.18995676  1
  Se  Se244  1  0.09067515  0.57908870  0.69206530  1
  Se  Se245  1  0.08714719  0.90875245  0.19839678  1
  Se  Se246  1  0.08744698  0.92483959  0.68662380  1
  Se  Se247  1  0.41250614  0.24611802  0.20961843  1
  Se  Se248  1  0.42389080  0.25194061  0.68979595  1
  Se  Se249  1  0.42166850  0.57865669  0.19976177  1
  Se  Se250  1  0.42049778  0.58060088  0.68253238  1
  Se  Se251  1  0.40394561  0.94591450  0.18636742  1
  Se  Se252  1  0.41589702  0.92208019  0.68818808  1
  Se  Se253  1  0.74459127  0.24075777  0.19901775  1
  Se  Se254  1  0.75780540  0.23641364  0.69099736  1
  Se  Se255  1  0.75827905  0.57031615  0.18339365  1
  Se  Se256  1  0.74398234  0.58727067  0.70044151  1
  Se  Se257  1  0.74896286  0.92339301  0.20543381  1
  Se  Se258  1  0.74228665  0.92175861  0.69640673  1
