# generated using pymatgen
data_In86Cu29Se144
_symmetry_space_group_name_H-M   'P 1'
_cell_length_a   17.58173609
_cell_length_b   17.57843666
_cell_length_c   23.43697283
_cell_angle_alpha   89.98302745
_cell_angle_beta   90.00201043
_cell_angle_gamma   90.00276682
_symmetry_Int_Tables_number   1
_chemical_formula_structural   In86Cu29Se144
_chemical_formula_sum   'In86 Cu29 Se144'
_cell_volume   7243.41723095
_cell_formula_units_Z   1
loop_
 _symmetry_equiv_pos_site_id
 _symmetry_equiv_pos_as_xyz
  1  'x, y, z'
loop_
 _atom_site_type_symbol
 _atom_site_label
 _atom_site_symmetry_multiplicity
 _atom_site_fract_x
 _atom_site_fract_y
 _atom_site_fract_z
 _atom_site_occupancy
  In  In0  1  0.00450750  0.16346639  0.12385823  1
  In  In1  1  0.00381396  0.17126922  0.62468854  1
  In  In2  1  0.00109594  0.49320777  0.12003306  1
  In  In3  1  0.01149647  0.49459786  0.63102619  1
  In  In4  1  0.00107867  0.84502341  0.12521198  1
  In  In5  1  -0.00047833  0.83730171  0.62678709  1
  In  In6  1  0.34653142  0.18255610  0.10663076  1
  In  In7  1  0.31679072  0.16016397  0.60873269  1
  In  In8  1  0.31957051  0.49992101  0.13349135  1
  In  In9  1  0.32437100  0.49026754  0.60035847  1
  In  In10  1  0.31719465  0.83037452  0.13030312  1
  In  In11  1  0.34211226  0.84695473  0.62558009  1
  In  In12  1  0.66965447  0.17698170  0.10986018  1
  In  In13  1  0.66725824  0.16080027  0.62311287  1
  In  In14  1  0.67157158  0.48203268  0.11985973  1
  In  In15  1  0.66570602  0.51254314  0.62553152  1
  In  In16  1  0.67440516  0.82685554  0.12109669  1
  In  In17  1  0.66186697  0.81513349  0.62822318  1
  In  In18  1  0.15559329  0.01595003  0.38324793  1
  In  In19  1  0.17336941  0.01392621  0.86444381  1
  In  In20  1  0.16167854  0.33299390  0.36699647  1
  In  In21  1  0.16724030  0.34144044  0.88589742  1
  In  In22  1  0.20543029  0.63862831  0.42090409  1
  In  In23  1  0.15449895  0.66997091  0.87329649  1
  In  In24  1  0.50154129  0.01600236  0.37710036  1
  In  In25  1  0.49548446  0.00677655  0.87318322  1
  In  In26  1  0.46102423  0.36411963  0.41154436  1
  In  In27  1  0.48694785  0.32168244  0.87857703  1
  In  In28  1  0.46898041  0.66826369  0.37976391  1
  In  In29  1  0.50537410  0.65273252  0.86632142  1
  In  In30  1  0.84420349  -0.00663441  0.38284787  1
  In  In31  1  0.83632376  -0.00690654  0.87831039  1
  In  In32  1  0.83638178  0.31903137  0.37239163  1
  In  In33  1  0.84645116  0.31785229  0.88739103  1
  In  In34  1  0.84549712  0.67255228  0.37779760  1
  In  In35  1  0.83980364  0.66422188  0.87321602  1
  In  In36  1  0.00232313  0.16560254  0.37057326  1
  In  In37  1  0.00305857  0.16670675  0.87167703  1
  In  In38  1  0.02877640  0.49947593  0.37099578  1
  In  In39  1  0.00543398  0.49539680  0.87508002  1
  In  In40  1  0.00119384  0.83840188  0.38388109  1
  In  In41  1  -0.00974560  0.82748666  0.86535505  1
  In  In42  1  0.31120547  0.19844428  0.39696744  1
  In  In43  1  0.33343016  0.16156584  0.89143082  1
  In  In44  1  0.31741363  0.49297632  0.37228056  1
  In  In45  1  0.32357851  0.48810616  0.87865244  1
  In  In46  1  0.32507914  0.81924508  0.37980170  1
  In  In47  1  0.32179065  0.83977886  0.87056658  1
  In  In48  1  0.66353770  0.17676656  0.38002152  1
  In  In49  1  0.66654252  0.17174336  0.88444431  1
  In  In50  1  0.65907937  0.48343232  0.37210749  1
  In  In51  1  0.66929913  0.51369186  0.86874312  1
  In  In52  1  0.66845962  0.84576399  0.38009385  1
  In  In53  1  0.68286500  0.83153125  0.87259785  1
  In  In54  1  0.15602264  -0.00117491  0.12797862  1
  In  In55  1  0.16458522  0.00354547  0.62599845  1
  In  In56  1  0.16998505  0.32771032  0.12640058  1
  In  In57  1  0.16389487  0.32551137  0.61236454  1
  In  In58  1  0.17332088  0.66201820  0.12922333  1
  In  In59  1  0.16151932  0.65707037  0.61663072  1
  In  In60  1  0.49453662  0.02692646  0.12592082  1
  In  In61  1  0.48074413  -0.00790985  0.62945392  1
  In  In62  1  0.49852375  0.32458507  0.12599710  1
  In  In63  1  0.48903878  0.32535467  0.61124352  1
  In  In64  1  0.48880291  0.65005637  0.12742782  1
  In  In65  1  0.50720568  0.67105173  0.62256254  1
  In  In66  1  0.84244544  0.01058763  0.11503678  1
  In  In67  1  0.84518193  0.00953062  0.62419666  1
  In  In68  1  0.84138193  0.34032831  0.11091444  1
  In  In69  1  0.85526773  0.33551830  0.62699478  1
  In  In70  1  0.84432722  0.66824748  0.11333677  1
  In  In71  1  0.82535479  0.67790670  0.63105186  1
  In  In72  1  0.66316726  0.66256219  0.24821139  1
  In  In73  1  0.33722702  0.67084560  0.73999133  1
  In  In74  1  0.66807216  -0.00523670  0.75749466  1
  In  In75  1  0.66500414  0.32629592  0.24270134  1
  In  In76  1  0.50782878  0.49540326  -0.00185050  1
  In  In77  1  0.50082894  0.83403237  0.50400035  1
  In  In78  1  0.16187381  0.83933597  0.00173086  1
  In  In79  1  0.83393157  0.49982878  0.49997251  1
  In  In80  1  0.32625298  0.33169231  0.74936425  1
  In  In81  1  0.32726161  0.00277631  0.24884852  1
  In  In82  1  0.67123115  0.33969852  0.75613019  1
  In  In83  1  0.50454368  0.83995095  -0.00544085  1
  In  In84  1  0.00915477  0.66756410  0.25644335  1
  In  In85  1  0.66893391  0.00184364  0.25482464  1
  Cu  Cu86  1  0.16313976  0.82923104  0.25854598  1
  Cu  Cu87  1  0.50058039  0.50105130  0.74094671  1
  Cu  Cu88  1  -0.00466522  -0.00217710  -0.00562881  1
  Cu  Cu89  1  0.33333939  0.66432766  0.00668723  1
  Cu  Cu90  1  0.00239804  0.00728812  0.50467116  1
  Cu  Cu91  1  0.83589880  0.83284540  0.74972929  1
  Cu  Cu92  1  0.66941374  0.32720858  0.50269364  1
  Cu  Cu93  1  -0.00544890  0.67274514  0.50442822  1
  Cu  Cu94  1  0.16438741  0.50249412  0.74944612  1
  Cu  Cu95  1  0.16129864  0.83996980  0.74705227  1
  Cu  Cu96  1  0.16544323  0.16900578  0.24932006  1
  Cu  Cu97  1  0.84492870  0.50490486  0.75034172  1
  Cu  Cu98  1  0.68014239  0.66752528  -0.00340616  1
  Cu  Cu99  1  0.00199034  0.33067826  0.49604667  1
  Cu  Cu100  1  0.00205972  0.65838935  -0.00581429  1
  Cu  Cu101  1  0.68022169  -0.00026385  0.50434229  1
  Cu  Cu102  1  0.00695681  0.32878876  0.00164406  1
  Cu  Cu103  1  0.84097680  0.49699132  0.23960710  1
  Cu  Cu104  1  0.83956837  0.84012484  0.25462830  1
  Cu  Cu105  1  0.49358218  0.17664597  0.25290767  1
  Cu  Cu106  1  0.48336160  0.50090789  0.25718163  1
  Cu  Cu107  1  0.16543415  0.16935136  0.74559169  1
  Cu  Cu108  1  0.48752429  0.16123151  0.75042005  1
  Cu  Cu109  1  0.84073890  0.17239691  0.75084626  1
  Cu  Cu110  1  0.84470357  0.16047878  0.24711144  1
  Cu  Cu111  1  0.33242468  0.00166340  0.50217213  1
  Cu  Cu112  1  0.66371752  0.00094715  -0.00525329  1
  Cu  Cu113  1  0.66585886  0.66384765  0.50071957  1
  Cu  Cu114  1  0.48773655  0.82820443  0.25069804  1
  Se  Se115  1  0.07928785  0.07451455  0.05227219  1
  Se  Se116  1  0.08865599  0.09112260  0.55512244  1
  Se  Se117  1  0.08968445  0.41303976  0.05496732  1
  Se  Se118  1  0.07988859  0.41798000  0.55128947  1
  Se  Se119  1  0.07567038  0.74104771  0.06013793  1
  Se  Se120  1  0.08099481  0.75320178  0.55695486  1
  Se  Se121  1  0.41886196  0.08379684  0.04471767  1
  Se  Se122  1  0.42077470  0.08129843  0.55430130  1
  Se  Se123  1  0.41506218  0.42099347  0.06439946  1
  Se  Se124  1  0.42455366  0.41786148  0.54117572  1
  Se  Se125  1  0.41388152  0.74979913  0.06026532  1
  Se  Se126  1  0.40590210  0.74247578  0.55657481  1
  Se  Se127  1  0.74924995  0.08309199  0.04864480  1
  Se  Se128  1  0.75905339  0.08892531  0.55539998  1
  Se  Se129  1  0.74700948  0.41148741  0.04437792  1
  Se  Se130  1  0.74695808  0.40929077  0.56434227  1
  Se  Se131  1  0.75903358  0.75499104  0.04940370  1
  Se  Se132  1  0.74738965  0.74922110  0.55233053  1
  Se  Se133  1  0.22471062  0.22518662  0.05647437  1
  Se  Se134  1  0.26835043  0.27071425  0.54632784  1
  Se  Se135  1  0.24769756  0.58078811  0.05570298  1
  Se  Se136  1  0.24523154  0.58592695  0.54183864  1
  Se  Se137  1  0.25747422  0.92701334  0.05843312  1
  Se  Se138  1  0.25124881  0.91999636  0.55796814  1
  Se  Se139  1  0.58116143  0.26023436  0.04994965  1
  Se  Se140  1  0.58530165  0.24265392  0.55412028  1
  Se  Se141  1  0.59596933  0.59237436  0.05899546  1
  Se  Se142  1  0.58032941  0.58247970  0.55185938  1
  Se  Se143  1  0.58781325  0.92773732  0.06460353  1
  Se  Se144  1  0.59233762  0.92428609  0.56466995  1
  Se  Se145  1  0.92133530  0.24356918  0.05220485  1
  Se  Se146  1  0.91866363  0.24983986  0.55176434  1
  Se  Se147  1  0.91880783  0.57568382  0.04935088  1
  Se  Se148  1  0.91768006  0.58768329  0.56523404  1
  Se  Se149  1  0.91592037  0.91285940  0.05068245  1
  Se  Se150  1  0.91853682  0.92001597  0.55509663  1
  Se  Se151  1  0.08361510  0.24812755  0.44041283  1
  Se  Se152  1  0.08514620  0.24535734  0.94405984  1
  Se  Se153  1  0.07442601  0.58329434  0.45405952  1
  Se  Se154  1  0.09142530  0.57819312  0.94497462  1
  Se  Se155  1  0.08487823  0.92239757  0.45131731  1
  Se  Se156  1  0.07642656  0.91935702  0.93279434  1
  Se  Se157  1  0.44370831  0.22375999  0.43949808  1
  Se  Se158  1  0.39644351  0.26718835  0.95277720  1
  Se  Se159  1  0.41044449  0.56807825  0.44303798  1
  Se  Se160  1  0.41124923  0.58875340  0.94162141  1
  Se  Se161  1  0.41293314  0.92391578  0.43903340  1
  Se  Se162  1  0.40350896  0.92375975  0.94258842  1
  Se  Se163  1  0.75595870  0.24905343  0.44866907  1
  Se  Se164  1  0.74721954  0.25286434  0.95158168  1
  Se  Se165  1  0.74237412  0.58648487  0.43484397  1
  Se  Se166  1  0.75674431  0.57986012  0.94291648  1
  Se  Se167  1  0.75751335  0.91198991  0.45106846  1
  Se  Se168  1  0.74975741  0.91462642  0.94804123  1
  Se  Se169  1  0.24785525  0.08717610  0.45199029  1
  Se  Se170  1  0.23769873  0.07919534  0.94888695  1
  Se  Se171  1  0.25343763  0.39531967  0.44176217  1
  Se  Se172  1  0.26056045  0.40904298  0.95583704  1
  Se  Se173  1  0.24135625  0.77019046  0.46099187  1
  Se  Se174  1  0.25459289  0.74379740  0.94397682  1
  Se  Se175  1  0.59629218  0.07753369  0.44701494  1
  Se  Se176  1  0.57806869  0.08376986  0.94452754  1
  Se  Se177  1  0.58880447  0.41715783  0.45352249  1
  Se  Se178  1  0.59014695  0.41060360  0.92971100  1
  Se  Se179  1  0.58506600  0.74228506  0.43653039  1
  Se  Se180  1  0.58942666  0.73852489  0.93885446  1
  Se  Se181  1  0.92073646  0.08736293  0.44535499  1
  Se  Se182  1  0.91570436  0.08560301  0.94105859  1
  Se  Se183  1  0.92220067  0.41418665  0.43582721  1
  Se  Se184  1  0.92516084  0.41450984  0.94714856  1
  Se  Se185  1  0.91213254  0.75672499  0.45191888  1
  Se  Se186  1  0.92131626  0.74790928  0.94370378  1
  Se  Se187  1  0.25266597  0.24772966  0.30304736  1
  Se  Se188  1  0.24322329  0.24308926  0.81318200  1
  Se  Se189  1  0.23168990  0.59058523  0.31951754  1
  Se  Se190  1  0.25057344  0.58100312  0.80658490  1
  Se  Se191  1  0.24233740  0.91595029  0.31539933  1
  Se  Se192  1  0.24885259  0.92112924  0.79740061  1
  Se  Se193  1  0.57430240  0.25640713  0.31271522  1
  Se  Se194  1  0.57379850  0.24197901  0.80569937  1
  Se  Se195  1  0.57139601  0.57975822  0.31266146  1
  Se  Se196  1  0.58759100  0.58262998  0.79127177  1
  Se  Se197  1  0.56905789  0.90932496  0.30778454  1
  Se  Se198  1  0.57550033  0.90460023  0.81357870  1
  Se  Se199  1  0.92178979  0.25042659  0.29927427  1
  Se  Se200  1  0.92230030  0.25693861  0.80414882  1
  Se  Se201  1  0.91176665  0.57259225  0.30965119  1
  Se  Se202  1  0.92852986  0.58527802  0.80599367  1
  Se  Se203  1  0.92434626  0.91897586  0.30805865  1
  Se  Se204  1  0.91507236  0.92291662  0.80041873  1
  Se  Se205  1  0.08394190  0.08089666  0.30001292  1
  Se  Se206  1  0.07984119  0.08487765  0.79707883  1
  Se  Se207  1  0.07338612  0.40586053  0.29584661  1
  Se  Se208  1  0.09204241  0.41374501  0.80651145  1
  Se  Se209  1  0.09248881  0.74905029  0.32382966  1
  Se  Se210  1  0.08270147  0.75061223  0.79904221  1
  Se  Se211  1  0.41279567  0.09439444  0.30967203  1
  Se  Se212  1  0.40450318  0.08701840  0.80959249  1
  Se  Se213  1  0.41325775  0.40863824  0.31204975  1
  Se  Se214  1  0.42355657  0.42384894  0.80551040  1
  Se  Se215  1  0.40206424  0.74726067  0.30120533  1
  Se  Se216  1  0.41930420  0.75257291  0.81168702  1
  Se  Se217  1  0.75962947  0.09195288  0.31252723  1
  Se  Se218  1  0.75577738  0.09519195  0.81006446  1
  Se  Se219  1  0.75844485  0.41961391  0.30149671  1
  Se  Se220  1  0.76798843  0.42314113  0.81315910  1
  Se  Se221  1  0.75354118  0.75737484  0.30791838  1
  Se  Se222  1  0.75466618  0.74518822  0.80170556  1
  Se  Se223  1  0.24629897  0.09363515  0.18508640  1
  Se  Se224  1  0.25215040  0.08850878  0.69247497  1
  Se  Se225  1  0.25189268  0.40482793  0.19893272  1
  Se  Se226  1  0.24430448  0.42531383  0.68574636  1
  Se  Se227  1  0.24505496  0.74743063  0.20284171  1
  Se  Se228  1  0.24041567  0.75867589  0.68510657  1
  Se  Se229  1  0.58516627  0.10181189  0.19659654  1
  Se  Se230  1  0.57665185  0.08427139  0.69560387  1
  Se  Se231  1  0.57076519  0.42917966  0.19484881  1
  Se  Se232  1  0.57728622  0.41264143  0.68507274  1
  Se  Se233  1  0.57170541  0.75529819  0.18841531  1
  Se  Se234  1  0.57363696  0.74953540  0.69979770  1
  Se  Se235  1  0.92350122  0.07444834  0.19357752  1
  Se  Se236  1  0.92253548  0.08902029  0.69694558  1
  Se  Se237  1  0.91978526  0.40910816  0.18970543  1
  Se  Se238  1  0.92655729  0.41605751  0.70156671  1
  Se  Se239  1  0.91294800  0.75355121  0.19406836  1
  Se  Se240  1  0.92014574  0.74999694  0.69646658  1
  Se  Se241  1  0.07919635  0.24898492  0.19528077  1
  Se  Se242  1  0.08739935  0.25755285  0.69227917  1
  Se  Se243  1  0.08849691  0.57261260  0.19411358  1
  Se  Se244  1  0.08426799  0.58963252  0.69730695  1
  Se  Se245  1  0.08456940  0.91197719  0.20108636  1
  Se  Se246  1  0.07806742  0.92517481  0.69550630  1
  Se  Se247  1  0.40871179  0.25055256  0.19396823  1
  Se  Se248  1  0.41407905  0.24188123  0.68755488  1
  Se  Se249  1  0.40390207  0.58586232  0.20223126  1
  Se  Se250  1  0.41335807  0.56940246  0.67909729  1
  Se  Se251  1  0.42253071  0.91557699  0.18650957  1
  Se  Se252  1  0.41770934  0.91085647  0.70652351  1
  Se  Se253  1  0.76287516  0.24045176  0.18674547  1
  Se  Se254  1  0.75547527  0.24833700  0.69171071  1
  Se  Se255  1  0.75746008  0.57874467  0.18528860  1
  Se  Se256  1  0.75428152  0.58072213  0.69718151  1
  Se  Se257  1  0.75727334  0.91405375  0.19126696  1
  Se  Se258  1  0.75381829  0.91218815  0.68860981  1
