# generated using pymatgen
data_In86Cu29Se144
_symmetry_space_group_name_H-M   'P 1'
_cell_length_a   17.58012148
_cell_length_b   17.57793710
_cell_length_c   23.43931032
_cell_angle_alpha   90.01897744
_cell_angle_beta   90.00127817
_cell_angle_gamma   90.02005342
_symmetry_Int_Tables_number   1
_chemical_formula_structural   In86Cu29Se144
_chemical_formula_sum   'In86 Cu29 Se144'
_cell_volume   7243.26802616
_cell_formula_units_Z   1
loop_
 _symmetry_equiv_pos_site_id
 _symmetry_equiv_pos_as_xyz
  1  'x, y, z'
loop_
 _atom_site_type_symbol
 _atom_site_label
 _atom_site_symmetry_multiplicity
 _atom_site_fract_x
 _atom_site_fract_y
 _atom_site_fract_z
 _atom_site_occupancy
  In  In0  1  0.01308048  0.17183096  0.11832289  1
  In  In1  1  -0.00817809  0.17918645  0.63489019  1
  In  In2  1  -0.01214153  0.50646601  0.13147536  1
  In  In3  1  -0.00189189  0.50194080  0.63046384  1
  In  In4  1  -0.01825088  0.83332934  0.12598056  1
  In  In5  1  -0.00998505  0.84170358  0.63198304  1
  In  In6  1  0.33298808  0.16703672  0.12541915  1
  In  In7  1  0.33355214  0.17951745  0.63921189  1
  In  In8  1  0.32008491  0.49486363  0.12962138  1
  In  In9  1  0.32627765  0.49610051  0.62017066  1
  In  In10  1  0.34785333  0.84286208  0.12749146  1
  In  In11  1  0.34867372  0.83082630  0.62364047  1
  In  In12  1  0.65630164  0.16502045  0.11220037  1
  In  In13  1  0.67426852  0.15417661  0.62265099  1
  In  In14  1  0.67971927  0.48685392  0.11890327  1
  In  In15  1  0.67969085  0.51231208  0.61840281  1
  In  In16  1  0.67982751  0.83224516  0.12958500  1
  In  In17  1  0.65772529  0.83346006  0.61543612  1
  In  In18  1  0.17497488  -0.00949479  0.37107679  1
  In  In19  1  0.17639682  0.01160134  0.86787980  1
  In  In20  1  0.17250537  0.33709313  0.37282964  1
  In  In21  1  0.15581483  0.32647659  0.86477752  1
  In  In22  1  0.14935410  0.66372670  0.37626043  1
  In  In23  1  0.15716435  0.67019749  0.86740234  1
  In  In24  1  0.49962573  -0.00644563  0.36748175  1
  In  In25  1  0.50274084  0.01489584  0.87144180  1
  In  In26  1  0.49610171  0.34218742  0.37740387  1
  In  In27  1  0.48870719  0.32691692  0.86671369  1
  In  In28  1  0.49918772  0.66718172  0.38330863  1
  In  In29  1  0.51774065  0.65173519  0.86605940  1
  In  In30  1  0.82070174  0.00835083  0.38495266  1
  In  In31  1  0.83677494  -0.00264187  0.88056277  1
  In  In32  1  0.84118997  0.32762214  0.38026759  1
  In  In33  1  0.84359961  0.32367417  0.88524324  1
  In  In34  1  0.83918022  0.66343625  0.38145523  1
  In  In35  1  0.83119602  0.66271496  0.87321671  1
  In  In36  1  -0.01576914  0.16981159  0.37374721  1
  In  In37  1  0.00134846  0.16722656  0.87547307  1
  In  In38  1  -0.00152080  0.49738073  0.37989116  1
  In  In39  1  -0.01234400  0.48271580  0.85772444  1
  In  In40  1  0.00014716  0.81820337  0.37478329  1
  In  In41  1  -0.01439140  0.82446493  0.86579607  1
  In  In42  1  0.33811197  0.16638852  0.36839388  1
  In  In43  1  0.33279033  0.16462071  0.87551487  1
  In  In44  1  0.33679572  0.49111968  0.38275102  1
  In  In45  1  0.34272430  0.48234407  0.86388782  1
  In  In46  1  0.33844189  0.84530020  0.37307806  1
  In  In47  1  0.32396573  0.83902894  0.86867473  1
  In  In48  1  0.67952454  0.16741405  0.37296425  1
  In  In49  1  0.66679764  0.17654019  0.89304396  1
  In  In50  1  0.66593680  0.50109744  0.38590275  1
  In  In51  1  0.66686634  0.51124864  0.86907467  1
  In  In52  1  0.65517196  0.85128759  0.39035429  1
  In  In53  1  0.68112456  0.82611506  0.87965622  1
  In  In54  1  0.16619637  0.01417286  0.12258759  1
  In  In55  1  0.16628288  0.00034553  0.63091039  1
  In  In56  1  0.17327223  0.32569920  0.13074439  1
  In  In57  1  0.15339144  0.35654142  0.64710534  1
  In  In58  1  0.15958562  0.64958586  0.12422039  1
  In  In59  1  0.16246530  0.64682330  0.62833807  1
  In  In60  1  0.48983361  0.00959877  0.13513116  1
  In  In61  1  0.50651428  -0.01014465  0.62648964  1
  In  In62  1  0.50258619  0.31798330  0.12414714  1
  In  In63  1  0.48176355  0.33894219  0.63372461  1
  In  In64  1  0.51435376  0.66671050  0.12482866  1
  In  In65  1  0.50954279  0.67527560  0.61764555  1
  In  In66  1  0.82609164  -0.00838423  0.11939369  1
  In  In67  1  0.83315839  0.01136141  0.61536547  1
  In  In68  1  0.84077902  0.34140571  0.11474328  1
  In  In69  1  0.83571365  0.34209901  0.62132555  1
  In  In70  1  0.83216878  0.67631722  0.11983130  1
  In  In71  1  0.83394868  0.66804098  0.62831332  1
  In  In72  1  0.50922470  0.49005791  -0.00351833  1
  In  In73  1  0.66840263  0.67262662  0.25043270  1
  In  In74  1  0.50487989  0.16802140  0.50509575  1
  In  In75  1  0.15589332  0.49300125  -0.01371954  1
  In  In76  1  0.00221032  0.00062677  0.24768704  1
  In  In77  1  0.15705188  0.83742672  -0.00516380  1
  In  In78  1  0.16457964  0.17232881  0.50554406  1
  In  In79  1  0.66953765  0.00049977  0.75067150  1
  In  In80  1  0.32753275  0.67008648  0.25828207  1
  In  In81  1  0.16564013  0.82664312  0.49587199  1
  In  In82  1  0.66648138  0.33045776  0.24480176  1
  In  In83  1  0.66381738  0.33545156  0.75468175  1
  In  In84  1  0.33284833  0.67048256  0.74460032  1
  In  In85  1  0.50640461  0.83803042  -0.00354676  1
  Cu  Cu86  1  0.67369744  0.66723048  0.50153465  1
  Cu  Cu87  1  0.50315995  0.83419347  0.74535790  1
  Cu  Cu88  1  0.83054960  0.82998546  0.75035373  1
  Cu  Cu89  1  0.34009632  0.00068341  0.49987210  1
  Cu  Cu90  1  -0.00126771  0.65963805  0.50511088  1
  Cu  Cu91  1  0.49046638  0.49954747  0.25380103  1
  Cu  Cu92  1  0.16753275  0.16523321  0.75316616  1
  Cu  Cu93  1  0.83828952  0.49770925  0.25375977  1
  Cu  Cu94  1  -0.00377373  0.33668847  0.50829480  1
  Cu  Cu95  1  0.33923088  0.66214572  -0.00476354  1
  Cu  Cu96  1  0.00689379  0.33393899  -0.00257045  1
  Cu  Cu97  1  0.33696699  0.66399188  0.50360369  1
  Cu  Cu98  1  0.15976690  0.84008565  0.74891205  1
  Cu  Cu99  1  -0.01521697  0.66806773  -0.00126903  1
  Cu  Cu100  1  0.49817256  0.16188348  0.24661623  1
  Cu  Cu101  1  0.83744577  0.16855170  0.75461624  1
  Cu  Cu102  1  0.83633248  0.83138570  0.25176762  1
  Cu  Cu103  1  0.33580716  0.32246938  0.00049810  1
  Cu  Cu104  1  0.16970150  0.82891621  0.25102777  1
  Cu  Cu105  1  0.33367860  0.01120112  0.00107791  1
  Cu  Cu106  1  0.83532510  0.50137870  0.74644536  1
  Cu  Cu107  1  0.66636946  0.33453226  0.50161699  1
  Cu  Cu108  1  -0.00866079  0.00257415  0.50150853  1
  Cu  Cu109  1  0.66721790  0.00116928  0.00145496  1
  Cu  Cu110  1  0.32584447  0.34023099  0.50531214  1
  Cu  Cu111  1  0.83342412  0.16623896  0.24874980  1
  Cu  Cu112  1  0.16938651  0.16936496  0.24617729  1
  Cu  Cu113  1  -0.00339101  0.00365113  -0.00350166  1
  Cu  Cu114  1  0.15489385  0.49199461  0.25090547  1
  Se  Se115  1  0.08613792  0.08341653  0.04689239  1
  Se  Se116  1  0.07349858  0.07964076  0.56153776  1
  Se  Se117  1  0.08040776  0.41454920  0.06370384  1
  Se  Se118  1  0.08266534  0.41697486  0.56118962  1
  Se  Se119  1  0.07421107  0.74143555  0.05769197  1
  Se  Se120  1  0.07870036  0.74520915  0.56370400  1
  Se  Se121  1  0.42060727  0.08740780  0.05650532  1
  Se  Se122  1  0.40822889  0.08402325  0.56479061  1
  Se  Se123  1  0.40728676  0.41253603  0.05953055  1
  Se  Se124  1  0.41874230  0.41872954  0.55310821  1
  Se  Se125  1  0.41460779  0.74163528  0.05663181  1
  Se  Se126  1  0.42134040  0.75395031  0.54785819  1
  Se  Se127  1  0.75337374  0.08471896  0.05238513  1
  Se  Se128  1  0.73981857  0.07684650  0.54523324  1
  Se  Se129  1  0.74744685  0.40671526  0.04413804  1
  Se  Se130  1  0.75294570  0.41975778  0.55047070  1
  Se  Se131  1  0.74287275  0.75115873  0.05300431  1
  Se  Se132  1  0.75353644  0.75096521  0.55705134  1
  Se  Se133  1  0.24697510  0.24678120  0.05529736  1
  Se  Se134  1  0.24858705  0.26212748  0.56794679  1
  Se  Se135  1  0.25357601  0.58203047  0.04936969  1
  Se  Se136  1  0.24727086  0.58341988  0.55148909  1
  Se  Se137  1  0.25612606  0.92013858  0.05584083  1
  Se  Se138  1  0.25388573  0.92050383  0.55616230  1
  Se  Se139  1  0.58673368  0.26151547  0.04690844  1
  Se  Se140  1  0.58922303  0.26005731  0.56757245  1
  Se  Se141  1  0.59702194  0.58583645  0.05536006  1
  Se  Se142  1  0.58529580  0.58373793  0.55049062  1
  Se  Se143  1  0.58727359  0.92406276  0.06494379  1
  Se  Se144  1  0.58803977  0.92898229  0.54928907  1
  Se  Se145  1  0.92412169  0.25060648  0.05210044  1
  Se  Se146  1  0.91324331  0.24763976  0.55630677  1
  Se  Se147  1  0.90988899  0.58137473  0.05615387  1
  Se  Se148  1  0.91351196  0.57976258  0.55966578  1
  Se  Se149  1  0.91677733  0.91644239  0.04985462  1
  Se  Se150  1  0.91408437  0.91478615  0.55476108  1
  Se  Se151  1  0.07274249  0.25665504  0.44311865  1
  Se  Se152  1  0.08827812  0.24961440  0.94425864  1
  Se  Se153  1  0.08329358  0.57885371  0.45101431  1
  Se  Se154  1  0.06671377  0.59262644  0.93684528  1
  Se  Se155  1  0.07464312  0.92552436  0.44116901  1
  Se  Se156  1  0.07293702  0.92462809  0.93113107  1
  Se  Se157  1  0.40563265  0.25546829  0.44722512  1
  Se  Se158  1  0.42051445  0.24545914  0.94436150  1
  Se  Se159  1  0.41823076  0.57898396  0.44804307  1
  Se  Se160  1  0.41605167  0.58164241  0.93557218  1
  Se  Se161  1  0.42177632  0.91853890  0.44586167  1
  Se  Se162  1  0.40661703  0.92342469  0.94090972  1
  Se  Se163  1  0.74873245  0.25184730  0.44686551  1
  Se  Se164  1  0.75689306  0.25280757  0.95653950  1
  Se  Se165  1  0.75536877  0.58089701  0.44971911  1
  Se  Se166  1  0.75055080  0.57945776  0.94230593  1
  Se  Se167  1  0.77363213  0.89566595  0.44512922  1
  Se  Se168  1  0.75014542  0.91717058  0.94891779  1
  Se  Se169  1  0.25507700  0.07976093  0.44342887  1
  Se  Se170  1  0.24532015  0.08758578  0.94744449  1
  Se  Se171  1  0.24141927  0.41937831  0.44949421  1
  Se  Se172  1  0.25908546  0.40493800  0.93882956  1
  Se  Se173  1  0.25977698  0.73965253  0.43532580  1
  Se  Se174  1  0.25414614  0.74220522  0.94092452  1
  Se  Se175  1  0.58569674  0.08346659  0.43638402  1
  Se  Se176  1  0.58043002  0.08243025  0.95019445  1
  Se  Se177  1  0.57938136  0.41555137  0.44954259  1
  Se  Se178  1  0.59100031  0.40497284  0.92954308  1
  Se  Se179  1  0.58500510  0.74822203  0.44968120  1
  Se  Se180  1  0.58947384  0.73669258  0.94308944  1
  Se  Se181  1  0.91248007  0.08965086  0.44823502  1
  Se  Se182  1  0.91365713  0.08999687  0.94570228  1
  Se  Se183  1  0.91388633  0.41720949  0.44997257  1
  Se  Se184  1  0.92511261  0.42066801  0.94567039  1
  Se  Se185  1  0.92119149  0.74803141  0.45136381  1
  Se  Se186  1  0.90744940  0.75445270  0.94353250  1
  Se  Se187  1  0.25105095  0.24973439  0.30492198  1
  Se  Se188  1  0.25280142  0.24916304  0.80478647  1
  Se  Se189  1  0.23848965  0.57257165  0.31115072  1
  Se  Se190  1  0.25017700  0.58009210  0.80939361  1
  Se  Se191  1  0.25438806  0.91575050  0.29754148  1
  Se  Se192  1  0.24936210  0.92087412  0.79735756  1
  Se  Se193  1  0.57505318  0.24475093  0.30953018  1
  Se  Se194  1  0.58243482  0.23275536  0.80929117  1
  Se  Se195  1  0.57755712  0.57645558  0.30914309  1
  Se  Se196  1  0.58493305  0.57379097  0.79001316  1
  Se  Se197  1  0.59730790  0.92090958  0.30488992  1
  Se  Se198  1  0.58180465  0.90769916  0.81312537  1
  Se  Se199  1  0.91375134  0.25382209  0.29987921  1
  Se  Se200  1  0.92049246  0.25409449  0.80595983  1
  Se  Se201  1  0.91788999  0.58230650  0.30897902  1
  Se  Se202  1  0.91735296  0.58764601  0.80067342  1
  Se  Se203  1  0.91598987  0.91419349  0.31212785  1
  Se  Se204  1  0.90920762  0.92024671  0.80240237  1
  Se  Se205  1  0.09103539  0.09115450  0.31163736  1
  Se  Se206  1  0.07917777  0.08290501  0.80350398  1
  Se  Se207  1  0.07568424  0.41028319  0.30885214  1
  Se  Se208  1  0.10008973  0.43112034  0.80013896  1
  Se  Se209  1  0.08229768  0.74694793  0.29940899  1
  Se  Se210  1  0.07840868  0.75174380  0.79773417  1
  Se  Se211  1  0.41526437  0.07916699  0.30155005  1
  Se  Se212  1  0.40299574  0.07164435  0.80582402  1
  Se  Se213  1  0.40966352  0.41321300  0.30455559  1
  Se  Se214  1  0.43712446  0.42456534  0.79373365  1
  Se  Se215  1  0.42854322  0.75689416  0.30782845  1
  Se  Se216  1  0.42586120  0.75511901  0.81040715  1
  Se  Se217  1  0.75297283  0.08106234  0.30161263  1
  Se  Se218  1  0.75213790  0.09387586  0.81448084  1
  Se  Se219  1  0.75062132  0.42075653  0.31064314  1
  Se  Se220  1  0.76385196  0.41731990  0.81151392  1
  Se  Se221  1  0.75517238  0.75593383  0.31547151  1
  Se  Se222  1  0.74715726  0.74561222  0.80210546  1
  Se  Se223  1  0.25154047  0.08216471  0.19618000  1
  Se  Se224  1  0.24981360  0.08426565  0.69686290  1
  Se  Se225  1  0.24778861  0.41324039  0.20257661  1
  Se  Se226  1  0.27126225  0.40837764  0.69862563  1
  Se  Se227  1  0.24485912  0.75142809  0.18357192  1
  Se  Se228  1  0.23950316  0.76063685  0.68490956  1
  Se  Se229  1  0.59011812  0.08830949  0.19321883  1
  Se  Se230  1  0.57606173  0.09088925  0.69429061  1
  Se  Se231  1  0.57379042  0.42652285  0.18953137  1
  Se  Se232  1  0.58902235  0.42256345  0.68380673  1
  Se  Se233  1  0.57383329  0.76481226  0.19599770  1
  Se  Se234  1  0.58755539  0.75281721  0.69295012  1
  Se  Se235  1  0.91359637  0.08790658  0.18547829  1
  Se  Se236  1  0.91047030  0.08263858  0.69412660  1
  Se  Se237  1  0.91366807  0.41128714  0.19646973  1
  Se  Se238  1  0.91679051  0.41174195  0.69770375  1
  Se  Se239  1  0.91463354  0.74398403  0.19824266  1
  Se  Se240  1  0.91833122  0.74815672  0.69893964  1
  Se  Se241  1  0.08004835  0.25053813  0.19764420  1
  Se  Se242  1  0.08177815  0.25145102  0.70369134  1
  Se  Se243  1  0.07782319  0.58308002  0.20023756  1
  Se  Se244  1  0.08460813  0.57577243  0.70292143  1
  Se  Se245  1  0.09102789  0.90786586  0.18610962  1
  Se  Se246  1  0.07585783  0.92517979  0.69775535  1
  Se  Se247  1  0.41538454  0.24987514  0.19678402  1
  Se  Se248  1  0.42638242  0.24646579  0.70727404  1
  Se  Se249  1  0.41823668  0.58315725  0.19029372  1
  Se  Se250  1  0.42116421  0.58572934  0.68242253  1
  Se  Se251  1  0.41918901  0.91713112  0.20308277  1
  Se  Se252  1  0.41664396  0.91793434  0.69731709  1
  Se  Se253  1  0.75621463  0.24387038  0.18393577  1
  Se  Se254  1  0.75459852  0.24431223  0.69245832  1
  Se  Se255  1  0.75489064  0.57513826  0.19313126  1
  Se  Se256  1  0.74967938  0.58642585  0.69857344  1
  Se  Se257  1  0.75520037  0.91806498  0.20010376  1
  Se  Se258  1  0.75508808  0.91241695  0.68742889  1
