# generated using pymatgen
data_In86Cu29Se144
_symmetry_space_group_name_H-M   'P 1'
_cell_length_a   17.57746925
_cell_length_b   17.57911934
_cell_length_c   23.42978422
_cell_angle_alpha   89.98273425
_cell_angle_beta   89.96949103
_cell_angle_gamma   89.99889732
_symmetry_Int_Tables_number   1
_chemical_formula_structural   In86Cu29Se144
_chemical_formula_sum   'In86 Cu29 Se144'
_cell_volume   7239.71831635
_cell_formula_units_Z   1
loop_
 _symmetry_equiv_pos_site_id
 _symmetry_equiv_pos_as_xyz
  1  'x, y, z'
loop_
 _atom_site_type_symbol
 _atom_site_label
 _atom_site_symmetry_multiplicity
 _atom_site_fract_x
 _atom_site_fract_y
 _atom_site_fract_z
 _atom_site_occupancy
  In  In0  1  0.01182637  0.15259002  0.13133947  1
  In  In1  1  -0.00599155  0.18543281  0.61869266  1
  In  In2  1  0.00740478  0.50035749  0.14531891  1
  In  In3  1  0.01844318  0.49803297  0.61741529  1
  In  In4  1  -0.00227233  0.84087523  0.14048207  1
  In  In5  1  -0.00126557  0.82937655  0.62081893  1
  In  In6  1  0.33728141  0.16774308  0.12750702  1
  In  In7  1  0.34838173  0.16572762  0.62377682  1
  In  In8  1  0.32202274  0.50567399  0.14650920  1
  In  In9  1  0.32395144  0.50094717  0.61853861  1
  In  In10  1  0.34451188  0.82651281  0.14393232  1
  In  In11  1  0.32961407  0.82865945  0.61271306  1
  In  In12  1  0.65382714  0.17377601  0.12822087  1
  In  In13  1  0.67121245  0.15701793  0.62521023  1
  In  In14  1  0.65567278  0.49371400  0.13096019  1
  In  In15  1  0.65404158  0.49737172  0.62021583  1
  In  In16  1  0.67317661  0.84216007  0.12636474  1
  In  In17  1  0.66733940  0.83819400  0.61018952  1
  In  In18  1  0.15492521  -0.03282968  0.34617261  1
  In  In19  1  0.17921714  0.00224830  0.88010816  1
  In  In20  1  0.18248925  0.35238258  0.35998108  1
  In  In21  1  0.16475376  0.32165782  0.88153380  1
  In  In22  1  0.16870433  0.66643261  0.36583719  1
  In  In23  1  0.14410048  0.67491415  0.87385679  1
  In  In24  1  0.50308147  -0.01186004  0.36183510  1
  In  In25  1  0.50536512  -0.00210168  0.88241649  1
  In  In26  1  0.50795941  0.33821506  0.37587807  1
  In  In27  1  0.49503040  0.32472217  0.86922500  1
  In  In28  1  0.48721942  0.67251236  0.37430896  1
  In  In29  1  0.50651989  0.67548522  0.87860570  1
  In  In30  1  0.82772098  -0.00323198  0.37841165  1
  In  In31  1  0.81847319  0.00374631  0.87678287  1
  In  In32  1  0.82510864  0.32096199  0.37340199  1
  In  In33  1  0.82792359  0.34355133  0.86991042  1
  In  In34  1  0.84851657  0.67192312  0.37606164  1
  In  In35  1  0.84539542  0.66685177  0.87281972  1
  In  In36  1  -0.00823437  0.15633217  0.36812969  1
  In  In37  1  0.00788147  0.17354383  0.88067888  1
  In  In38  1  0.01791862  0.51549322  0.35701353  1
  In  In39  1  -0.00957406  0.50999904  0.87229098  1
  In  In40  1  0.00106089  0.83448978  0.37537679  1
  In  In41  1  -0.00141699  0.81444201  0.87228136  1
  In  In42  1  0.33004702  0.16151141  0.36896413  1
  In  In43  1  0.33244423  0.17219515  0.88502261  1
  In  In44  1  0.33124193  0.50334281  0.37452830  1
  In  In45  1  0.34798319  0.49970891  0.87596042  1
  In  In46  1  0.33604483  0.82673888  0.36031085  1
  In  In47  1  0.33474236  0.84332386  0.87756325  1
  In  In48  1  0.67441507  0.16932863  0.37679623  1
  In  In49  1  0.66119548  0.15639824  0.86758805  1
  In  In50  1  0.66203165  0.47363196  0.38363482  1
  In  In51  1  0.68218298  0.49158267  0.86758731  1
  In  In52  1  0.65173060  0.85139617  0.38948568  1
  In  In53  1  0.66024589  0.84794400  0.88099335  1
  In  In54  1  0.15958371  -0.00002198  0.13696114  1
  In  In55  1  0.17374163  -0.00436164  0.61581237  1
  In  In56  1  0.18126523  0.31975483  0.14357438  1
  In  In57  1  0.16229050  0.34633294  0.62194812  1
  In  In58  1  0.15792201  0.68349399  0.15679507  1
  In  In59  1  0.16335025  0.66657299  0.62029198  1
  In  In60  1  0.49937319  -0.00011421  0.13171641  1
  In  In61  1  0.50867112  0.00453869  0.61592921  1
  In  In62  1  0.50613197  0.32693716  0.13271859  1
  In  In63  1  0.48941457  0.33799587  0.62774688  1
  In  In64  1  0.48822315  0.67262919  0.13070958  1
  In  In65  1  0.49943326  0.66876675  0.61032222  1
  In  In66  1  0.84340908  -0.01242951  0.13166480  1
  In  In67  1  0.81417867  -0.01331264  0.60393772  1
  In  In68  1  0.82967102  0.33349629  0.13368235  1
  In  In69  1  0.83155775  0.31981217  0.61492407  1
  In  In70  1  0.83151697  0.68404687  0.12683174  1
  In  In71  1  0.83161480  0.68331348  0.62204744  1
  In  In72  1  0.33851120  -0.00109183  0.75546783  1
  In  In73  1  0.49927241  0.50235871  0.00832219  1
  In  In74  1  -0.00471350  0.33883365  0.74954869  1
  In  In75  1  0.83582122  0.50435037  -0.00502986  1
  In  In76  1  0.84090934  0.50155580  0.49552031  1
  In  In77  1  -0.00543038  -0.00152292  0.74192825  1
  In  In78  1  0.83406744  0.16110080  -0.00073934  1
  In  In79  1  0.17443919  0.49731187  0.01894633  1
  In  In80  1  0.50135699  0.16297378  0.49134476  1
  In  In81  1  0.66761157  0.66636029  0.25512681  1
  In  In82  1  0.32774793  0.66140585  0.74328352  1
  In  In83  1  0.16895772  0.83950586  0.01103061  1
  In  In84  1  0.16458749  0.16297698  0.48965750  1
  In  In85  1  0.66949350  0.66455651  0.74649100  1
  Cu  Cu86  1  0.82843433  0.49597349  0.25845774  1
  Cu  Cu87  1  0.33968254  0.00491234  0.00709973  1
  Cu  Cu88  1  0.83003056  0.16203619  0.24764352  1
  Cu  Cu89  1  0.01244487  0.67145003  0.49376069  1
  Cu  Cu90  1  0.33063179  0.66747632  0.48962767  1
  Cu  Cu91  1  0.83436092  0.83421096  0.25631829  1
  Cu  Cu92  1  0.32723851  0.67967700  0.01158705  1
  Cu  Cu93  1  0.00382022  -0.00977991  0.00875639  1
  Cu  Cu94  1  0.32881040  -0.01386945  0.48224090  1
  Cu  Cu95  1  0.17223547  0.50069532  0.74623225  1
  Cu  Cu96  1  0.32430195  0.33677921  0.50045382  1
  Cu  Cu97  1  0.66165759  0.33241463  -0.00094492  1
  Cu  Cu98  1  0.33681396  0.33122287  0.00823194  1
  Cu  Cu99  1  0.66536534  0.66459509  0.49436518  1
  Cu  Cu100  1  0.50343612  0.17024661  0.25002198  1
  Cu  Cu101  1  0.82765717  0.16275416  0.74400420  1
  Cu  Cu102  1  0.50263918  0.49120447  0.25638650  1
  Cu  Cu103  1  0.82703507  0.83962869  0.74458602  1
  Cu  Cu104  1  0.17397275  0.16618602  0.75508957  1
  Cu  Cu105  1  0.16262074  0.17190165  0.25274701  1
  Cu  Cu106  1  0.00818482  0.32337231  0.00703615  1
  Cu  Cu107  1  0.50693799  0.17247100  0.74651065  1
  Cu  Cu108  1  0.66311473  0.00213593  0.00485371  1
  Cu  Cu109  1  0.50142227  0.49034482  0.74827331  1
  Cu  Cu110  1  -0.00070787  -0.00001245  0.49061689  1
  Cu  Cu111  1  0.66585832  0.68481408  0.00067552  1
  Cu  Cu112  1  0.00324855  0.33589190  0.48564869  1
  Cu  Cu113  1  0.50141002  0.83719676  0.74777990  1
  Cu  Cu114  1  -0.00268298  0.66800799  0.00569329  1
  Se  Se115  1  0.08883976  0.07550834  0.05621033  1
  Se  Se116  1  0.07297941  0.08048744  0.55762091  1
  Se  Se117  1  0.07819468  0.40649587  0.07111686  1
  Se  Se118  1  0.08705914  0.41456459  0.54195318  1
  Se  Se119  1  0.08053385  0.74303139  0.06704949  1
  Se  Se120  1  0.08970582  0.75681198  0.55136428  1
  Se  Se121  1  0.42449502  0.08797740  0.05930594  1
  Se  Se122  1  0.40122300  0.07052179  0.54621394  1
  Se  Se123  1  0.40618346  0.41888319  0.07022339  1
  Se  Se124  1  0.41109224  0.41660983  0.55428276  1
  Se  Se125  1  0.41674454  0.76124065  0.05951979  1
  Se  Se126  1  0.41465433  0.75052787  0.54450756  1
  Se  Se127  1  0.74767963  0.07799016  0.06579699  1
  Se  Se128  1  0.75190751  0.09361902  0.54613150  1
  Se  Se129  1  0.74317072  0.41394323  0.05655061  1
  Se  Se130  1  0.74643180  0.41431066  0.55333974  1
  Se  Se131  1  0.75451220  0.76130179  0.05327394  1
  Se  Se132  1  0.74950716  0.74861780  0.54556911  1
  Se  Se133  1  0.24872445  0.25131036  0.05967133  1
  Se  Se134  1  0.25138826  0.24852435  0.55944787  1
  Se  Se135  1  0.24996074  0.60328775  0.07500139  1
  Se  Se136  1  0.24926025  0.58917564  0.55057998  1
  Se  Se137  1  0.26227543  0.92422674  0.06949156  1
  Se  Se138  1  0.24637322  0.91135840  0.54419542  1
  Se  Se139  1  0.57743846  0.25240152  0.05273379  1
  Se  Se140  1  0.57724726  0.24690078  0.56367351  1
  Se  Se141  1  0.59377473  0.59809044  0.06176894  1
  Se  Se142  1  0.58222988  0.58052226  0.54668818  1
  Se  Se143  1  0.58149094  0.91814746  0.05929821  1
  Se  Se144  1  0.56928537  0.90842863  0.54811028  1
  Se  Se145  1  0.91880500  0.24992232  0.06400846  1
  Se  Se146  1  0.91941873  0.25406099  0.53965494  1
  Se  Se147  1  0.92115945  0.58402377  0.06661611  1
  Se  Se148  1  0.92844570  0.59456658  0.55702272  1
  Se  Se149  1  0.92067832  0.90592059  0.05847316  1
  Se  Se150  1  0.92281913  0.91722093  0.55122640  1
  Se  Se151  1  0.08363526  0.25456507  0.42685420  1
  Se  Se152  1  0.09257356  0.23925975  0.95633457  1
  Se  Se153  1  0.08819276  0.58326521  0.43942571  1
  Se  Se154  1  0.07845326  0.58162545  0.95083365  1
  Se  Se155  1  0.08916294  0.92131165  0.43999922  1
  Se  Se156  1  0.07877876  0.91579672  0.93860466  1
  Se  Se157  1  0.40263174  0.25565909  0.44068632  1
  Se  Se158  1  0.42106420  0.25495992  0.94984256  1
  Se  Se159  1  0.41860602  0.57982911  0.44501363  1
  Se  Se160  1  0.40802141  0.59968480  0.95006888  1
  Se  Se161  1  0.41922992  0.90879145  0.43218998  1
  Se  Se162  1  0.41548348  0.91814675  0.94905419  1
  Se  Se163  1  0.74013827  0.25833560  0.45012197  1
  Se  Se164  1  0.74643245  0.25587209  0.93963020  1
  Se  Se165  1  0.74556130  0.58612557  0.43366178  1
  Se  Se166  1  0.73876799  0.59654544  0.94034795  1
  Se  Se167  1  0.76154198  0.90415159  0.45011577  1
  Se  Se168  1  0.75008035  0.92032403  0.95208950  1
  Se  Se169  1  0.24260227  0.06625606  0.42806880  1
  Se  Se170  1  0.25289574  0.08357129  0.95223202  1
  Se  Se171  1  0.24498796  0.42154217  0.44550283  1
  Se  Se172  1  0.25954340  0.41459685  0.94599897  1
  Se  Se173  1  0.25168740  0.75196920  0.43419405  1
  Se  Se174  1  0.24814578  0.74583068  0.94131638  1
  Se  Se175  1  0.58924482  0.06901709  0.43662509  1
  Se  Se176  1  0.58619398  0.08792587  0.94791453  1
  Se  Se177  1  0.57532889  0.40973037  0.45774023  1
  Se  Se178  1  0.58716372  0.41918404  0.93919115  1
  Se  Se179  1  0.57797090  0.74603068  0.44365226  1
  Se  Se180  1  0.57666241  0.76243430  0.94881114  1
  Se  Se181  1  0.91274306  0.08517709  0.44527588  1
  Se  Se182  1  0.92964457  0.06943633  0.94108134  1
  Se  Se183  1  0.92352734  0.41780920  0.42752064  1
  Se  Se184  1  0.93028635  0.40383251  0.94411797  1
  Se  Se185  1  0.92108820  0.75411923  0.44958540  1
  Se  Se186  1  0.91537001  0.74900256  0.94955210  1
  Se  Se187  1  0.25501679  0.25073904  0.30053907  1
  Se  Se188  1  0.25260147  0.25084023  0.81010370  1
  Se  Se189  1  0.24717584  0.57445881  0.30069300  1
  Se  Se190  1  0.24332453  0.57851527  0.81589510  1
  Se  Se191  1  0.28222908  0.93748283  0.29402675  1
  Se  Se192  1  0.23796315  0.90609756  0.80510707  1
  Se  Se193  1  0.58494351  0.24868005  0.30912521  1
  Se  Se194  1  0.59002404  0.25385186  0.80274537  1
  Se  Se195  1  0.58295787  0.57286505  0.31675453  1
  Se  Se196  1  0.57549337  0.57559243  0.80964318  1
  Se  Se197  1  0.59798042  0.91161639  0.29833048  1
  Se  Se198  1  0.57980206  0.91992368  0.80481375  1
  Se  Se199  1  0.91147959  0.24597482  0.30229106  1
  Se  Se200  1  0.90953313  0.23829053  0.80795942  1
  Se  Se201  1  0.91319426  0.58789584  0.29945929  1
  Se  Se202  1  0.90666769  0.57728651  0.79948664  1
  Se  Se203  1  0.91616999  0.92018525  0.30823778  1
  Se  Se204  1  0.90790602  0.91273162  0.81005027  1
  Se  Se205  1  0.08153169  0.08018970  0.29950983  1
  Se  Se206  1  0.08804628  0.08577826  0.80827924  1
  Se  Se207  1  0.06657203  0.39883808  0.30171298  1
  Se  Se208  1  0.09221996  0.42292693  0.81283887  1
  Se  Se209  1  0.08089246  0.75385805  0.30432458  1
  Se  Se210  1  0.07622982  0.74724673  0.79446148  1
  Se  Se211  1  0.42286432  0.08667808  0.30420316  1
  Se  Se212  1  0.42619972  0.09403392  0.81162924  1
  Se  Se213  1  0.41542339  0.41251282  0.30937991  1
  Se  Se214  1  0.41341926  0.41296019  0.80244328  1
  Se  Se215  1  0.41728836  0.73974749  0.29249193  1
  Se  Se216  1  0.41954048  0.75505543  0.80516509  1
  Se  Se217  1  0.74961873  0.08202560  0.30646009  1
  Se  Se218  1  0.74714837  0.07792603  0.79826632  1
  Se  Se219  1  0.74436003  0.40981593  0.30534171  1
  Se  Se220  1  0.76277171  0.42272985  0.79308738  1
  Se  Se221  1  0.75196085  0.75665458  0.31680432  1
  Se  Se222  1  0.75079595  0.75928532  0.81040356  1
  Se  Se223  1  0.24507652  0.09253728  0.19526211  1
  Se  Se224  1  0.24714217  0.08743538  0.69082384  1
  Se  Se225  1  0.23539134  0.42420825  0.20912962  1
  Se  Se226  1  0.25202754  0.41549703  0.69346144  1
  Se  Se227  1  0.26152110  0.75037644  0.21478156  1
  Se  Se228  1  0.24325352  0.75998343  0.69029145  1
  Se  Se229  1  0.58656841  0.08264585  0.19935067  1
  Se  Se230  1  0.58010423  0.08089192  0.69361770  1
  Se  Se231  1  0.58762541  0.40875907  0.20411653  1
  Se  Se232  1  0.58645432  0.41042699  0.69460078  1
  Se  Se233  1  0.58228620  0.75567908  0.19286168  1
  Se  Se234  1  0.57674141  0.75297459  0.68713897  1
  Se  Se235  1  0.91869425  0.07911269  0.19781394  1
  Se  Se236  1  0.91095795  0.09136569  0.68092780  1
  Se  Se237  1  0.91216340  0.41503754  0.20159407  1
  Se  Se238  1  0.91596679  0.41921531  0.67765664  1
  Se  Se239  1  0.91560334  0.74849753  0.20304015  1
  Se  Se240  1  0.91420876  0.75667893  0.69558792  1
  Se  Se241  1  0.07326642  0.25108881  0.19981758  1
  Se  Se242  1  0.09213469  0.24630247  0.69414251  1
  Se  Se243  1  0.08514177  0.58245717  0.21415528  1
  Se  Se244  1  0.08782348  0.58144185  0.69328529  1
  Se  Se245  1  0.09529630  0.90562027  0.20656879  1
  Se  Se246  1  0.09364539  0.91366588  0.68859062  1
  Se  Se247  1  0.41517842  0.25257943  0.19978652  1
  Se  Se248  1  0.41284364  0.25002492  0.69918569  1
  Se  Se249  1  0.42615059  0.57937566  0.20192733  1
  Se  Se250  1  0.42730251  0.57736818  0.68798958  1
  Se  Se251  1  0.40359228  0.93668231  0.20445579  1
  Se  Se252  1  0.41884759  0.91198501  0.68565130  1
  Se  Se253  1  0.74505521  0.24796827  0.19678751  1
  Se  Se254  1  0.74901431  0.25057450  0.69138646  1
  Se  Se255  1  0.75630354  0.57648245  0.18989711  1
  Se  Se256  1  0.75515936  0.57886271  0.68144082  1
  Se  Se257  1  0.75206921  0.91705904  0.20184720  1
  Se  Se258  1  0.74466408  0.91572126  0.68618936  1
