# generated using pymatgen
data_In86Cu29Se144
_symmetry_space_group_name_H-M   'P 1'
_cell_length_a   17.58693062
_cell_length_b   17.58436133
_cell_length_c   23.45411074
_cell_angle_alpha   89.97269535
_cell_angle_beta   89.99069002
_cell_angle_gamma   90.02112321
_symmetry_Int_Tables_number   1
_chemical_formula_structural   In86Cu29Se144
_chemical_formula_sum   'In86 Cu29 Se144'
_cell_volume   7253.29826218
_cell_formula_units_Z   1
loop_
 _symmetry_equiv_pos_site_id
 _symmetry_equiv_pos_as_xyz
  1  'x, y, z'
loop_
 _atom_site_type_symbol
 _atom_site_label
 _atom_site_symmetry_multiplicity
 _atom_site_fract_x
 _atom_site_fract_y
 _atom_site_fract_z
 _atom_site_occupancy
  In  In0  1  0.01828130  0.16298553  0.12697822  1
  In  In1  1  -0.00495460  0.15493027  0.62763972  1
  In  In2  1  -0.01134502  0.51183312  0.13823878  1
  In  In3  1  -0.00297186  0.49803473  0.61566221  1
  In  In4  1  -0.01173900  0.82498977  0.11857976  1
  In  In5  1  -0.00565391  0.84715468  0.62387245  1
  In  In6  1  0.32530099  0.15761258  0.11576056  1
  In  In7  1  0.34378701  0.15644805  0.63557202  1
  In  In8  1  0.34229069  0.49423004  0.12295840  1
  In  In9  1  0.33689168  0.50284939  0.62647188  1
  In  In10  1  0.34463648  0.84585851  0.11878857  1
  In  In11  1  0.35768382  0.81439947  0.64750495  1
  In  In12  1  0.64814174  0.16393669  0.11837688  1
  In  In13  1  0.67924238  0.17267381  0.63075704  1
  In  In14  1  0.66595167  0.52149991  0.12131216  1
  In  In15  1  0.66636342  0.50818608  0.62794454  1
  In  In16  1  0.66923688  0.83036633  0.12308284  1
  In  In17  1  0.65773919  0.82305325  0.62118477  1
  In  In18  1  0.17653311  -0.02023824  0.37005098  1
  In  In19  1  0.16894065  -0.00230304  0.87726379  1
  In  In20  1  0.16864035  0.34862667  0.37807396  1
  In  In21  1  0.17107870  0.31899476  0.87792780  1
  In  In22  1  0.15526092  0.67105014  0.37434453  1
  In  In23  1  0.18310045  0.66735635  0.87546348  1
  In  In24  1  0.48749709  -0.01991135  0.35901718  1
  In  In25  1  0.49191655  0.00567712  0.88135949  1
  In  In26  1  0.51042913  0.34097096  0.37669562  1
  In  In27  1  0.49805160  0.33586454  0.86880005  1
  In  In28  1  0.50327052  0.66536921  0.37764432  1
  In  In29  1  0.49880570  0.67107310  0.87944287  1
  In  In30  1  0.81828225  0.00239353  0.37617041  1
  In  In31  1  0.83030865  -0.02997870  0.86729201  1
  In  In32  1  0.84446630  0.32962600  0.37535159  1
  In  In33  1  0.82713865  0.34798341  0.86758533  1
  In  In34  1  0.83206504  0.66831223  0.37931885  1
  In  In35  1  0.82182375  0.68138808  0.86881339  1
  In  In36  1  -0.01272575  0.16786877  0.37083844  1
  In  In37  1  0.01982111  0.16164084  0.88179765  1
  In  In38  1  -0.00209216  0.50219204  0.37969566  1
  In  In39  1  -0.00532530  0.50675350  0.87352160  1
  In  In40  1  0.00713515  0.82032671  0.37543114  1
  In  In41  1  -0.01162721  0.84431248  0.88068296  1
  In  In42  1  0.34136131  0.15379383  0.37421022  1
  In  In43  1  0.33318372  0.16540516  0.87301662  1
  In  In44  1  0.33508921  0.50524571  0.38495906  1
  In  In45  1  0.35479113  0.52367624  0.85712698  1
  In  In46  1  0.33027778  0.83967287  0.36838449  1
  In  In47  1  0.33473656  0.83125782  0.87944302  1
  In  In48  1  0.67468063  0.15970383  0.37248976  1
  In  In49  1  0.65044255  0.16347616  0.87587776  1
  In  In50  1  0.65656907  0.51469737  0.38589652  1
  In  In51  1  0.66233778  0.49704194  0.86335234  1
  In  In52  1  0.66591202  0.83232874  0.37677867  1
  In  In53  1  0.66107114  0.82326236  0.88047972  1
  In  In54  1  0.17256284  0.00379680  0.11852552  1
  In  In55  1  0.17097377  -0.00605663  0.63030303  1
  In  In56  1  0.17043467  0.32556878  0.12500779  1
  In  In57  1  0.16694488  0.34702412  0.62306402  1
  In  In58  1  0.15275372  0.67055592  0.12709990  1
  In  In59  1  0.17975206  0.66699869  0.62584703  1
  In  In60  1  0.49795892  -0.00590464  0.12450437  1
  In  In61  1  0.50237044  -0.02008480  0.62897862  1
  In  In62  1  0.49962484  0.33459591  0.11253199  1
  In  In63  1  0.48912292  0.34397114  0.63448650  1
  In  In64  1  0.53627053  0.69359013  0.09137832  1
  In  In65  1  0.50871060  0.66943615  0.62740317  1
  In  In66  1  0.83396974  -0.02300725  0.12413157  1
  In  In67  1  0.84436225  -0.00289257  0.62653509  1
  In  In68  1  0.83267177  0.35050208  0.13012631  1
  In  In69  1  0.82085562  0.34140739  0.63337574  1
  In  In70  1  0.81572594  0.68379001  0.14043578  1
  In  In71  1  0.82099723  0.65927498  0.62178643  1
  In  In72  1  0.34138884  0.67111073  0.24318536  1
  In  In73  1  0.00308663  0.32694853  0.74588426  1
  In  In74  1  0.16958863  0.82923367  0.49826876  1
  In  In75  1  -0.00319020  0.67240922  0.74944027  1
  In  In76  1  0.16592318  0.16693500  0.51033565  1
  In  In77  1  0.82973805  0.50844463  -0.00632064  1
  In  In78  1  0.50454807  0.16942526  0.49847658  1
  In  In79  1  0.66767442  0.33086122  0.25249057  1
  In  In80  1  0.66187301  -0.00326344  0.75459977  1
  In  In81  1  0.83348039  0.16612171  0.50041203  1
  In  In82  1  0.32914934  0.33022823  0.24773144  1
  In  In83  1  -0.00008582  -0.00443571  0.24777043  1
  In  In84  1  0.17444813  0.49265897  0.00087018  1
  In  In85  1  0.83662658  0.16378113  -0.00115354  1
  Cu  Cu86  1  0.15686790  0.50670641  0.25638917  1
  Cu  Cu87  1  0.17295329  0.15884447  0.75536669  1
  Cu  Cu88  1  0.50396972  0.50408634  0.24873203  1
  Cu  Cu89  1  0.16265865  0.16749717  0.24590496  1
  Cu  Cu90  1  -0.00218030  0.66405641  0.49861822  1
  Cu  Cu91  1  0.49445017  0.15358561  0.24401200  1
  Cu  Cu92  1  0.66155492  -0.01097297  0.49785258  1
  Cu  Cu93  1  0.66485001  -0.00509166  -0.00302381  1
  Cu  Cu94  1  0.83789940  0.16499775  0.75237755  1
  Cu  Cu95  1  0.33434287  0.66853686  -0.00383445  1
  Cu  Cu96  1  0.33432349  -0.01257305  0.50033057  1
  Cu  Cu97  1  0.00277931  -0.00345544  0.00099075  1
  Cu  Cu98  1  -0.00080821  0.33566976  0.49978768  1
  Cu  Cu99  1  0.65904994  0.33598739  -0.00779204  1
  Cu  Cu100  1  0.83005325  0.82707401  0.25268700  1
  Cu  Cu101  1  0.33560163  0.33254025  -0.00920834  1
  Cu  Cu102  1  0.34239014  0.66339898  0.50789807  1
  Cu  Cu103  1  0.00496200  0.33075350  0.00715994  1
  Cu  Cu104  1  -0.00214323  0.67052732  -0.00013630  1
  Cu  Cu105  1  0.50314028  0.50526599  0.74759607  1
  Cu  Cu106  1  0.83278065  0.16629005  0.24890432  1
  Cu  Cu107  1  0.33320080  0.00231627  -0.00282820  1
  Cu  Cu108  1  0.83595465  0.50282053  0.25845951  1
  Cu  Cu109  1  0.66568241  0.34630072  0.50656455  1
  Cu  Cu110  1  0.50140266  0.17050997  0.75500272  1
  Cu  Cu111  1  0.33494692  0.34189332  0.50451848  1
  Cu  Cu112  1  0.66697938  0.66801262  0.50125904  1
  Cu  Cu113  1  0.16884096  0.49473847  0.74796897  1
  Cu  Cu114  1  0.16771096  0.83803396  0.75448238  1
  Se  Se115  1  0.08564043  0.08475185  0.04946347  1
  Se  Se116  1  0.07489741  0.06773394  0.55751983  1
  Se  Se117  1  0.07418060  0.42028586  0.06666100  1
  Se  Se118  1  0.08616530  0.41931109  0.54896081  1
  Se  Se119  1  0.08354207  0.75245976  0.05103388  1
  Se  Se120  1  0.07726112  0.74285580  0.56186569  1
  Se  Se121  1  0.41957726  0.08155144  0.05342490  1
  Se  Se122  1  0.41521407  0.07446034  0.55579671  1
  Se  Se123  1  0.41456366  0.41730781  0.04620603  1
  Se  Se124  1  0.42198964  0.42237174  0.55556527  1
  Se  Se125  1  0.41571413  0.75494587  0.04762221  1
  Se  Se126  1  0.41990248  0.75291042  0.55916813  1
  Se  Se127  1  0.74662882  0.07410523  0.05924924  1
  Se  Se128  1  0.73863292  0.07474041  0.55722910  1
  Se  Se129  1  0.74035904  0.41302808  0.05461218  1
  Se  Se130  1  0.75335773  0.42457289  0.55848318  1
  Se  Se131  1  0.75341398  0.74658725  0.05530949  1
  Se  Se132  1  0.75095699  0.75257117  0.55253808  1
  Se  Se133  1  0.25287449  0.25552925  0.05103984  1
  Se  Se134  1  0.26497817  0.25378486  0.56426646  1
  Se  Se135  1  0.25572001  0.59082364  0.06116591  1
  Se  Se136  1  0.25143783  0.58136400  0.55420752  1
  Se  Se137  1  0.25064546  0.91734852  0.05031573  1
  Se  Se138  1  0.26068700  0.90859619  0.56448996  1
  Se  Se139  1  0.57931111  0.24869334  0.04448195  1
  Se  Se140  1  0.58982909  0.25783791  0.56369319  1
  Se  Se141  1  0.56652544  0.56162785  0.04846562  1
  Se  Se142  1  0.58334382  0.58459252  0.55490116  1
  Se  Se143  1  0.58404047  0.91489446  0.05553478  1
  Se  Se144  1  0.57629618  0.90852308  0.55068786  1
  Se  Se145  1  0.91871270  0.25603764  0.06537696  1
  Se  Se146  1  0.92120724  0.25839137  0.56398515  1
  Se  Se147  1  0.91645943  0.59278742  0.06022243  1
  Se  Se148  1  0.91243232  0.58399169  0.55301931  1
  Se  Se149  1  0.91381545  0.91137276  0.04636386  1
  Se  Se150  1  0.91226527  0.91862378  0.55003417  1
  Se  Se151  1  0.07731961  0.25097105  0.44174295  1
  Se  Se152  1  0.08914302  0.24970804  0.95430332  1
  Se  Se153  1  0.08604445  0.58405067  0.44691831  1
  Se  Se154  1  0.08023712  0.58685547  0.94375667  1
  Se  Se155  1  0.07835188  0.92333729  0.44258049  1
  Se  Se156  1  0.08529416  0.91367359  0.94620748  1
  Se  Se157  1  0.40760547  0.26001339  0.43999306  1
  Se  Se158  1  0.42002105  0.24909663  0.93914703  1
  Se  Se159  1  0.42447255  0.58241906  0.44991841  1
  Se  Se160  1  0.41617649  0.58026917  0.94700330  1
  Se  Se161  1  0.41681993  0.91084724  0.44157408  1
  Se  Se162  1  0.41710296  0.91486542  0.94894915  1
  Se  Se163  1  0.73860832  0.26050747  0.44429653  1
  Se  Se164  1  0.74787089  0.25721130  0.93840464  1
  Se  Se165  1  0.75366457  0.58316653  0.45087175  1
  Se  Se166  1  0.73597323  0.59257930  0.93662397  1
  Se  Se167  1  0.75307206  0.91193594  0.44788825  1
  Se  Se168  1  0.74780708  0.91011807  0.94624448  1
  Se  Se169  1  0.25320366  0.07363712  0.44558153  1
  Se  Se170  1  0.24937703  0.08664147  0.94440776  1
  Se  Se171  1  0.24930012  0.42214753  0.45119566  1
  Se  Se172  1  0.26201989  0.41874344  0.92985072  1
  Se  Se173  1  0.26311127  0.73806129  0.44043252  1
  Se  Se174  1  0.24575946  0.75334205  0.95096743  1
  Se  Se175  1  0.58606237  0.07478361  0.43753185  1
  Se  Se176  1  0.58044905  0.08335292  0.95105943  1
  Se  Se177  1  0.57782266  0.42270412  0.45187218  1
  Se  Se178  1  0.58093606  0.42063902  0.93709496  1
  Se  Se179  1  0.58323382  0.75015480  0.44671952  1
  Se  Se180  1  0.57772806  0.74953651  0.95327092  1
  Se  Se181  1  0.92320020  0.07373059  0.44289087  1
  Se  Se182  1  0.91957811  0.07154290  0.93672685  1
  Se  Se183  1  0.91283534  0.41667334  0.44760514  1
  Se  Se184  1  0.92570808  0.40775706  0.94445799  1
  Se  Se185  1  0.91848001  0.75181885  0.44697729  1
  Se  Se186  1  0.91314139  0.74594589  0.94181863  1
  Se  Se187  1  0.24210991  0.24129221  0.31349881  1
  Se  Se188  1  0.25233060  0.25102333  0.80194366  1
  Se  Se189  1  0.25097317  0.58125155  0.30889981  1
  Se  Se190  1  0.24741743  0.58623102  0.79688114  1
  Se  Se191  1  0.25084062  0.91094427  0.29311478  1
  Se  Se192  1  0.25378397  0.91671049  0.80897984  1
  Se  Se193  1  0.57054690  0.23633083  0.30671771  1
  Se  Se194  1  0.58893344  0.25395026  0.80237547  1
  Se  Se195  1  0.58491635  0.58476772  0.30516406  1
  Se  Se196  1  0.57914188  0.59126571  0.80456631  1
  Se  Se197  1  0.60529048  0.93181346  0.30759678  1
  Se  Se198  1  0.57030639  0.91130962  0.81408675  1
  Se  Se199  1  0.91652245  0.25200959  0.29755984  1
  Se  Se200  1  0.91769755  0.24285984  0.81587264  1
  Se  Se201  1  0.91904325  0.58759815  0.31019326  1
  Se  Se202  1  0.90372739  0.57964008  0.80583418  1
  Se  Se203  1  0.90944538  0.91135119  0.31207167  1
  Se  Se204  1  0.92168682  0.90941001  0.79562124  1
  Se  Se205  1  0.08931584  0.08593014  0.31101995  1
  Se  Se206  1  0.08423602  0.07876228  0.80510088  1
  Se  Se207  1  0.07914175  0.41708440  0.30816589  1
  Se  Se208  1  0.08806437  0.42033950  0.81092813  1
  Se  Se209  1  0.09971208  0.76493030  0.30204648  1
  Se  Se210  1  0.08823307  0.75440840  0.81406091  1
  Se  Se211  1  0.40721548  0.07463606  0.29689486  1
  Se  Se212  1  0.41848130  0.08372616  0.80446060  1
  Se  Se213  1  0.42130978  0.42303295  0.30635889  1
  Se  Se214  1  0.41722954  0.41720776  0.79674934  1
  Se  Se215  1  0.42923811  0.75796982  0.30631855  1
  Se  Se216  1  0.39535847  0.72991504  0.81315053  1
  Se  Se217  1  0.74869099  0.08112037  0.29761171  1
  Se  Se218  1  0.75641667  0.08714583  0.81486486  1
  Se  Se219  1  0.75099751  0.42202555  0.31618615  1
  Se  Se220  1  0.75325092  0.42416984  0.79445459  1
  Se  Se221  1  0.74703414  0.74515708  0.30809796  1
  Se  Se222  1  0.74369825  0.76326339  0.80034741  1
  Se  Se223  1  0.24728786  0.08609101  0.19317558  1
  Se  Se224  1  0.25359557  0.07602998  0.69866632  1
  Se  Se225  1  0.23875946  0.42985198  0.19388250  1
  Se  Se226  1  0.25452962  0.41448242  0.69501398  1
  Se  Se227  1  0.24943820  0.75697976  0.18374180  1
  Se  Se228  1  0.24622015  0.74924049  0.70194855  1
  Se  Se229  1  0.58565876  0.07781191  0.19338838  1
  Se  Se230  1  0.57732113  0.09102614  0.68932315  1
  Se  Se231  1  0.57990469  0.41799699  0.18866154  1
  Se  Se232  1  0.58600576  0.41853982  0.69614215  1
  Se  Se233  1  0.58808239  0.73882245  0.18687114  1
  Se  Se234  1  0.57239957  0.76370736  0.69840944  1
  Se  Se235  1  0.91033659  0.08646696  0.18515917  1
  Se  Se236  1  0.91839322  0.07836146  0.70194235  1
  Se  Se237  1  0.91668310  0.41718848  0.20504759  1
  Se  Se238  1  0.91534354  0.42688602  0.69581903  1
  Se  Se239  1  0.92105422  0.74990003  0.20064563  1
  Se  Se240  1  0.90825359  0.75541819  0.68621487  1
  Se  Se241  1  0.08201266  0.25720143  0.19825021  1
  Se  Se242  1  0.09750909  0.23687989  0.68750925  1
  Se  Se243  1  0.07779161  0.59265989  0.20274587  1
  Se  Se244  1  0.08586698  0.57603483  0.69026136  1
  Se  Se245  1  0.08398611  0.91194166  0.18205739  1
  Se  Se246  1  0.08319218  0.91431396  0.69702297  1
  Se  Se247  1  0.42161439  0.24514881  0.18675441  1
  Se  Se248  1  0.41538405  0.25097483  0.70076334  1
  Se  Se249  1  0.43040028  0.58183036  0.18383216  1
  Se  Se250  1  0.41849364  0.58746720  0.69375327  1
  Se  Se251  1  0.41871167  0.91542633  0.19726201  1
  Se  Se252  1  0.40624305  0.93162548  0.70224262  1
  Se  Se253  1  0.75202666  0.24242423  0.18509700  1
  Se  Se254  1  0.75286993  0.25156386  0.70562379  1
  Se  Se255  1  0.74960568  0.57857002  0.20121811  1
  Se  Se256  1  0.73916463  0.59531889  0.69931882  1
  Se  Se257  1  0.74894075  0.91168659  0.19853923  1
  Se  Se258  1  0.74781283  0.91534044  0.68721688  1
