# generated using pymatgen
data_In86Cu29Se144
_symmetry_space_group_name_H-M   'P 1'
_cell_length_a   17.57678682
_cell_length_b   17.57756643
_cell_length_c   23.43642636
_cell_angle_alpha   89.98031527
_cell_angle_beta   89.97811029
_cell_angle_gamma   90.00978450
_symmetry_Int_Tables_number   1
_chemical_formula_structural   In86Cu29Se144
_chemical_formula_sum   'In86 Cu29 Se144'
_cell_volume   7240.85015240
_cell_formula_units_Z   1
loop_
 _symmetry_equiv_pos_site_id
 _symmetry_equiv_pos_as_xyz
  1  'x, y, z'
loop_
 _atom_site_type_symbol
 _atom_site_label
 _atom_site_symmetry_multiplicity
 _atom_site_fract_x
 _atom_site_fract_y
 _atom_site_fract_z
 _atom_site_occupancy
  In  In0  1  0.00386562  0.17365361  0.12808842  1
  In  In1  1  0.01478152  0.15653358  0.63127879  1
  In  In2  1  0.00050397  0.49809256  0.13431608  1
  In  In3  1  -0.01556275  0.49817682  0.62186572  1
  In  In4  1  -0.01095810  0.85094437  0.13690816  1
  In  In5  1  0.01082876  0.84544598  0.62561920  1
  In  In6  1  0.32332961  0.16496209  0.11500968  1
  In  In7  1  0.33094268  0.16824930  0.62366624  1
  In  In8  1  0.34612917  0.50395979  0.12145625  1
  In  In9  1  0.34672794  0.49300787  0.62820900  1
  In  In10  1  0.31417618  0.82857589  0.13082262  1
  In  In11  1  0.33051689  0.82367327  0.64053468  1
  In  In12  1  0.68011186  0.16454058  0.12980244  1
  In  In13  1  0.66633726  0.18172580  0.62761185  1
  In  In14  1  0.66041779  0.50626151  0.13152918  1
  In  In15  1  0.66405341  0.50105316  0.62318167  1
  In  In16  1  0.67374991  0.82390946  0.12925393  1
  In  In17  1  0.65236593  0.82565290  0.61950402  1
  In  In18  1  0.16139934  0.01050524  0.37335790  1
  In  In19  1  0.17769612  0.01048174  0.87193387  1
  In  In20  1  0.15249516  0.32520543  0.37263904  1
  In  In21  1  0.15368270  0.32096888  0.86375865  1
  In  In22  1  0.17509732  0.67374952  0.35925371  1
  In  In23  1  0.17531480  0.66293074  0.87012407  1
  In  In24  1  0.49016094  0.00291861  0.38860274  1
  In  In25  1  0.48828458  0.00907657  0.86934937  1
  In  In26  1  0.50761234  0.32841616  0.38310622  1
  In  In27  1  0.51054140  0.33874126  0.86692166  1
  In  In28  1  0.50780679  0.66675632  0.38386725  1
  In  In29  1  0.49113111  0.65533819  0.86988974  1
  In  In30  1  0.84784586  -0.00548571  0.37228711  1
  In  In31  1  0.84623849  -0.00880429  0.88695202  1
  In  In32  1  0.84111723  0.34371084  0.37150047  1
  In  In33  1  0.82502941  0.32192853  0.87247635  1
  In  In34  1  0.82035908  0.65781030  0.36483660  1
  In  In35  1  0.83108668  0.67932965  0.87452229  1
  In  In36  1  0.00555839  0.16567468  0.37213735  1
  In  In37  1  -0.00141856  0.16398359  0.87945958  1
  In  In38  1  -0.01162739  0.49559330  0.37176752  1
  In  In39  1  0.01366552  0.49716412  0.87234137  1
  In  In40  1  0.01027163  0.83619785  0.35980885  1
  In  In41  1  -0.00927885  0.83696460  0.87798877  1
  In  In42  1  0.32870688  0.16891917  0.38243081  1
  In  In43  1  0.31657041  0.15621546  0.86326175  1
  In  In44  1  0.34010682  0.51133930  0.38120300  1
  In  In45  1  0.34466749  0.50508327  0.86806128  1
  In  In46  1  0.34620852  0.83176186  0.37886721  1
  In  In47  1  0.33135168  0.83786381  0.86290730  1
  In  In48  1  0.65237922  0.16853509  0.37436933  1
  In  In49  1  0.66873926  0.17706359  0.87407714  1
  In  In50  1  0.67030569  0.50270057  0.38089095  1
  In  In51  1  0.65539823  0.48943738  0.86987056  1
  In  In52  1  0.66313629  0.81462031  0.37835818  1
  In  In53  1  0.68068671  0.83042056  0.87100430  1
  In  In54  1  0.15471941  0.00203348  0.12160207  1
  In  In55  1  0.15142689  0.01081276  0.63701339  1
  In  In56  1  0.15814712  0.31917315  0.12283843  1
  In  In57  1  0.17842627  0.32339277  0.63014100  1
  In  In58  1  0.15919300  0.68654630  0.14788025  1
  In  In59  1  0.17623177  0.67984055  0.62591255  1
  In  In60  1  0.50030106  0.00852335  0.12591705  1
  In  In61  1  0.48563976  -0.01184006  0.61905407  1
  In  In62  1  0.49281797  0.35010491  0.12558375  1
  In  In63  1  0.50184538  0.33679900  0.62252910  1
  In  In64  1  0.51146265  0.66237392  0.13294611  1
  In  In65  1  0.50048596  0.66457411  0.62483941  1
  In  In66  1  0.86840854  0.02680661  0.09681687  1
  In  In67  1  0.84477399  0.00828487  0.62869644  1
  In  In68  1  0.84256917  0.32382539  0.13488025  1
  In  In69  1  0.82329100  0.33792695  0.63425948  1
  In  In70  1  0.82683015  0.67434355  0.12955738  1
  In  In71  1  0.82971426  0.64930156  0.61636705  1
  In  In72  1  0.32538081  -0.00599421  0.24506379  1
  In  In73  1  0.16537937  0.84247456  -0.00004174  1
  In  In74  1  0.16429040  0.49455530  0.49347753  1
  In  In75  1  0.50195251  0.17189345  -0.00643777  1
  In  In76  1  0.18002276  0.50164880  -0.00083830  1
  In  In77  1  0.66807045  0.00205615  0.74814681  1
  In  In78  1  0.83216908  0.17273994  0.50006640  1
  In  In79  1  0.82925861  0.49632354  0.00231878  1
  In  In80  1  -0.00226017  0.66413098  0.74478396  1
  In  In81  1  0.17076247  0.83908861  0.49805042  1
  In  In82  1  0.49788466  0.83187238  -0.00701652  1
  In  In83  1  0.67623218  -0.01208823  0.25538860  1
  In  In84  1  0.32784485  0.33562867  0.25069057  1
  In  In85  1  0.83129188  0.83057189  0.49832975  1
  Cu  Cu86  1  0.16751727  0.49608979  0.25408019  1
  Cu  Cu87  1  0.66448107  0.66164645  0.00536908  1
  Cu  Cu88  1  0.49951491  0.82516238  0.25606873  1
  Cu  Cu89  1  0.32640861  0.00248928  0.50608851  1
  Cu  Cu90  1  0.66326460  0.00203747  0.49926267  1
  Cu  Cu91  1  -0.00119641  0.32799759  -0.00096342  1
  Cu  Cu92  1  -0.00156347  0.32599452  0.49944956  1
  Cu  Cu93  1  0.66345799  0.33509314  -0.00134732  1
  Cu  Cu94  1  0.33572538  0.32823064  0.50437296  1
  Cu  Cu95  1  0.50482125  0.50197171  0.74378040  1
  Cu  Cu96  1  0.50692994  0.50270631  0.25431956  1
  Cu  Cu97  1  0.49392514  0.17087645  0.74599355  1
  Cu  Cu98  1  0.49534472  0.17228488  0.25433960  1
  Cu  Cu99  1  0.33123522  0.33031886  -0.00579849  1
  Cu  Cu100  1  0.67201108  -0.00733932  0.00048903  1
  Cu  Cu101  1  0.66594373  0.34176577  0.50500142  1
  Cu  Cu102  1  0.34325763  0.66447204  0.50728189  1
  Cu  Cu103  1  0.83643073  0.83858422  0.24611885  1
  Cu  Cu104  1  -0.00277639  0.67405161  0.00326685  1
  Cu  Cu105  1  0.82690604  0.49729704  0.74901757  1
  Cu  Cu106  1  0.84410765  0.16595079  0.75249405  1
  Cu  Cu107  1  0.16647286  0.17244747  0.75043219  1
  Cu  Cu108  1  -0.00439428  0.66766187  0.49017774  1
  Cu  Cu109  1  0.17249374  0.49834913  0.74736512  1
  Cu  Cu110  1  0.33837006  0.66588114  0.00216539  1
  Cu  Cu111  1  0.83420799  0.83082396  0.74900172  1
  Cu  Cu112  1  0.50034822  0.82835508  0.74602382  1
  Cu  Cu113  1  0.83910181  0.16907730  0.24762868  1
  Cu  Cu114  1  0.82874731  0.50272891  0.25146831  1
  Se  Se115  1  0.07037632  0.08138111  0.05625718  1
  Se  Se116  1  0.08337711  0.07832556  0.55421899  1
  Se  Se117  1  0.07758868  0.41694455  0.05449746  1
  Se  Se118  1  0.07909941  0.40860887  0.56001746  1
  Se  Se119  1  0.08219301  0.74814250  0.06204365  1
  Se  Se120  1  0.07517130  0.74308958  0.55386492  1
  Se  Se121  1  0.41279213  0.07606851  0.05083655  1
  Se  Se122  1  0.41580936  0.08603153  0.55438370  1
  Se  Se123  1  0.41259903  0.41598418  0.04691473  1
  Se  Se124  1  0.41872970  0.41710953  0.55046042  1
  Se  Se125  1  0.41435470  0.74854846  0.06386216  1
  Se  Se126  1  0.41282535  0.75598344  0.56347043  1
  Se  Se127  1  0.74645336  0.08570004  0.05159281  1
  Se  Se128  1  0.74305273  0.07805743  0.56132250  1
  Se  Se129  1  0.74325132  0.40777565  0.06533822  1
  Se  Se130  1  0.75552188  0.41872263  0.55704986  1
  Se  Se131  1  0.74951267  0.74847687  0.05227479  1
  Se  Se132  1  0.73964032  0.73846810  0.55260757  1
  Se  Se133  1  0.24510880  0.25193569  0.04793406  1
  Se  Se134  1  0.24588630  0.24612407  0.55088133  1
  Se  Se135  1  0.25049884  0.59861771  0.06575339  1
  Se  Se136  1  0.25198775  0.58368821  0.55841696  1
  Se  Se137  1  0.26242599  0.92804677  0.05786516  1
  Se  Se138  1  0.25204710  0.92023425  0.56895763  1
  Se  Se139  1  0.58591088  0.25464607  0.06382110  1
  Se  Se140  1  0.58413718  0.25117693  0.55265916  1
  Se  Se141  1  0.57900122  0.57931100  0.05557558  1
  Se  Se142  1  0.57717113  0.57895042  0.55563580  1
  Se  Se143  1  0.58654820  0.91929541  0.06029619  1
  Se  Se144  1  0.58123216  0.91741914  0.55211518  1
  Se  Se145  1  0.91469541  0.25105240  0.05619344  1
  Se  Se146  1  0.92062415  0.25344205  0.56734959  1
  Se  Se147  1  0.92196811  0.58659741  0.06044044  1
  Se  Se148  1  0.91820114  0.58040069  0.54402447  1
  Se  Se149  1  0.92266965  0.90754855  0.04923064  1
  Se  Se150  1  0.92283898  0.92406334  0.55405648  1
  Se  Se151  1  0.08305130  0.24346895  0.44859300  1
  Se  Se152  1  0.08628271  0.24966240  0.94574394  1
  Se  Se153  1  0.08384043  0.59248022  0.43263274  1
  Se  Se154  1  0.07935342  0.59454252  0.94493827  1
  Se  Se155  1  0.07366913  0.92163272  0.44110109  1
  Se  Se156  1  0.07735291  0.92972509  0.93892163  1
  Se  Se157  1  0.41893451  0.24603741  0.44779774  1
  Se  Se158  1  0.41151843  0.25465362  0.93067283  1
  Se  Se159  1  0.42508241  0.58084747  0.45402041  1
  Se  Se160  1  0.41695636  0.58002968  0.94802363  1
  Se  Se161  1  0.41034150  0.91606590  0.45563375  1
  Se  Se162  1  0.40496740  0.92494024  0.94020822  1
  Se  Se163  1  0.74106462  0.26005850  0.43974595  1
  Se  Se164  1  0.74821719  0.24914782  0.95065958  1
  Se  Se165  1  0.75469528  0.58826776  0.44636923  1
  Se  Se166  1  0.74321493  0.58576819  0.93921646  1
  Se  Se167  1  0.74228222  0.92544473  0.43698409  1
  Se  Se168  1  0.75229600  0.90798327  0.94730001  1
  Se  Se169  1  0.24585897  0.08157775  0.44722671  1
  Se  Se170  1  0.25112567  0.09037230  0.94691951  1
  Se  Se171  1  0.25797979  0.40307273  0.43631861  1
  Se  Se172  1  0.25324815  0.40979655  0.93064830  1
  Se  Se173  1  0.25788981  0.73753330  0.44468849  1
  Se  Se174  1  0.25857212  0.74647538  0.94254985  1
  Se  Se175  1  0.57991612  0.08865535  0.44939792  1
  Se  Se176  1  0.59231923  0.07176156  0.93868496  1
  Se  Se177  1  0.58201973  0.42110677  0.44848761  1
  Se  Se178  1  0.57816197  0.41671326  0.94742273  1
  Se  Se179  1  0.57071914  0.76467291  0.45309439  1
  Se  Se180  1  0.59054156  0.74049271  0.93763440  1
  Se  Se181  1  0.92249982  0.07859619  0.44626377  1
  Se  Se182  1  0.90543736  0.09537673  0.94908370  1
  Se  Se183  1  0.91838718  0.41564818  0.44965980  1
  Se  Se184  1  0.92325933  0.41307424  0.93939659  1
  Se  Se185  1  0.92127110  0.75108304  0.43015630  1
  Se  Se186  1  0.91230890  0.75236272  0.94857677  1
  Se  Se187  1  0.24081443  0.23832701  0.30503331  1
  Se  Se188  1  0.25511317  0.25861057  0.79762594  1
  Se  Se189  1  0.25726835  0.57549918  0.30364646  1
  Se  Se190  1  0.25471449  0.58293031  0.80019367  1
  Se  Se191  1  0.24623924  0.90792325  0.31509550  1
  Se  Se192  1  0.23838638  0.91374913  0.80158829  1
  Se  Se193  1  0.58161419  0.25601516  0.30245673  1
  Se  Se194  1  0.58460250  0.24582647  0.79943427  1
  Se  Se195  1  0.58679326  0.58558222  0.31081449  1
  Se  Se196  1  0.58541297  0.58414205  0.80237153  1
  Se  Se197  1  0.57182800  0.91498696  0.31537604  1
  Se  Se198  1  0.57680880  0.91062335  0.80958845  1
  Se  Se199  1  0.91786802  0.25008755  0.30767979  1
  Se  Se200  1  0.92240950  0.25243021  0.80758802  1
  Se  Se201  1  0.91781869  0.58575099  0.30098465  1
  Se  Se202  1  0.90930616  0.57582298  0.81078971  1
  Se  Se203  1  0.92347021  0.92238280  0.29522041  1
  Se  Se204  1  0.91198025  0.91595034  0.80413570  1
  Se  Se205  1  0.07431179  0.07585941  0.30044618  1
  Se  Se206  1  0.08557339  0.08961936  0.80716783  1
  Se  Se207  1  0.08030058  0.41677178  0.30600282  1
  Se  Se208  1  0.08263643  0.41744240  0.79649649  1
  Se  Se209  1  0.08475992  0.74676903  0.29373290  1
  Se  Se210  1  0.08076603  0.75020399  0.81159205  1
  Se  Se211  1  0.41595053  0.08559652  0.30829653  1
  Se  Se212  1  0.41062696  0.08328636  0.79511345  1
  Se  Se213  1  0.42269702  0.42023044  0.31100158  1
  Se  Se214  1  0.42243497  0.41795318  0.79955280  1
  Se  Se215  1  0.41928692  0.74186538  0.31085221  1
  Se  Se216  1  0.41689573  0.74791193  0.80312170  1
  Se  Se217  1  0.75906987  0.09154199  0.31250208  1
  Se  Se218  1  0.75897750  0.08512699  0.81188729  1
  Se  Se219  1  0.74752830  0.41915707  0.30708262  1
  Se  Se220  1  0.74790930  0.41201513  0.80562081  1
  Se  Se221  1  0.75059338  0.75809695  0.30013232  1
  Se  Se222  1  0.74871486  0.74457999  0.79628416  1
  Se  Se223  1  0.23960652  0.09302589  0.19126276  1
  Se  Se224  1  0.24956956  0.08842494  0.69622603  1
  Se  Se225  1  0.24320148  0.42374588  0.18420551  1
  Se  Se226  1  0.25647713  0.41498691  0.69461382  1
  Se  Se227  1  0.27120998  0.73631680  0.20829850  1
  Se  Se228  1  0.23883898  0.75054820  0.70786000  1
  Se  Se229  1  0.58089243  0.08716376  0.20042311  1
  Se  Se230  1  0.57495981  0.08662908  0.68688355  1
  Se  Se231  1  0.58234702  0.41497523  0.19826711  1
  Se  Se232  1  0.58736839  0.41384174  0.69390841  1
  Se  Se233  1  0.58906966  0.75061193  0.20113680  1
  Se  Se234  1  0.58594009  0.74523013  0.69673553  1
  Se  Se235  1  0.91653731  0.08321764  0.19188255  1
  Se  Se236  1  0.92651847  0.07945936  0.70227770  1
  Se  Se237  1  0.91481339  0.41781455  0.20097427  1
  Se  Se238  1  0.91655426  0.41713609  0.69899761  1
  Se  Se239  1  0.91855534  0.74786522  0.19695710  1
  Se  Se240  1  0.90887605  0.75370383  0.68139481  1
  Se  Se241  1  0.07417341  0.26218104  0.20021837  1
  Se  Se242  1  0.08140869  0.25524475  0.69724772  1
  Se  Se243  1  0.08369712  0.58111198  0.20129228  1
  Se  Se244  1  0.09053312  0.57495234  0.68382459  1
  Se  Se245  1  0.11300290  0.89202195  0.18720077  1
  Se  Se246  1  0.08851686  0.90972957  0.70317006  1
  Se  Se247  1  0.41634501  0.24284794  0.18724860  1
  Se  Se248  1  0.41461313  0.25496371  0.69008500  1
  Se  Se249  1  0.42126237  0.58073243  0.19751868  1
  Se  Se250  1  0.41557089  0.58647912  0.69684375  1
  Se  Se251  1  0.42771328  0.90643575  0.19018878  1
  Se  Se252  1  0.41566035  0.91761302  0.70056782  1
  Se  Se253  1  0.74735230  0.25190926  0.20269358  1
  Se  Se254  1  0.75222254  0.24541674  0.70358779  1
  Se  Se255  1  0.74711263  0.58754226  0.19718301  1
  Se  Se256  1  0.74913923  0.58313689  0.69422254  1
  Se  Se257  1  0.76457110  0.92198540  0.18117018  1
  Se  Se258  1  0.75471223  0.90963359  0.68532223  1
