# generated using pymatgen
data_In86Cu29Se144
_symmetry_space_group_name_H-M   'P 1'
_cell_length_a   17.58425787
_cell_length_b   17.58622306
_cell_length_c   23.43677811
_cell_angle_alpha   90.03158227
_cell_angle_beta   90.00308877
_cell_angle_gamma   90.00336801
_symmetry_Int_Tables_number   1
_chemical_formula_structural   In86Cu29Se144
_chemical_formula_sum   'In86 Cu29 Se144'
_cell_volume   7247.60410651
_cell_formula_units_Z   1
loop_
 _symmetry_equiv_pos_site_id
 _symmetry_equiv_pos_as_xyz
  1  'x, y, z'
loop_
 _atom_site_type_symbol
 _atom_site_label
 _atom_site_symmetry_multiplicity
 _atom_site_fract_x
 _atom_site_fract_y
 _atom_site_fract_z
 _atom_site_occupancy
  In  In0  1  0.01080934  0.17443293  0.12216307  1
  In  In1  1  0.00399108  0.15655369  0.62738090  1
  In  In2  1  -0.00762135  0.49480260  0.11449607  1
  In  In3  1  0.01175743  0.50702262  0.61837772  1
  In  In4  1  -0.00063212  0.82310873  0.10871956  1
  In  In5  1  -0.00674574  0.83435404  0.63235041  1
  In  In6  1  0.32610577  0.15702948  0.11650880  1
  In  In7  1  0.33217937  0.18040894  0.63067507  1
  In  In8  1  0.33223177  0.50906535  0.12420649  1
  In  In9  1  0.32975797  0.50049889  0.62431859  1
  In  In10  1  0.34679703  0.84861407  0.10366658  1
  In  In11  1  0.33128513  0.81845417  0.62844941  1
  In  In12  1  0.67400160  0.18091542  0.11411527  1
  In  In13  1  0.66765896  0.17081657  0.62630192  1
  In  In14  1  0.67326511  0.46737546  0.12327208  1
  In  In15  1  0.67690599  0.51290761  0.61789452  1
  In  In16  1  0.67011345  0.83674308  0.12078454  1
  In  In17  1  0.65630244  0.82174770  0.61986181  1
  In  In18  1  0.18513787  0.00087907  0.37018006  1
  In  In19  1  0.16114745  0.01161332  0.88533307  1
  In  In20  1  0.15143892  0.33861433  0.38536840  1
  In  In21  1  0.16997471  0.33519707  0.87945030  1
  In  In22  1  0.15357545  0.66084846  0.37699116  1
  In  In23  1  0.16503021  0.66241957  0.87401387  1
  In  In24  1  0.48920842  0.00344368  0.37318365  1
  In  In25  1  0.49382823  -0.00155330  0.89145447  1
  In  In26  1  0.51107885  0.33440311  0.36654807  1
  In  In27  1  0.48742861  0.34563930  0.87808229  1
  In  In28  1  0.49967915  0.66513167  0.38417160  1
  In  In29  1  0.50773695  0.66998018  0.86634110  1
  In  In30  1  0.82683206  -0.00814582  0.37160138  1
  In  In31  1  0.84554977  -0.01327745  0.88528120  1
  In  In32  1  0.84035382  0.34686065  0.36373840  1
  In  In33  1  0.83050214  0.33393604  0.88971110  1
  In  In34  1  0.83510526  0.66397861  0.38333818  1
  In  In35  1  0.83027186  0.67286892  0.87308612  1
  In  In36  1  -0.00658420  0.18388091  0.37520461  1
  In  In37  1  0.00695356  0.15904657  0.88276510  1
  In  In38  1  -0.00161398  0.48990672  0.38784531  1
  In  In39  1  -0.01291635  0.52155530  0.89019878  1
  In  In40  1  0.00027626  0.82182898  0.37449165  1
  In  In41  1  -0.00487286  0.83172248  0.87498313  1
  In  In42  1  0.33565499  0.15347738  0.36977666  1
  In  In43  1  0.32112042  0.17648648  0.88927655  1
  In  In44  1  0.33078464  0.49546279  0.38436527  1
  In  In45  1  0.32443572  0.49647108  0.86769489  1
  In  In46  1  0.33246540  0.84821353  0.37236998  1
  In  In47  1  0.34331213  0.82573455  0.88030349  1
  In  In48  1  0.65160995  0.17794454  0.36729745  1
  In  In49  1  0.67051998  0.16823515  0.89077680  1
  In  In50  1  0.67243943  0.49634436  0.37689263  1
  In  In51  1  0.66210627  0.51357906  0.87411567  1
  In  In52  1  0.67107140  0.82507904  0.38045694  1
  In  In53  1  0.67308786  0.82600236  0.88074902  1
  In  In54  1  0.18089555  0.00675604  0.10701966  1
  In  In55  1  0.15395445  -0.00598195  0.62822592  1
  In  In56  1  0.15977412  0.32360208  0.12299426  1
  In  In57  1  0.17433526  0.34650091  0.61571901  1
  In  In58  1  0.15932787  0.66702219  0.10452851  1
  In  In59  1  0.17576967  0.65732542  0.63627941  1
  In  In60  1  0.49271159  -0.00242701  0.11823110  1
  In  In61  1  0.51302480  -0.00299661  0.62663570  1
  In  In62  1  0.52059858  0.32568294  0.13662984  1
  In  In63  1  0.48092907  0.33305350  0.62587352  1
  In  In64  1  0.49484735  0.66678269  0.12196277  1
  In  In65  1  0.49825191  0.66556419  0.62478160  1
  In  In66  1  0.82637475  -0.00388013  0.12078876  1
  In  In67  1  0.85338379  -0.00367509  0.63055331  1
  In  In68  1  0.83954715  0.33898366  0.12127486  1
  In  In69  1  0.82821900  0.33641051  0.62084847  1
  In  In70  1  0.83855841  0.66524056  0.11367720  1
  In  In71  1  0.83237508  0.66763740  0.62903289  1
  In  In72  1  0.16878350  0.83145292  0.50030277  1
  In  In73  1  0.49458084  0.16800165  0.49075793  1
  In  In74  1  0.66678368  0.34069362  0.74792028  1
  In  In75  1  0.33026487  0.67131203  0.24041579  1
  In  In76  1  0.00617300  0.33790927  0.74936218  1
  In  In77  1  0.50375927  0.49634293  0.00440969  1
  In  In78  1  0.66302354  0.00523207  0.24250770  1
  In  In79  1  0.67065576  -0.00572060  0.75833653  1
  In  In80  1  0.67311577  0.66259686  0.25554963  1
  In  In81  1  0.83286396  0.16651717  0.50124155  1
  In  In82  1  0.00347535  0.00121250  0.24203514  1
  In  In83  1  0.33434576  0.32766817  0.25270770  1
  In  In84  1  0.32947930  -0.00129512  0.76460699  1
  In  In85  1  -0.00152572  0.66225422  0.23957780  1
  Cu  Cu86  1  0.33943883  0.00129363  0.49830871  1
  Cu  Cu87  1  0.66677445  0.66583301  -0.00299246  1
  Cu  Cu88  1  0.66565174  0.66613516  0.50230079  1
  Cu  Cu89  1  0.83697998  0.50871321  0.75143377  1
  Cu  Cu90  1  0.66153304  0.00176996  0.00386028  1
  Cu  Cu91  1  0.49648907  0.82957047  0.75076344  1
  Cu  Cu92  1  0.84494765  0.16137595  0.75846010  1
  Cu  Cu93  1  0.49379717  0.50338837  0.74665187  1
  Cu  Cu94  1  0.49792556  0.83779863  0.24594600  1
  Cu  Cu95  1  0.00231714  -0.00187011  0.50280975  1
  Cu  Cu96  1  0.83530685  0.49598196  0.24675379  1
  Cu  Cu97  1  0.33266150  0.66431932  0.50602531  1
  Cu  Cu98  1  -0.00224226  0.66563517  0.50449951  1
  Cu  Cu99  1  0.16537772  0.50166979  0.74944936  1
  Cu  Cu100  1  0.83161155  0.82974385  0.75507729  1
  Cu  Cu101  1  0.33506716  0.66301640  -0.00416413  1
  Cu  Cu102  1  0.16335056  0.49564921  0.25399748  1
  Cu  Cu103  1  0.67151759  -0.01156651  0.50069448  1
  Cu  Cu104  1  0.17282795  0.83884534  0.23838665  1
  Cu  Cu105  1  0.33553889  0.33070841  0.00289184  1
  Cu  Cu106  1  0.66490105  0.33748060  0.49595044  1
  Cu  Cu107  1  0.17023446  0.16889905  0.75932917  1
  Cu  Cu108  1  0.82885562  0.17883596  0.24421478  1
  Cu  Cu109  1  0.15692762  0.82840755  0.75484390  1
  Cu  Cu110  1  0.32408720  0.33607900  0.50180014  1
  Cu  Cu111  1  0.49855094  0.17637907  0.75896155  1
  Cu  Cu112  1  0.00715669  0.33075930  0.00026827  1
  Cu  Cu113  1  0.16680074  0.16512433  0.24446363  1
  Cu  Cu114  1  -0.00692036  0.00219203  0.00171755  1
  Se  Se115  1  0.08156124  0.08591338  0.05062511  1
  Se  Se116  1  0.08686671  0.08063895  0.55395586  1
  Se  Se117  1  0.08900991  0.41564807  0.05404540  1
  Se  Se118  1  0.07359800  0.40825463  0.55209892  1
  Se  Se119  1  0.07141560  0.73969137  0.03597546  1
  Se  Se120  1  0.08214379  0.74499802  0.56426498  1
  Se  Se121  1  0.40556438  0.07228842  0.04816345  1
  Se  Se122  1  0.41472054  0.08112698  0.56360479  1
  Se  Se123  1  0.41410292  0.40823585  0.06647688  1
  Se  Se124  1  0.41224390  0.41749834  0.55253616  1
  Se  Se125  1  0.42246112  0.74526566  0.04714778  1
  Se  Se126  1  0.41648658  0.75150186  0.55432393  1
  Se  Se127  1  0.75061279  0.08384672  0.05277463  1
  Se  Se128  1  0.74542962  0.07154320  0.56335531  1
  Se  Se129  1  0.77422039  0.43457426  0.05064943  1
  Se  Se130  1  0.74881908  0.41739495  0.55130834  1
  Se  Se131  1  0.74815847  0.75008992  0.05266064  1
  Se  Se132  1  0.75149443  0.74856246  0.55576900  1
  Se  Se133  1  0.24646112  0.24873356  0.05265514  1
  Se  Se134  1  0.24874968  0.24507979  0.55458126  1
  Se  Se135  1  0.25281672  0.57859717  0.04832110  1
  Se  Se136  1  0.24392932  0.58307809  0.55538318  1
  Se  Se137  1  0.22512563  0.88866085  0.05104455  1
  Se  Se138  1  0.25917869  0.92288893  0.56139156  1
  Se  Se139  1  0.58489435  0.26392125  0.05087882  1
  Se  Se140  1  0.58546819  0.25540657  0.55631949  1
  Se  Se141  1  0.59705598  0.58513840  0.06460341  1
  Se  Se142  1  0.57913460  0.58287970  0.55348369  1
  Se  Se143  1  0.58093816  0.91282050  0.05431664  1
  Se  Se144  1  0.57970499  0.91304950  0.55209041  1
  Se  Se145  1  0.92103688  0.25015293  0.05473626  1
  Se  Se146  1  0.92505714  0.25281336  0.56069496  1
  Se  Se147  1  0.94075225  0.60280942  0.05058831  1
  Se  Se148  1  0.91326827  0.58383792  0.55832264  1
  Se  Se149  1  0.91084747  0.91584342  0.05245301  1
  Se  Se150  1  0.91984110  0.91313896  0.55414746  1
  Se  Se151  1  0.08717096  0.23598629  0.44812848  1
  Se  Se152  1  0.09032909  0.24734671  0.94651959  1
  Se  Se153  1  0.08098009  0.58189105  0.45095903  1
  Se  Se154  1  0.10541087  0.56547526  0.94495464  1
  Se  Se155  1  0.08217861  0.92297329  0.43666136  1
  Se  Se156  1  0.07404957  0.92127677  0.94393300  1
  Se  Se157  1  0.40455098  0.26190514  0.43514994  1
  Se  Se158  1  0.42217684  0.25278302  0.94842152  1
  Se  Se159  1  0.41419827  0.58170118  0.44947632  1
  Se  Se160  1  0.41847497  0.58196309  0.93691249  1
  Se  Se161  1  0.42018761  0.91544584  0.44638916  1
  Se  Se162  1  0.40931815  0.91390074  0.95366607  1
  Se  Se163  1  0.74310285  0.25287413  0.43751149  1
  Se  Se164  1  0.75112029  0.25150076  0.95713713  1
  Se  Se165  1  0.74833931  0.58210038  0.44765629  1
  Se  Se166  1  0.75139451  0.58421243  0.94372636  1
  Se  Se167  1  0.75701570  0.90967863  0.44642968  1
  Se  Se168  1  0.74382760  0.91931667  0.94781173  1
  Se  Se169  1  0.25423582  0.08309517  0.44660853  1
  Se  Se170  1  0.26301609  0.07086672  0.95132632  1
  Se  Se171  1  0.23981914  0.42104764  0.45042905  1
  Se  Se172  1  0.25786818  0.41670687  0.94680399  1
  Se  Se173  1  0.25780792  0.74182964  0.43709929  1
  Se  Se174  1  0.25104325  0.74500259  0.94271780  1
  Se  Se175  1  0.59505005  0.07449991  0.44099238  1
  Se  Se176  1  0.57873130  0.08740208  0.95299382  1
  Se  Se177  1  0.57917084  0.41733557  0.44252887  1
  Se  Se178  1  0.59503251  0.41137275  0.94139446  1
  Se  Se179  1  0.58256785  0.75107934  0.44906882  1
  Se  Se180  1  0.58007724  0.74651101  0.94463364  1
  Se  Se181  1  0.92066769  0.07388723  0.43891739  1
  Se  Se182  1  0.91060653  0.08943323  0.94910569  1
  Se  Se183  1  0.90263281  0.41322731  0.44831199  1
  Se  Se184  1  0.92189149  0.41613865  0.95072798  1
  Se  Se185  1  0.91906397  0.75082638  0.44895059  1
  Se  Se186  1  0.90020967  0.76364401  0.94246158  1
  Se  Se187  1  0.23849527  0.24449069  0.31253756  1
  Se  Se188  1  0.25361274  0.25371567  0.80891440  1
  Se  Se189  1  0.24491819  0.58058594  0.30817952  1
  Se  Se190  1  0.25085279  0.58723322  0.79973697  1
  Se  Se191  1  0.25510478  0.91893848  0.29428816  1
  Se  Se192  1  0.23730601  0.90595678  0.81753251  1
  Se  Se193  1  0.57320437  0.24660903  0.29208415  1
  Se  Se194  1  0.58561690  0.25181796  0.81522096  1
  Se  Se195  1  0.57533036  0.57897854  0.31108778  1
  Se  Se196  1  0.58417811  0.58251206  0.79645797  1
  Se  Se197  1  0.58182560  0.91048671  0.30910280  1
  Se  Se198  1  0.57117631  0.91119967  0.81416127  1
  Se  Se199  1  0.91756952  0.25585886  0.29770672  1
  Se  Se200  1  0.91625995  0.25235096  0.81471441  1
  Se  Se201  1  0.91406895  0.57724828  0.30853340  1
  Se  Se202  1  0.91926926  0.58986292  0.80634562  1
  Se  Se203  1  0.91747204  0.90922207  0.30484159  1
  Se  Se204  1  0.91551139  0.91795836  0.80292463  1
  Se  Se205  1  0.08712253  0.08755549  0.30968221  1
  Se  Se206  1  0.08440628  0.08361961  0.80637113  1
  Se  Se207  1  0.07837099  0.41935207  0.30977851  1
  Se  Se208  1  0.08483758  0.42883092  0.81485497  1
  Se  Se209  1  0.09512892  0.75656708  0.29895079  1
  Se  Se210  1  0.07601861  0.74356277  0.80746800  1
  Se  Se211  1  0.42518135  0.08767204  0.29893415  1
  Se  Se212  1  0.42220295  0.09267886  0.81762902  1
  Se  Se213  1  0.41800808  0.42762802  0.30805544  1
  Se  Se214  1  0.41383060  0.41722001  0.79962917  1
  Se  Se215  1  0.42083550  0.75511420  0.30761371  1
  Se  Se216  1  0.41202757  0.74576694  0.80197200  1
  Se  Se217  1  0.75579303  0.09473906  0.30649258  1
  Se  Se218  1  0.75754627  0.08802557  0.81643279  1
  Se  Se219  1  0.74390553  0.41797679  0.29853406  1
  Se  Se220  1  0.76005560  0.42363248  0.81045291  1
  Se  Se221  1  0.76606520  0.75622519  0.30805108  1
  Se  Se222  1  0.74088251  0.74824200  0.80161752  1
  Se  Se223  1  0.24595140  0.07939568  0.19111713  1
  Se  Se224  1  0.24571537  0.08498021  0.69493884  1
  Se  Se225  1  0.24562087  0.42041590  0.19190216  1
  Se  Se226  1  0.24791634  0.41691102  0.69546451  1
  Se  Se227  1  0.24375650  0.75460903  0.17563487  1
  Se  Se228  1  0.24792818  0.75140140  0.70329885  1
  Se  Se229  1  0.57978546  0.09234500  0.17981472  1
  Se  Se230  1  0.57911304  0.09450948  0.70042708  1
  Se  Se231  1  0.57692752  0.43067127  0.20000721  1
  Se  Se232  1  0.57575921  0.42410614  0.68484806  1
  Se  Se233  1  0.58050479  0.75337545  0.19280785  1
  Se  Se234  1  0.58041077  0.74832586  0.69634437  1
  Se  Se235  1  0.90755805  0.09255441  0.18739513  1
  Se  Se236  1  0.92634738  0.08043624  0.70303219  1
  Se  Se237  1  0.92424393  0.41768835  0.19418343  1
  Se  Se238  1  0.90966802  0.42338757  0.69045734  1
  Se  Se239  1  0.90934937  0.75892208  0.18837152  1
  Se  Se240  1  0.91567274  0.74721502  0.70029909  1
  Se  Se241  1  0.08067413  0.25319416  0.20074150  1
  Se  Se242  1  0.09529793  0.24552176  0.69146757  1
  Se  Se243  1  0.09557041  0.57576268  0.18551960  1
  Se  Se244  1  0.07730166  0.58406097  0.69911424  1
  Se  Se245  1  0.08599849  0.91075260  0.17852519  1
  Se  Se246  1  0.07865665  0.91563061  0.70137944  1
  Se  Se247  1  0.41543431  0.24015398  0.18660554  1
  Se  Se248  1  0.41323284  0.25460653  0.70446695  1
  Se  Se249  1  0.42883553  0.57432850  0.19663518  1
  Se  Se250  1  0.41036094  0.58650043  0.69280776  1
  Se  Se251  1  0.41284318  0.91449061  0.19012273  1
  Se  Se252  1  0.41947205  0.91709311  0.69414632  1
  Se  Se253  1  0.74826884  0.26117883  0.18974632  1
  Se  Se254  1  0.76364623  0.24017201  0.69779577  1
  Se  Se255  1  0.75766773  0.57844456  0.18687377  1
  Se  Se256  1  0.74675614  0.58544230  0.69843731  1
  Se  Se257  1  0.75854326  0.90681862  0.19780297  1
  Se  Se258  1  0.75404686  0.90972774  0.68983975  1
