# generated using pymatgen
data_In86Cu29Se144
_symmetry_space_group_name_H-M   'P 1'
_cell_length_a   17.52161910
_cell_length_b   17.52023527
_cell_length_c   23.37335510
_cell_angle_alpha   89.99334672
_cell_angle_beta   90.01346440
_cell_angle_gamma   89.97710952
_symmetry_Int_Tables_number   1
_chemical_formula_structural   In86Cu29Se144
_chemical_formula_sum   'In86 Cu29 Se144'
_cell_volume   7175.21925452
_cell_formula_units_Z   1
loop_
 _symmetry_equiv_pos_site_id
 _symmetry_equiv_pos_as_xyz
  1  'x, y, z'
loop_
 _atom_site_type_symbol
 _atom_site_label
 _atom_site_symmetry_multiplicity
 _atom_site_fract_x
 _atom_site_fract_y
 _atom_site_fract_z
 _atom_site_occupancy
  In  In0  1  -0.02246218  0.15098265  0.10586370  1
  In  In1  1  -0.00120842  0.17200830  0.63437390  1
  In  In2  1  0.00426698  0.51418540  0.12576280  1
  In  In3  1  -0.00190333  0.49829653  0.62942956  1
  In  In4  1  -0.00102497  0.83472498  0.12125751  1
  In  In5  1  -0.02080212  0.84324736  0.64414351  1
  In  In6  1  0.33286999  0.15714777  0.11830453  1
  In  In7  1  0.32744145  0.16769430  0.63694340  1
  In  In8  1  0.32216668  0.48729533  0.12875956  1
  In  In9  1  0.31584739  0.49477427  0.62096897  1
  In  In10  1  0.35737518  0.86792518  0.09319723  1
  In  In11  1  0.33792490  0.85124383  0.63585957  1
  In  In12  1  0.64903478  0.13953901  0.09877260  1
  In  In13  1  0.67392412  0.16048123  0.62145341  1
  In  In14  1  0.68406763  0.50159202  0.12941291  1
  In  In15  1  0.68882665  0.49127718  0.62085223  1
  In  In16  1  0.67026212  0.84081395  0.12342367  1
  In  In17  1  0.66880697  0.82069698  0.63002736  1
  In  In18  1  0.16696545  0.00014818  0.35878136  1
  In  In19  1  0.16701674  0.00450183  0.88139511  1
  In  In20  1  0.18050375  0.33549988  0.37827727  1
  In  In21  1  0.15013861  0.31359152  0.86912953  1
  In  In22  1  0.14926101  0.66759622  0.37405755  1
  In  In23  1  0.15706504  0.68689299  0.87894400  1
  In  In24  1  0.49831792  -0.00057335  0.36160949  1
  In  In25  1  0.49638974  0.00685406  0.89677376  1
  In  In26  1  0.49072845  0.33583306  0.37056144  1
  In  In27  1  0.48588328  0.32298205  0.86930139  1
  In  In28  1  0.51498628  0.65892761  0.36815793  1
  In  In29  1  0.50917984  0.68044302  0.87835945  1
  In  In30  1  0.83392615  -0.00139939  0.36989349  1
  In  In31  1  0.84932912  -0.02010087  0.89149145  1
  In  In32  1  0.82908968  0.32642511  0.38960139  1
  In  In33  1  0.86345942  0.31685469  0.89661521  1
  In  In34  1  0.83824433  0.67195896  0.37248357  1
  In  In35  1  0.83744893  0.66548782  0.87809719  1
  In  In36  1  -0.00553306  0.15478878  0.36862994  1
  In  In37  1  0.01132951  0.16984323  0.87891216  1
  In  In38  1  -0.01137721  0.50668729  0.38278640  1
  In  In39  1  -0.01078287  0.48661386  0.86914540  1
  In  In40  1  -0.00684049  0.82186048  0.36164081  1
  In  In41  1  -0.00862907  0.83770535  0.86887982  1
  In  In42  1  0.33409264  0.16804818  0.36556247  1
  In  In43  1  0.32509355  0.15781316  0.88714320  1
  In  In44  1  0.33012832  0.48335628  0.37555436  1
  In  In45  1  0.33573365  0.48595637  0.87075888  1
  In  In46  1  0.32577497  0.84392322  0.36850592  1
  In  In47  1  0.32590728  0.84895307  0.88972863  1
  In  In48  1  0.67873777  0.16530434  0.37065605  1
  In  In49  1  0.67481383  0.14395448  0.89445225  1
  In  In50  1  0.66916052  0.50811509  0.36910837  1
  In  In51  1  0.68121902  0.51411911  0.87383579  1
  In  In52  1  0.67809221  0.84567469  0.36230993  1
  In  In53  1  0.67172571  0.84984495  0.89521468  1
  In  In54  1  0.16551872  0.00068467  0.11673654  1
  In  In55  1  0.16213560  0.00159134  0.63536705  1
  In  In56  1  0.17420393  0.33486418  0.12488927  1
  In  In57  1  0.16401172  0.33461639  0.63171125  1
  In  In58  1  0.14989727  0.67559587  0.12920720  1
  In  In59  1  0.16081650  0.65164931  0.62620383  1
  In  In60  1  0.50225686  -0.00084572  0.12022918  1
  In  In61  1  0.48816543  -0.00602172  0.63543556  1
  In  In62  1  0.49307503  0.31298854  0.12335396  1
  In  In63  1  0.49635257  0.32052096  0.63050935  1
  In  In64  1  0.50413184  0.68643018  0.12556433  1
  In  In65  1  0.51044659  0.67455015  0.63050513  1
  In  In66  1  0.83464327  -0.00197159  0.12168867  1
  In  In67  1  0.83977819  0.00068584  0.62453783  1
  In  In68  1  0.83005669  0.32603387  0.11158410  1
  In  In69  1  0.84080984  0.34330602  0.61088695  1
  In  In70  1  0.83651561  0.67182257  0.12710670  1
  In  In71  1  0.84393318  0.67709584  0.61956792  1
  In  In72  1  0.15975936  0.17371396  0.50553018  1
  In  In73  1  0.50725043  0.83315055  0.50818533  1
  In  In74  1  0.00174987  0.32811471  0.24525315  1
  In  In75  1  0.32106798  0.67203467  0.75701837  1
  In  In76  1  0.67069493  0.33138796  0.75013103  1
  In  In77  1  0.66427065  0.32749414  0.24973481  1
  In  In78  1  0.50845376  0.17240235  0.49259711  1
  In  In79  1  0.33370431  0.67871506  0.24496923  1
  In  In80  1  0.66755587  0.00040334  0.75875724  1
  In  In81  1  0.50628829  0.50108452  -0.00890806  1
  In  In82  1  0.15871276  0.49847736  0.00224373  1
  In  In83  1  0.66457264  0.67595754  0.75387607  1
  In  In84  1  0.15484791  0.82953102  0.49918243  1
  In  In85  1  0.51023893  0.49591921  0.49545282  1
  Cu  Cu86  1  0.33258221  0.66199818  0.50113165  1
  Cu  Cu87  1  0.50699969  0.83807778  0.23763478  1
  Cu  Cu88  1  0.33171520  0.32244516  -0.00256331  1
  Cu  Cu89  1  -0.00944067  -0.00526427  0.49586267  1
  Cu  Cu90  1  0.17473506  0.15865649  0.75825853  1
  Cu  Cu91  1  0.83726814  0.49391832  0.75188477  1
  Cu  Cu92  1  0.84424694  0.16911674  0.75613150  1
  Cu  Cu93  1  0.48804772  0.49895752  0.74495766  1
  Cu  Cu94  1  0.33184452  0.00898403  0.49988912  1
  Cu  Cu95  1  0.16683820  0.16295085  0.24205021  1
  Cu  Cu96  1  0.00204607  -0.00107911  -0.00302082  1
  Cu  Cu97  1  0.49851947  0.49878573  0.24925106  1
  Cu  Cu98  1  0.00251560  0.33506571  0.50676300  1
  Cu  Cu99  1  -0.00692668  0.67326133  0.00104428  1
  Cu  Cu100  1  0.68149439  -0.00437229  0.49684229  1
  Cu  Cu101  1  0.84014086  0.50873983  0.24938478  1
  Cu  Cu102  1  0.82574383  0.15904716  0.24057662  1
  Cu  Cu103  1  0.66923210  0.33711373  0.00044135  1
  Cu  Cu104  1  0.16160459  0.49490115  0.74984725  1
  Cu  Cu105  1  0.67966953  0.66689393  0.49658710  1
  Cu  Cu106  1  0.17316590  0.83999576  0.23751656  1
  Cu  Cu107  1  0.16654101  0.49962570  0.25268194  1
  Cu  Cu108  1  0.49386746  0.16312292  0.76255662  1
  Cu  Cu109  1  0.49076174  0.15653317  0.23822546  1
  Cu  Cu110  1  0.67454290  0.67133960  0.00499269  1
  Cu  Cu111  1  -0.00418694  0.66233493  0.50173468  1
  Cu  Cu112  1  0.32816213  0.67096166  0.00085156  1
  Cu  Cu113  1  0.83902131  0.83436245  0.24470863  1
  Cu  Cu114  1  0.16076466  0.83761969  0.75910838  1
  Se  Se115  1  0.08517330  0.08659485  0.04664407  1
  Se  Se116  1  0.07340264  0.07192667  0.55745855  1
  Se  Se117  1  0.06992804  0.40773528  0.06134583  1
  Se  Se118  1  0.08616875  0.41733482  0.56013854  1
  Se  Se119  1  0.08422295  0.75365374  0.04973133  1
  Se  Se120  1  0.06929602  0.74560800  0.56621713  1
  Se  Se121  1  0.42895391  0.09103144  0.05100078  1
  Se  Se122  1  0.41664136  0.08533082  0.55935999  1
  Se  Se123  1  0.41119242  0.41352298  0.05336839  1
  Se  Se124  1  0.41846372  0.41326558  0.55993127  1
  Se  Se125  1  0.42335335  0.74895106  0.04642767  1
  Se  Se126  1  0.40557284  0.74478989  0.56361440  1
  Se  Se127  1  0.77475321  0.09921859  0.05235966  1
  Se  Se128  1  0.75830567  0.08193771  0.55275751  1
  Se  Se129  1  0.75103528  0.42409226  0.05046848  1
  Se  Se130  1  0.74629805  0.41003680  0.54203576  1
  Se  Se131  1  0.75802367  0.75660798  0.05646140  1
  Se  Se132  1  0.75303347  0.75590456  0.55288371  1
  Se  Se133  1  0.24645049  0.24662492  0.05407610  1
  Se  Se134  1  0.26052403  0.25665903  0.56042332  1
  Se  Se135  1  0.25239912  0.58904669  0.06240427  1
  Se  Se136  1  0.24269253  0.58105600  0.54964724  1
  Se  Se137  1  0.23729614  0.91531875  0.04208768  1
  Se  Se138  1  0.25080688  0.92314060  0.55673038  1
  Se  Se139  1  0.57997624  0.25304888  0.04689024  1
  Se  Se140  1  0.59509774  0.26099408  0.55771965  1
  Se  Se141  1  0.58883241  0.58647619  0.06169267  1
  Se  Se142  1  0.59435586  0.59218474  0.55823044  1
  Se  Se143  1  0.57903776  0.90809229  0.05298155  1
  Se  Se144  1  0.59560381  0.93064641  0.56618392  1
  Se  Se145  1  0.92165070  0.25858972  0.04261608  1
  Se  Se146  1  0.92224703  0.24260594  0.55494882  1
  Se  Se147  1  0.91467539  0.58523096  0.05510379  1
  Se  Se148  1  0.91346908  0.57721998  0.55589203  1
  Se  Se149  1  0.91681708  0.91529733  0.05029811  1
  Se  Se150  1  0.91696986  0.90974538  0.55622998  1
  Se  Se151  1  0.07169896  0.25695114  0.43603315  1
  Se  Se152  1  0.08242361  0.25451352  0.95462017  1
  Se  Se153  1  0.08400292  0.58166666  0.44950944  1
  Se  Se154  1  0.07267212  0.58981918  0.94015948  1
  Se  Se155  1  0.07646879  0.92338456  0.43323171  1
  Se  Se156  1  0.07924447  0.91147241  0.94112256  1
  Se  Se157  1  0.40314808  0.25746254  0.44370411  1
  Se  Se158  1  0.42201828  0.24317605  0.94804507  1
  Se  Se159  1  0.41499440  0.59011224  0.43735974  1
  Se  Se160  1  0.40548637  0.59165075  0.93668914  1
  Se  Se161  1  0.41361150  0.92254336  0.44443784  1
  Se  Se162  1  0.41950003  0.91242256  0.96107673  1
  Se  Se163  1  0.74495247  0.23819520  0.45098862  1
  Se  Se164  1  0.75035556  0.25064472  0.94783376  1
  Se  Se165  1  0.75599617  0.58183938  0.43996581  1
  Se  Se166  1  0.75596745  0.58506193  0.95198790  1
  Se  Se167  1  0.75896463  0.90890985  0.44222325  1
  Se  Se168  1  0.73811651  0.94696684  0.96086577  1
  Se  Se169  1  0.24710707  0.08247196  0.43908631  1
  Se  Se170  1  0.25255842  0.07041028  0.95848651  1
  Se  Se171  1  0.24976650  0.41846763  0.45271172  1
  Se  Se172  1  0.24928834  0.40801792  0.94170468  1
  Se  Se173  1  0.25604185  0.74525249  0.43910499  1
  Se  Se174  1  0.24211294  0.75571764  0.95197401  1
  Se  Se175  1  0.58947594  0.06691989  0.43866071  1
  Se  Se176  1  0.58517805  0.07987818  0.96745781  1
  Se  Se177  1  0.59589726  0.40292853  0.43309897  1
  Se  Se178  1  0.59290807  0.40940745  0.92970009  1
  Se  Se179  1  0.59397931  0.74780360  0.43957934  1
  Se  Se180  1  0.58774953  0.75284575  0.95358086  1
  Se  Se181  1  0.91203441  0.08378980  0.44332527  1
  Se  Se182  1  0.92070474  0.08806746  0.94550038  1
  Se  Se183  1  0.91591092  0.41471817  0.45075527  1
  Se  Se184  1  0.90655081  0.43643164  0.95184438  1
  Se  Se185  1  0.92228902  0.75197725  0.44439617  1
  Se  Se186  1  0.91258107  0.75780058  0.94515176  1
  Se  Se187  1  0.24325238  0.24891541  0.30127149  1
  Se  Se188  1  0.25651431  0.24588135  0.81071740  1
  Se  Se189  1  0.24942641  0.58394232  0.31019203  1
  Se  Se190  1  0.23406831  0.57531746  0.81673703  1
  Se  Se191  1  0.25777044  0.92340500  0.29119800  1
  Se  Se192  1  0.24862480  0.91812478  0.81011476  1
  Se  Se193  1  0.56847628  0.23402983  0.30597264  1
  Se  Se194  1  0.59060409  0.23593899  0.81608775  1
  Se  Se195  1  0.59039485  0.58266265  0.29237549  1
  Se  Se196  1  0.57080688  0.57489600  0.80699364  1
  Se  Se197  1  0.58737635  0.92182599  0.29519190  1
  Se  Se198  1  0.57700734  0.91728668  0.82181143  1
  Se  Se199  1  0.90050963  0.24484532  0.30383072  1
  Se  Se200  1  0.92655768  0.25491544  0.80824632  1
  Se  Se201  1  0.92515656  0.58892153  0.30367749  1
  Se  Se202  1  0.91482408  0.58345330  0.80477241  1
  Se  Se203  1  0.92101578  0.92071820  0.29899424  1
  Se  Se204  1  0.90519727  0.91997388  0.80159273  1
  Se  Se205  1  0.07815801  0.08322771  0.29493557  1
  Se  Se206  1  0.08281774  0.07990934  0.80757916  1
  Se  Se207  1  0.08374072  0.41951203  0.31210806  1
  Se  Se208  1  0.07881015  0.40886256  0.80214776  1
  Se  Se209  1  0.09370711  0.75527157  0.29516224  1
  Se  Se210  1  0.07395413  0.74789525  0.80062460  1
  Se  Se211  1  0.40714309  0.07715676  0.29684136  1
  Se  Se212  1  0.41667326  0.07898857  0.81888326  1
  Se  Se213  1  0.41137240  0.41412683  0.29769734  1
  Se  Se214  1  0.41222248  0.40807821  0.79593699  1
  Se  Se215  1  0.43113345  0.76263287  0.30876315  1
  Se  Se216  1  0.41330150  0.75985522  0.81523438  1
  Se  Se217  1  0.74531661  0.07645411  0.29861554  1
  Se  Se218  1  0.76491994  0.08711874  0.81425631  1
  Se  Se219  1  0.76372188  0.41709571  0.30629928  1
  Se  Se220  1  0.76169010  0.41421301  0.81471274  1
  Se  Se221  1  0.75487701  0.75037040  0.29980997  1
  Se  Se222  1  0.74916168  0.76412032  0.81803188  1
  Se  Se223  1  0.24984861  0.07781850  0.19013739  1
  Se  Se224  1  0.25567818  0.07324858  0.70293685  1
  Se  Se225  1  0.24830856  0.41010501  0.20466156  1
  Se  Se226  1  0.25285106  0.41471101  0.70055410  1
  Se  Se227  1  0.25589081  0.76492101  0.17505671  1
  Se  Se228  1  0.23518155  0.76149504  0.68966201  1
  Se  Se229  1  0.58753830  0.08246746  0.19005661  1
  Se  Se230  1  0.57677652  0.09392255  0.69511159  1
  Se  Se231  1  0.57496499  0.41776424  0.18524033  1
  Se  Se232  1  0.58092063  0.42608229  0.68801537  1
  Se  Se233  1  0.59604968  0.74995333  0.19711052  1
  Se  Se234  1  0.56475014  0.77232297  0.70563123  1
  Se  Se235  1  0.91917637  0.08119626  0.19283283  1
  Se  Se236  1  0.91875498  0.08013424  0.69842339  1
  Se  Se237  1  0.90909698  0.41938171  0.18687407  1
  Se  Se238  1  0.91425905  0.40780631  0.69456199  1
  Se  Se239  1  0.92545810  0.74901809  0.19620754  1
  Se  Se240  1  0.90951040  0.74111227  0.70486236  1
  Se  Se241  1  0.08213424  0.23672035  0.18045262  1
  Se  Se242  1  0.09307390  0.24301582  0.70162998  1
  Se  Se243  1  0.08299744  0.58665845  0.20286112  1
  Se  Se244  1  0.07800041  0.58293309  0.70166803  1
  Se  Se245  1  0.08225049  0.92075970  0.18893531  1
  Se  Se246  1  0.07782948  0.92098776  0.70344297  1
  Se  Se247  1  0.40449912  0.24621042  0.19524608  1
  Se  Se248  1  0.41482016  0.24835447  0.70504683  1
  Se  Se249  1  0.42089377  0.57999005  0.18591597  1
  Se  Se250  1  0.41240095  0.58653553  0.68786137  1
  Se  Se251  1  0.41425253  0.91717138  0.18930694  1
  Se  Se252  1  0.41536066  0.92049431  0.71233643  1
  Se  Se253  1  0.74552488  0.24059477  0.18156018  1
  Se  Se254  1  0.76284394  0.24272589  0.69039601  1
  Se  Se255  1  0.75215008  0.59150332  0.20023985  1
  Se  Se256  1  0.75562428  0.58059940  0.69603098  1
  Se  Se257  1  0.75327911  0.91979849  0.19542314  1
  Se  Se258  1  0.75284027  0.91116737  0.69435710  1
