# generated using pymatgen
data_In86Cu29Se144
_symmetry_space_group_name_H-M   'P 1'
_cell_length_a   17.61351784
_cell_length_b   17.61093741
_cell_length_c   23.46528645
_cell_angle_alpha   89.99879598
_cell_angle_beta   89.99271007
_cell_angle_gamma   90.00474624
_symmetry_Int_Tables_number   1
_chemical_formula_structural   In86Cu29Se144
_chemical_formula_sum   'In86 Cu29 Se144'
_cell_volume   7278.71026411
_cell_formula_units_Z   1
loop_
 _symmetry_equiv_pos_site_id
 _symmetry_equiv_pos_as_xyz
  1  'x, y, z'
loop_
 _atom_site_type_symbol
 _atom_site_label
 _atom_site_symmetry_multiplicity
 _atom_site_fract_x
 _atom_site_fract_y
 _atom_site_fract_z
 _atom_site_occupancy
  In  In0  1  -0.00502223  0.17259667  0.12712037  1
  In  In1  1  -0.00068464  0.17382640  0.62513553  1
  In  In2  1  0.01082966  0.49135608  0.14413098  1
  In  In3  1  -0.00526479  0.50452069  0.61909824  1
  In  In4  1  -0.00682826  0.82153062  0.11412056  1
  In  In5  1  0.01071479  0.81093037  0.63253832  1
  In  In6  1  0.33883571  0.16309242  0.13748526  1
  In  In7  1  0.34699650  0.17918785  0.61473767  1
  In  In8  1  0.30928839  0.51295655  0.15018073  1
  In  In9  1  0.33401203  0.49770378  0.62678294  1
  In  In10  1  0.32752742  0.83369935  0.12503935  1
  In  In11  1  0.31446696  0.82237267  0.61899467  1
  In  In12  1  0.65829904  0.18697373  0.13277277  1
  In  In13  1  0.66033660  0.19621596  0.62545190  1
  In  In14  1  0.67057535  0.50049541  0.14102376  1
  In  In15  1  0.66460780  0.49733970  0.61990654  1
  In  In16  1  0.67192806  0.82094616  0.12642221  1
  In  In17  1  0.66051109  0.82505366  0.62252992  1
  In  In18  1  0.16797096  -0.01334650  0.37685480  1
  In  In19  1  0.15958200  -0.01226791  0.87430409  1
  In  In20  1  0.19066684  0.36646395  0.35064480  1
  In  In21  1  0.17761861  0.34498404  0.86049326  1
  In  In22  1  0.16874707  0.66088882  0.37509254  1
  In  In23  1  0.16622609  0.66790745  0.87386499  1
  In  In24  1  0.50006462  0.01795426  0.37454694  1
  In  In25  1  0.50995121  0.00784782  0.88106758  1
  In  In26  1  0.49775933  0.33397924  0.37886057  1
  In  In27  1  0.49428170  0.33039344  0.87591679  1
  In  In28  1  0.48948064  0.65593958  0.37342849  1
  In  In29  1  0.49462110  0.65575828  0.86733853  1
  In  In30  1  0.83712331  0.00211347  0.37644707  1
  In  In31  1  0.82409433  -0.00626590  0.88065794  1
  In  In32  1  0.86216704  0.37162150  0.33994087  1
  In  In33  1  0.84666228  0.34555397  0.86433567  1
  In  In34  1  0.81752976  0.62965485  0.34204108  1
  In  In35  1  0.84076975  0.67407373  0.87122586  1
  In  In36  1  -0.00232127  0.19063120  0.37433944  1
  In  In37  1  0.00176589  0.18395955  0.87543007  1
  In  In38  1  0.00908591  0.50438260  0.37331029  1
  In  In39  1  0.02228226  0.51877829  0.85228330  1
  In  In40  1  0.01863584  0.82218784  0.38203068  1
  In  In41  1  0.01368454  0.81258548  0.89040031  1
  In  In42  1  0.36401857  0.18370022  0.35115859  1
  In  In43  1  0.33670632  0.18201560  0.88055843  1
  In  In44  1  0.33259012  0.51077966  0.37918521  1
  In  In45  1  0.32090589  0.49505983  0.86405441  1
  In  In46  1  0.32085288  0.82022173  0.36435037  1
  In  In47  1  0.32700461  0.81447679  0.87246680  1
  In  In48  1  0.65645319  0.18444336  0.37094607  1
  In  In49  1  0.66189260  0.16689673  0.87944933  1
  In  In50  1  0.66471786  0.49099641  0.37327971  1
  In  In51  1  0.66942727  0.49801985  0.86423147  1
  In  In52  1  0.68367857  0.82683082  0.37523583  1
  In  In53  1  0.67168069  0.83357367  0.87873045  1
  In  In54  1  0.17917774  -0.00520010  0.12138717  1
  In  In55  1  0.17474898  -0.00697018  0.62103808  1
  In  In56  1  0.16444810  0.34444217  0.13847780  1
  In  In57  1  0.14763355  0.35908102  0.64015191  1
  In  In58  1  0.16188289  0.66039131  0.12765716  1
  In  In59  1  0.16191537  0.65939628  0.62589181  1
  In  In60  1  0.48254871  0.00336369  0.12598794  1
  In  In61  1  0.48608313  0.00995001  0.62019259  1
  In  In62  1  0.49464140  0.33078383  0.13165506  1
  In  In63  1  0.49799851  0.33860262  0.61985642  1
  In  In64  1  0.50141274  0.66152034  0.13561664  1
  In  In65  1  0.51554825  0.65240267  0.62819799  1
  In  In66  1  0.84108246  -0.00663440  0.12072316  1
  In  In67  1  0.83193843  0.00164083  0.62218962  1
  In  In68  1  0.83400291  0.33964579  0.14259645  1
  In  In69  1  0.82032881  0.33832635  0.62970377  1
  In  In70  1  0.82826154  0.66639624  0.13118934  1
  In  In71  1  0.84540966  0.65079664  0.62997456  1
  In  In72  1  0.49500030  0.83450665  0.00204177  1
  In  In73  1  -0.00278360  0.00041839  0.75208474  1
  In  In74  1  0.00297265  0.00012896  0.24759936  1
  In  In75  1  0.84450310  0.82458045  0.49964480  1
  In  In76  1  0.49590883  0.49601593  0.00856501  1
  In  In77  1  0.49730982  0.83092507  0.49465691  1
  In  In78  1  0.82777000  0.17625429  0.49197813  1
  In  In79  1  0.83958229  0.50116347  0.00138896  1
  In  In80  1  0.17778044  0.17213487  0.49471887  1
  In  In81  1  0.33534763  -0.00243537  0.75186347  1
  In  In82  1  0.66043105  0.00158745  0.25761280  1
  In  In83  1  0.17094710  0.16657789  0.00868513  1
  In  In84  1  0.66790193  0.00445610  0.75751429  1
  In  In85  1  0.83258093  0.16956946  0.00140007  1
  Cu  Cu86  1  0.00259428  0.66166489  0.49716511  1
  Cu  Cu87  1  0.67464692  0.65406827  0.49475677  1
  Cu  Cu88  1  0.33132888  0.33918099  0.00211577  1
  Cu  Cu89  1  0.16892442  0.82951914  0.24774359  1
  Cu  Cu90  1  0.17511078  0.16924818  0.74680455  1
  Cu  Cu91  1  0.16004319  0.16385507  0.24634158  1
  Cu  Cu92  1  0.66374317  0.34089875  0.49633637  1
  Cu  Cu93  1  0.66216034  0.00993779  0.49822925  1
  Cu  Cu94  1  -0.00026759  0.34656706  0.49521457  1
  Cu  Cu95  1  0.00524854  0.65686372  -0.00042920  1
  Cu  Cu96  1  0.33298788  0.00130218  0.00111689  1
  Cu  Cu97  1  0.00346323  -0.00348557  0.50127949  1
  Cu  Cu98  1  0.32899417  0.66498457  0.50163540  1
  Cu  Cu99  1  0.82682975  0.49554404  0.74407337  1
  Cu  Cu100  1  0.67124675  0.66857187  0.00142024  1
  Cu  Cu101  1  0.49917470  0.83142233  0.24900557  1
  Cu  Cu102  1  -0.00116984  -0.00763021  -0.00242125  1
  Cu  Cu103  1  0.66339877  0.00408880  0.00251406  1
  Cu  Cu104  1  0.50493024  0.49559977  0.74559388  1
  Cu  Cu105  1  0.84169481  0.83125474  0.25003461  1
  Cu  Cu106  1  0.32546543  0.33865108  0.49543838  1
  Cu  Cu107  1  0.50617285  0.17517501  0.74895221  1
  Cu  Cu108  1  0.00772521  0.34508309  0.00507895  1
  Cu  Cu109  1  0.49658198  0.82629939  0.74566324  1
  Cu  Cu110  1  0.83185535  0.83339556  0.75403643  1
  Cu  Cu111  1  0.49933491  0.49706117  0.25601709  1
  Cu  Cu112  1  0.32366296  0.65751486  0.00187507  1
  Cu  Cu113  1  0.66740435  0.33543363  0.00346411  1
  Cu  Cu114  1  0.33324987  0.00114236  0.49375240  1
  Se  Se115  1  0.07220718  0.07394570  0.06089551  1
  Se  Se116  1  0.08228008  0.08214075  0.55797756  1
  Se  Se117  1  0.08797788  0.42283914  0.06345255  1
  Se  Se118  1  0.08450922  0.42284933  0.55282397  1
  Se  Se119  1  0.08745291  0.74355217  0.05242187  1
  Se  Se120  1  0.08450341  0.74612591  0.55172477  1
  Se  Se121  1  0.40884579  0.08859068  0.05481528  1
  Se  Se122  1  0.41585769  0.08786005  0.54364348  1
  Se  Se123  1  0.39994732  0.41898604  0.07029900  1
  Se  Se124  1  0.41240202  0.41807870  0.55160327  1
  Se  Se125  1  0.41224097  0.73447309  0.05845069  1
  Se  Se126  1  0.41665980  0.74109526  0.56031175  1
  Se  Se127  1  0.74222872  0.08337751  0.06437579  1
  Se  Se128  1  0.74185500  0.08788751  0.56013785  1
  Se  Se129  1  0.74690000  0.41459148  0.06295124  1
  Se  Se130  1  0.75189646  0.41667911  0.55144678  1
  Se  Se131  1  0.75593342  0.74872232  0.05406847  1
  Se  Se132  1  0.74779928  0.73909045  0.55706705  1
  Se  Se133  1  0.25603466  0.25986263  0.06720015  1
  Se  Se134  1  0.24643236  0.26800564  0.56393786  1
  Se  Se135  1  0.24786279  0.57478856  0.06050796  1
  Se  Se136  1  0.25013600  0.58076629  0.55784634  1
  Se  Se137  1  0.25159305  0.91163606  0.04842274  1
  Se  Se138  1  0.25229424  0.91655119  0.54703315  1
  Se  Se139  1  0.57979639  0.25816102  0.05642688  1
  Se  Se140  1  0.57878946  0.25459045  0.54700563  1
  Se  Se141  1  0.59413058  0.58746418  0.06172617  1
  Se  Se142  1  0.58390847  0.57909772  0.54742569  1
  Se  Se143  1  0.58671799  0.92169660  0.06407824  1
  Se  Se144  1  0.58606057  0.92597682  0.55719666  1
  Se  Se145  1  0.91909051  0.26839526  0.05893973  1
  Se  Se146  1  0.92160382  0.26057280  0.55367373  1
  Se  Se147  1  0.92734437  0.58421255  0.06653055  1
  Se  Se148  1  0.91085272  0.58212763  0.54628705  1
  Se  Se149  1  0.91194931  0.91040175  0.04803714  1
  Se  Se150  1  0.92805357  0.91713364  0.56388109  1
  Se  Se151  1  0.08649168  0.26652131  0.44172118  1
  Se  Se152  1  0.08619584  0.25968806  0.94856491  1
  Se  Se153  1  0.09104634  0.57857055  0.44813123  1
  Se  Se154  1  0.08592875  0.57693869  0.94108377  1
  Se  Se155  1  0.08842161  0.91267874  0.45208909  1
  Se  Se156  1  0.08920021  0.91071220  0.95163132  1
  Se  Se157  1  0.40663256  0.25083302  0.44438585  1
  Se  Se158  1  0.41819434  0.25503199  0.95390945  1
  Se  Se159  1  0.41861829  0.58351511  0.45318541  1
  Se  Se160  1  0.40961267  0.58214447  0.94324245  1
  Se  Se161  1  0.41018703  0.91831863  0.43228980  1
  Se  Se162  1  0.40830116  0.92225290  0.93645335  1
  Se  Se163  1  0.74697777  0.26962683  0.43256040  1
  Se  Se164  1  0.75075901  0.26449689  0.93987380  1
  Se  Se165  1  0.75592017  0.57804500  0.43487968  1
  Se  Se166  1  0.74481730  0.58557353  0.94028472  1
  Se  Se167  1  0.74765150  0.92566932  0.44918489  1
  Se  Se168  1  0.74483530  0.91586641  0.95282448  1
  Se  Se169  1  0.26001196  0.08241337  0.43093240  1
  Se  Se170  1  0.25202170  0.07780018  0.93770706  1
  Se  Se171  1  0.24312848  0.42434585  0.44381229  1
  Se  Se172  1  0.25027066  0.41499705  0.94143854  1
  Se  Se173  1  0.24978597  0.74856075  0.44508389  1
  Se  Se174  1  0.24721800  0.74722374  0.94907414  1
  Se  Se175  1  0.58535770  0.09429673  0.44375198  1
  Se  Se176  1  0.58121573  0.09156678  0.95386222  1
  Se  Se177  1  0.57535413  0.42274127  0.44677756  1
  Se  Se178  1  0.59094275  0.41742583  0.94343787  1
  Se  Se179  1  0.59472561  0.74199084  0.44014358  1
  Se  Se180  1  0.58211846  0.73976289  0.94223566  1
  Se  Se181  1  0.92942801  0.08098858  0.44317931  1
  Se  Se182  1  0.92545962  0.08039293  0.94030366  1
  Se  Se183  1  0.91363512  0.42190430  0.43670286  1
  Se  Se184  1  0.93190561  0.41901051  0.93884036  1
  Se  Se185  1  0.91884355  0.73398373  0.43366059  1
  Se  Se186  1  0.91443188  0.74152095  0.95312642  1
  Se  Se187  1  0.24036361  0.23984427  0.30787061  1
  Se  Se188  1  0.25969755  0.24859376  0.80202492  1
  Se  Se189  1  0.24837430  0.58070447  0.30418874  1
  Se  Se190  1  0.25653782  0.59672177  0.80375484  1
  Se  Se191  1  0.24807204  0.91769645  0.29943651  1
  Se  Se192  1  0.24159548  0.90438609  0.80327128  1
  Se  Se193  1  0.55297867  0.23601833  0.30440351  1
  Se  Se194  1  0.58557060  0.25181391  0.80938286  1
  Se  Se195  1  0.58304105  0.58326110  0.30745212  1
  Se  Se196  1  0.58516548  0.58240281  0.79966769  1
  Se  Se197  1  0.57624435  0.90395591  0.31714425  1
  Se  Se198  1  0.57173434  0.90788620  0.80861532  1
  Se  Se199  1  0.90329584  0.23969166  0.30145478  1
  Se  Se200  1  0.91625721  0.24556280  0.80222560  1
  Se  Se201  1  0.94875128  0.60204164  0.30159038  1
  Se  Se202  1  0.90472916  0.57777811  0.80271512  1
  Se  Se203  1  0.91840335  0.90812423  0.31306742  1
  Se  Se204  1  0.91246410  0.90958810  0.81514225  1
  Se  Se205  1  0.08425641  0.08847991  0.31429934  1
  Se  Se206  1  0.09419685  0.09271702  0.80900874  1
  Se  Se207  1  0.05708144  0.38966733  0.31091729  1
  Se  Se208  1  0.06771199  0.39813297  0.80122377  1
  Se  Se209  1  0.08823755  0.74774268  0.30359111  1
  Se  Se210  1  0.07373997  0.74489753  0.80716596  1
  Se  Se211  1  0.41124493  0.06595365  0.29622010  1
  Se  Se212  1  0.42701202  0.09153290  0.80912652  1
  Se  Se213  1  0.41433850  0.42104389  0.31323396  1
  Se  Se214  1  0.42293892  0.41914743  0.80644347  1
  Se  Se215  1  0.41811868  0.74607310  0.30316942  1
  Se  Se216  1  0.41580162  0.74553411  0.80201639  1
  Se  Se217  1  0.75508376  0.09077183  0.31269783  1
  Se  Se218  1  0.76251925  0.09477785  0.81182285  1
  Se  Se219  1  0.73019757  0.40296053  0.29896618  1
  Se  Se220  1  0.74674199  0.40954100  0.79834233  1
  Se  Se221  1  0.75177335  0.74954879  0.29784020  1
  Se  Se222  1  0.74605027  0.75136923  0.80643474  1
  Se  Se223  1  0.24409209  0.07941346  0.19625803  1
  Se  Se224  1  0.25310619  0.09049976  0.68559473  1
  Se  Se225  1  0.25411728  0.40549050  0.21280547  1
  Se  Se226  1  0.25790007  0.41379775  0.69861899  1
  Se  Se227  1  0.25062577  0.74684415  0.19252306  1
  Se  Se228  1  0.24570376  0.74503372  0.69362749  1
  Se  Se229  1  0.57510241  0.08570773  0.19160441  1
  Se  Se230  1  0.57873133  0.08661714  0.68975315  1
  Se  Se231  1  0.57893410  0.41525875  0.19853667  1
  Se  Se232  1  0.58632388  0.41218349  0.69088238  1
  Se  Se233  1  0.58601087  0.75053016  0.19794593  1
  Se  Se234  1  0.58757974  0.74662033  0.69665569  1
  Se  Se235  1  0.90463727  0.08851170  0.19346163  1
  Se  Se236  1  0.90798734  0.09018385  0.69147731  1
  Se  Se237  1  0.90338277  0.43509915  0.20599001  1
  Se  Se238  1  0.91465325  0.41806798  0.68985799  1
  Se  Se239  1  0.92110065  0.74948877  0.19350190  1
  Se  Se240  1  0.91019892  0.74977252  0.69741210  1
  Se  Se241  1  0.07774237  0.24938187  0.19614923  1
  Se  Se242  1  0.08448750  0.24662811  0.69550969  1
  Se  Se243  1  0.10082518  0.57404722  0.20540249  1
  Se  Se244  1  0.06213462  0.59400079  0.69097404  1
  Se  Se245  1  0.08731233  0.90792374  0.18594438  1
  Se  Se246  1  0.09071003  0.91327095  0.69323810  1
  Se  Se247  1  0.41753927  0.24870442  0.20354147  1
  Se  Se248  1  0.42042465  0.25208171  0.69271479  1
  Se  Se249  1  0.41733887  0.58424853  0.20449070  1
  Se  Se250  1  0.42163953  0.58116787  0.69417899  1
  Se  Se251  1  0.41487792  0.91065559  0.19431378  1
  Se  Se252  1  0.42008172  0.90701902  0.68611260  1
  Se  Se253  1  0.75299494  0.24684580  0.20124339  1
  Se  Se254  1  0.75661772  0.24095410  0.69788882  1
  Se  Se255  1  0.75443876  0.58474407  0.20443443  1
  Se  Se256  1  0.74452200  0.58152036  0.69183286  1
  Se  Se257  1  0.75613655  0.91420944  0.19545723  1
  Se  Se258  1  0.75284611  0.91048650  0.69212314  1
