# generated using pymatgen
data_In86Cu29Se144
_symmetry_space_group_name_H-M   'P 1'
_cell_length_a   17.53520649
_cell_length_b   17.53567429
_cell_length_c   23.39092942
_cell_angle_alpha   89.99763411
_cell_angle_beta   90.00672277
_cell_angle_gamma   89.99491216
_symmetry_Int_Tables_number   1
_chemical_formula_structural   In86Cu29Se144
_chemical_formula_sum   'In86 Cu29 Se144'
_cell_volume   7192.51585999
_cell_formula_units_Z   1
loop_
 _symmetry_equiv_pos_site_id
 _symmetry_equiv_pos_as_xyz
  1  'x, y, z'
loop_
 _atom_site_type_symbol
 _atom_site_label
 _atom_site_symmetry_multiplicity
 _atom_site_fract_x
 _atom_site_fract_y
 _atom_site_fract_z
 _atom_site_occupancy
  In  In0  1  -0.00627294  0.17255587  0.12362959  1
  In  In1  1  0.00366375  0.16471675  0.62779101  1
  In  In2  1  0.00664854  0.51353079  0.12639979  1
  In  In3  1  0.01824473  0.50181434  0.61967040  1
  In  In4  1  -0.00446122  0.81876232  0.11576923  1
  In  In5  1  0.02097007  0.81911695  0.64750861  1
  In  In6  1  0.33339072  0.15641891  0.13095607  1
  In  In7  1  0.33316456  0.18071126  0.62101066  1
  In  In8  1  0.34101389  0.50284923  0.15113717  1
  In  In9  1  0.32976667  0.51302536  0.62240174  1
  In  In10  1  0.33401346  0.83411997  0.12194296  1
  In  In11  1  0.32309023  0.81638708  0.61524992  1
  In  In12  1  0.67005459  0.17363382  0.11238610  1
  In  In13  1  0.67517778  0.16161466  0.63895557  1
  In  In14  1  0.66747379  0.49154777  0.13141308  1
  In  In15  1  0.66667289  0.49915227  0.63472149  1
  In  In16  1  0.65852980  0.82761818  0.10663105  1
  In  In17  1  0.66279092  0.83645821  0.63468991  1
  In  In18  1  0.17442967  -0.00917708  0.37920738  1
  In  In19  1  0.15040466  -0.00883296  0.86675209  1
  In  In20  1  0.17293423  0.32681799  0.38399310  1
  In  In21  1  0.17416158  0.33922884  0.87624632  1
  In  In22  1  0.16698497  0.66792460  0.36998685  1
  In  In23  1  0.17661883  0.68007401  0.86059176  1
  In  In24  1  0.48189430  0.00272885  0.37475990  1
  In  In25  1  0.51911952  -0.01621957  0.89797463  1
  In  In26  1  0.49663924  0.33789052  0.36002889  1
  In  In27  1  0.50548613  0.30635381  0.88943201  1
  In  In28  1  0.49878446  0.66751663  0.36664711  1
  In  In29  1  0.50956279  0.67708029  0.87194698  1
  In  In30  1  0.83290713  -0.00255743  0.37292451  1
  In  In31  1  0.82917702  -0.00398004  0.88616717  1
  In  In32  1  0.83483873  0.34303912  0.36918893  1
  In  In33  1  0.82068479  0.34983137  0.88559540  1
  In  In34  1  0.82491345  0.65383482  0.36332532  1
  In  In35  1  0.83656920  0.67019918  0.87780603  1
  In  In36  1  0.01735002  0.18140146  0.37414683  1
  In  In37  1  -0.00125354  0.14877671  0.87399091  1
  In  In38  1  -0.00644468  0.51029324  0.37627944  1
  In  In39  1  -0.01315789  0.50453115  0.87957231  1
  In  In40  1  0.01778137  0.83145972  0.37789028  1
  In  In41  1  0.00093533  0.83009474  0.87612977  1
  In  In42  1  0.31242992  0.15524819  0.35182817  1
  In  In43  1  0.36049706  0.16744566  0.88839062  1
  In  In44  1  0.31363442  0.48375796  0.34563774  1
  In  In45  1  0.32409987  0.50565453  0.87934224  1
  In  In46  1  0.33164923  0.83322749  0.37268742  1
  In  In47  1  0.33528025  0.83033420  0.87916294  1
  In  In48  1  0.65269185  0.16787821  0.37199459  1
  In  In49  1  0.66539648  0.16489107  0.88299144  1
  In  In50  1  0.65563338  0.49508660  0.35336899  1
  In  In51  1  0.67421800  0.51205663  0.87088902  1
  In  In52  1  0.65911456  0.81301124  0.37009437  1
  In  In53  1  0.66984807  0.83516330  0.88164172  1
  In  In54  1  0.18902936  -0.00307639  0.13005074  1
  In  In55  1  0.16008426  -0.01006153  0.61998009  1
  In  In56  1  0.17780462  0.33156825  0.13610522  1
  In  In57  1  0.16610397  0.34038642  0.60380652  1
  In  In58  1  0.16315224  0.66515570  0.13621643  1
  In  In59  1  0.16728808  0.67110450  0.62514946  1
  In  In60  1  0.49482303  -0.00964641  0.10912882  1
  In  In61  1  0.51375984  -0.00790384  0.63011467  1
  In  In62  1  0.49919445  0.33627372  0.13132024  1
  In  In63  1  0.50357293  0.33719904  0.62939011  1
  In  In64  1  0.49626536  0.67792131  0.13322400  1
  In  In65  1  0.48548097  0.67315272  0.63395125  1
  In  In66  1  0.82222113  -0.00395770  0.10313747  1
  In  In67  1  0.84014680  -0.00511831  0.64176258  1
  In  In68  1  0.82043444  0.32291425  0.11346614  1
  In  In69  1  0.83054537  0.32250303  0.63064857  1
  In  In70  1  0.83613169  0.66209432  0.11952937  1
  In  In71  1  0.82947742  0.67358297  0.63356926  1
  In  In72  1  0.34053807  0.33742823  0.75384768  1
  In  In73  1  0.33191120  -0.00802397  0.75566557  1
  In  In74  1  0.66205634  -0.00333407  0.23021659  1
  In  In75  1  -0.00634725  0.33938667  0.74755092  1
  In  In76  1  0.49903941  0.50134268  0.01445661  1
  In  In77  1  -0.00031591  -0.00665257  0.25316726  1
  In  In78  1  0.49227278  0.16641640  0.49978224  1
  In  In79  1  0.83753601  0.50339421  0.49189140  1
  In  In80  1  0.16313430  0.15451347  0.00157932  1
  In  In81  1  0.84143536  0.83250232  0.50914763  1
  In  In82  1  0.00200186  0.33429813  0.24649113  1
  In  In83  1  0.48903518  0.50414079  0.48974357  1
  In  In84  1  0.84438490  0.16515620  0.51141768  1
  In  In85  1  0.16801424  0.50434583  0.01184930  1
  Cu  Cu86  1  0.16972987  0.83167716  0.24990503  1
  Cu  Cu87  1  0.16781330  0.51045349  0.74647228  1
  Cu  Cu88  1  0.82593934  0.16434659  0.23793431  1
  Cu  Cu89  1  0.00571223  0.66841884  -0.00172041  1
  Cu  Cu90  1  0.51655970  0.15773707  0.76104183  1
  Cu  Cu91  1  0.50021112  0.83299745  0.75807185  1
  Cu  Cu92  1  0.49804548  0.17535900  0.24666803  1
  Cu  Cu93  1  0.67423951  0.66673037  -0.00356080  1
  Cu  Cu94  1  0.82756958  0.17154881  0.76027250  1
  Cu  Cu95  1  0.32655762  0.66922113  0.49550640  1
  Cu  Cu96  1  0.49891273  0.84500405  0.24553418  1
  Cu  Cu97  1  0.82856719  0.83919188  0.76202719  1
  Cu  Cu98  1  0.83551095  0.81347190  0.24010623  1
  Cu  Cu99  1  0.33609927  0.67189743  0.00298689  1
  Cu  Cu100  1  -0.00418632  0.32921860  0.00038401  1
  Cu  Cu101  1  0.00965394  0.00715745  0.50379174  1
  Cu  Cu102  1  0.83119717  0.50885620  0.75492612  1
  Cu  Cu103  1  0.33094464  -0.00278355  0.49505563  1
  Cu  Cu104  1  0.66448574  -0.01605405  0.50678287  1
  Cu  Cu105  1  0.00155332  -0.00919798  -0.00220846  1
  Cu  Cu106  1  0.32855808  -0.00499479  -0.00015318  1
  Cu  Cu107  1  0.00455807  0.67473623  0.49919106  1
  Cu  Cu108  1  0.50533868  0.49217242  0.75469531  1
  Cu  Cu109  1  0.66143792  0.34060725  0.00102829  1
  Cu  Cu110  1  0.67163364  0.33075212  0.49713015  1
  Cu  Cu111  1  0.17114437  0.16495116  0.74816177  1
  Cu  Cu112  1  0.83301189  0.49618522  0.24300742  1
  Cu  Cu113  1  0.33199636  0.33389410  0.48670982  1
  Cu  Cu114  1  0.64975993  0.66437824  0.49743627  1
  Se  Se115  1  0.07583770  0.06712245  0.06634609  1
  Se  Se116  1  0.09151472  0.09236676  0.55643347  1
  Se  Se117  1  0.07763226  0.40274169  0.06391219  1
  Se  Se118  1  0.08735186  0.42983933  0.54054947  1
  Se  Se119  1  0.09473217  0.74212677  0.05511156  1
  Se  Se120  1  0.08152874  0.75775553  0.55805420  1
  Se  Se121  1  0.40757560  0.08397084  0.05149965  1
  Se  Se122  1  0.41013115  0.07107175  0.56322362  1
  Se  Se123  1  0.39897484  0.41767713  0.06840970  1
  Se  Se124  1  0.40929818  0.40704809  0.55636407  1
  Se  Se125  1  0.42363144  0.75357850  0.05454720  1
  Se  Se126  1  0.41861895  0.74311962  0.54945500  1
  Se  Se127  1  0.74477771  0.08899149  0.04191578  1
  Se  Se128  1  0.74682917  0.06961581  0.56264032  1
  Se  Se129  1  0.74730156  0.42351447  0.05232421  1
  Se  Se130  1  0.74819913  0.41268352  0.55825018  1
  Se  Se131  1  0.75931037  0.75052388  0.04917657  1
  Se  Se132  1  0.73845704  0.74072749  0.55593827  1
  Se  Se133  1  0.24909863  0.24827327  0.05955228  1
  Se  Se134  1  0.25331217  0.24918900  0.54456045  1
  Se  Se135  1  0.26637193  0.58870967  0.06785533  1
  Se  Se136  1  0.24409783  0.58630894  0.55153175  1
  Se  Se137  1  0.24487371  0.91056272  0.05112851  1
  Se  Se138  1  0.24957733  0.91443771  0.55220067  1
  Se  Se139  1  0.57626046  0.26045998  0.05473652  1
  Se  Se140  1  0.59297996  0.24987777  0.55984398  1
  Se  Se141  1  0.59357345  0.59630871  0.06385533  1
  Se  Se142  1  0.57925228  0.58110041  0.56147689  1
  Se  Se143  1  0.60431974  0.93812370  0.04469730  1
  Se  Se144  1  0.57830037  0.90200386  0.55604999  1
  Se  Se145  1  0.91158470  0.24196425  0.04869603  1
  Se  Se146  1  0.93346619  0.26822480  0.55952372  1
  Se  Se147  1  0.92384753  0.58126781  0.05050028  1
  Se  Se148  1  0.91897060  0.59682375  0.55808503  1
  Se  Se149  1  0.91525105  0.90672959  0.04851596  1
  Se  Se150  1  0.92965283  0.92668332  0.56529851  1
  Se  Se151  1  0.08839342  0.24860456  0.45385865  1
  Se  Se152  1  0.07881064  0.25362456  0.93827417  1
  Se  Se153  1  0.08166062  0.58991045  0.44226333  1
  Se  Se154  1  0.08856173  0.58726468  0.93881479  1
  Se  Se155  1  0.08701909  0.91677297  0.45095521  1
  Se  Se156  1  0.08888540  0.91056535  0.94675830  1
  Se  Se157  1  0.41221828  0.25085781  0.42889117  1
  Se  Se158  1  0.40047758  0.26998314  0.96052697  1
  Se  Se159  1  0.39725134  0.58682976  0.42873674  1
  Se  Se160  1  0.41687500  0.58977289  0.94435532  1
  Se  Se161  1  0.41691981  0.91206375  0.44629479  1
  Se  Se162  1  0.41577024  0.90792241  0.95277388  1
  Se  Se163  1  0.75153110  0.24668386  0.44002960  1
  Se  Se164  1  0.74663559  0.25480649  0.94983015  1
  Se  Se165  1  0.73144548  0.58293331  0.43819808  1
  Se  Se166  1  0.75730446  0.58014756  0.94668030  1
  Se  Se167  1  0.74692728  0.91299341  0.44119513  1
  Se  Se168  1  0.73073618  0.93102253  0.95445169  1
  Se  Se169  1  0.25470692  0.08724643  0.44080961  1
  Se  Se170  1  0.25313783  0.07296613  0.93346277  1
  Se  Se171  1  0.25588315  0.42872806  0.43904976  1
  Se  Se172  1  0.25819089  0.41029266  0.95263225  1
  Se  Se173  1  0.24414380  0.75537160  0.44192803  1
  Se  Se174  1  0.24831355  0.74515103  0.94502047  1
  Se  Se175  1  0.58930127  0.07137766  0.44616346  1
  Se  Se176  1  0.54828403  0.11545559  0.94125006  1
  Se  Se177  1  0.58888193  0.41012970  0.43799050  1
  Se  Se178  1  0.58295435  0.42299015  0.94043033  1
  Se  Se179  1  0.57021952  0.75035309  0.44468320  1
  Se  Se180  1  0.58385488  0.75075543  0.94980161  1
  Se  Se181  1  0.92658416  0.07865353  0.43931613  1
  Se  Se182  1  0.91923680  0.08156973  0.95151771  1
  Se  Se183  1  0.92884049  0.40330658  0.44360350  1
  Se  Se184  1  0.91569500  0.42087907  0.95308995  1
  Se  Se185  1  0.91550184  0.74181361  0.43536753  1
  Se  Se186  1  0.91742109  0.75222940  0.94882350  1
  Se  Se187  1  0.25864317  0.27386204  0.30261880  1
  Se  Se188  1  0.25281824  0.23926068  0.81301390  1
  Se  Se189  1  0.26094100  0.60493086  0.29866529  1
  Se  Se190  1  0.25875455  0.58464832  0.80049588  1
  Se  Se191  1  0.25211487  0.91900337  0.30128214  1
  Se  Se192  1  0.23649742  0.89798957  0.80455688  1
  Se  Se193  1  0.58799729  0.25356872  0.29731379  1
  Se  Se194  1  0.59059543  0.25383861  0.80880510  1
  Se  Se195  1  0.59238265  0.60058651  0.29617222  1
  Se  Se196  1  0.58379197  0.58630000  0.80332485  1
  Se  Se197  1  0.58126924  0.91984987  0.30849581  1
  Se  Se198  1  0.58308893  0.91716676  0.81171122  1
  Se  Se199  1  0.90860682  0.23757315  0.30412878  1
  Se  Se200  1  0.91169342  0.25335429  0.81741386  1
  Se  Se201  1  0.91680796  0.57867644  0.29647243  1
  Se  Se202  1  0.91930698  0.58913086  0.80474758  1
  Se  Se203  1  0.90546001  0.89732682  0.30669362  1
  Se  Se204  1  0.91485254  0.92162363  0.81375128  1
  Se  Se205  1  0.09158745  0.08547630  0.30833633  1
  Se  Se206  1  0.08169263  0.08395181  0.79651520  1
  Se  Se207  1  0.08183497  0.41617075  0.31676034  1
  Se  Se208  1  0.09004396  0.42656625  0.80757880  1
  Se  Se209  1  0.08008029  0.75007579  0.29958725  1
  Se  Se210  1  0.06855098  0.74128490  0.80292573  1
  Se  Se211  1  0.41803561  0.08267810  0.29591444  1
  Se  Se212  1  0.42878275  0.07732183  0.81478432  1
  Se  Se213  1  0.43315706  0.43439657  0.29237130  1
  Se  Se214  1  0.42695571  0.41924131  0.82201679  1
  Se  Se215  1  0.41930168  0.75938419  0.30140643  1
  Se  Se216  1  0.41293089  0.74856369  0.80639626  1
  Se  Se217  1  0.74851651  0.08380996  0.30207103  1
  Se  Se218  1  0.75056059  0.08334525  0.81502433  1
  Se  Se219  1  0.74984430  0.40965585  0.29512004  1
  Se  Se220  1  0.74985385  0.41898205  0.80332923  1
  Se  Se221  1  0.74449252  0.74252472  0.29703977  1
  Se  Se222  1  0.74688264  0.74959832  0.81091402  1
  Se  Se223  1  0.24701625  0.08592946  0.20429937  1
  Se  Se224  1  0.25378629  0.08783800  0.68857816  1
  Se  Se225  1  0.22770250  0.43635297  0.20177845  1
  Se  Se226  1  0.24304266  0.41857829  0.68900951  1
  Se  Se227  1  0.25602657  0.75157313  0.19491118  1
  Se  Se228  1  0.25485310  0.74537354  0.69542538  1
  Se  Se229  1  0.57029369  0.09370047  0.18032689  1
  Se  Se230  1  0.59153123  0.07329206  0.70221656  1
  Se  Se231  1  0.57703373  0.42114833  0.20015850  1
  Se  Se232  1  0.58862684  0.40859473  0.70168217  1
  Se  Se233  1  0.58827885  0.76637870  0.19273591  1
  Se  Se234  1  0.57965426  0.74815229  0.69944444  1
  Se  Se235  1  0.90655910  0.07667182  0.18658501  1
  Se  Se236  1  0.91419860  0.09687516  0.70055129  1
  Se  Se237  1  0.90972764  0.41521144  0.18124901  1
  Se  Se238  1  0.90733214  0.43377120  0.68585914  1
  Se  Se239  1  0.92691366  0.73538355  0.19153033  1
  Se  Se240  1  0.90866606  0.75742752  0.70247799  1
  Se  Se241  1  0.09190903  0.23321304  0.19584967  1
  Se  Se242  1  0.09695735  0.25671670  0.69104002  1
  Se  Se243  1  0.09351892  0.56925897  0.20347267  1
  Se  Se244  1  0.07930995  0.58963729  0.69491287  1
  Se  Se245  1  0.08654800  0.90754213  0.18711052  1
  Se  Se246  1  0.07430593  0.93595250  0.69973034  1
  Se  Se247  1  0.40785070  0.25379535  0.19511603  1
  Se  Se248  1  0.43173433  0.23612305  0.69916519  1
  Se  Se249  1  0.43465724  0.58742579  0.20621974  1
  Se  Se250  1  0.41779612  0.57280036  0.69952485  1
  Se  Se251  1  0.41538235  0.92378623  0.18900988  1
  Se  Se252  1  0.41937857  0.90471527  0.69070291  1
  Se  Se253  1  0.74179325  0.25177388  0.19134022  1
  Se  Se254  1  0.74599049  0.25605259  0.70611280  1
  Se  Se255  1  0.75181134  0.58450645  0.19148271  1
  Se  Se256  1  0.74471266  0.58984451  0.70004538  1
  Se  Se257  1  0.76092144  0.90381359  0.18287361  1
  Se  Se258  1  0.74453642  0.91914584  0.70420781  1
