# generated using pymatgen
data_In86Cu29Se144
_symmetry_space_group_name_H-M   'P 1'
_cell_length_a   17.58213661
_cell_length_b   17.58257957
_cell_length_c   23.44364985
_cell_angle_alpha   89.97525023
_cell_angle_beta   89.98127285
_cell_angle_gamma   89.99589487
_symmetry_Int_Tables_number   1
_chemical_formula_structural   In86Cu29Se144
_chemical_formula_sum   'In86 Cu29 Se144'
_cell_volume   7247.35279601
_cell_formula_units_Z   1
loop_
 _symmetry_equiv_pos_site_id
 _symmetry_equiv_pos_as_xyz
  1  'x, y, z'
loop_
 _atom_site_type_symbol
 _atom_site_label
 _atom_site_symmetry_multiplicity
 _atom_site_fract_x
 _atom_site_fract_y
 _atom_site_fract_z
 _atom_site_occupancy
  In  In0  1  -0.00019163  0.16441154  0.13576368  1
  In  In1  1  -0.00971817  0.16986092  0.63314651  1
  In  In2  1  -0.01028150  0.50892870  0.13218507  1
  In  In3  1  -0.00526011  0.48767789  0.61952562  1
  In  In4  1  -0.00030533  0.83100039  0.12577932  1
  In  In5  1  0.00803231  0.84485478  0.62533962  1
  In  In6  1  0.33930408  0.16438364  0.13636076  1
  In  In7  1  0.33535672  0.15288584  0.62565043  1
  In  In8  1  0.33924496  0.49910757  0.12911991  1
  In  In9  1  0.33594183  0.51619327  0.61608772  1
  In  In10  1  0.33781007  0.83063069  0.13071222  1
  In  In11  1  0.35057432  0.83746964  0.62122776  1
  In  In12  1  0.67635606  0.17078523  0.12826476  1
  In  In13  1  0.66831843  0.15798607  0.59819034  1
  In  In14  1  0.66866624  0.50448537  0.12998150  1
  In  In15  1  0.67465363  0.50352537  0.62683173  1
  In  In16  1  0.64803388  0.81209492  0.11846883  1
  In  In17  1  0.66008204  0.83062290  0.61660680  1
  In  In18  1  0.16412318  0.00088093  0.36576347  1
  In  In19  1  0.16077838  -0.00507664  0.87332981  1
  In  In20  1  0.17448008  0.34642576  0.36899986  1
  In  In21  1  0.15361195  0.33971151  0.87288480  1
  In  In22  1  0.15591776  0.65764398  0.36690718  1
  In  In23  1  0.17717985  0.67697876  0.88226748  1
  In  In24  1  0.50011827  0.00583521  0.38308680  1
  In  In25  1  0.48440987  0.00054724  0.86931350  1
  In  In26  1  0.50150758  0.32935630  0.37156487  1
  In  In27  1  0.51131254  0.33767816  0.87764003  1
  In  In28  1  0.51935192  0.68835752  0.35047640  1
  In  In29  1  0.50252308  0.66195616  0.88601610  1
  In  In30  1  0.83213131  -0.00645780  0.38421934  1
  In  In31  1  0.83091106  -0.00673097  0.87200064  1
  In  In32  1  0.82427582  0.32108527  0.37329712  1
  In  In33  1  0.84178922  0.33087797  0.87585289  1
  In  In34  1  0.84376432  0.67766324  0.36968302  1
  In  In35  1  0.82298518  0.67483256  0.88231721  1
  In  In36  1  -0.01134955  0.15804524  0.37081930  1
  In  In37  1  -0.01010830  0.16783190  0.86085608  1
  In  In38  1  0.01267224  0.51355501  0.36931130  1
  In  In39  1  -0.00186644  0.48300719  0.87553109  1
  In  In40  1  -0.01815746  0.82240515  0.36697673  1
  In  In41  1  -0.00450897  0.83888459  0.88188896  1
  In  In42  1  0.33820557  0.17252082  0.36953446  1
  In  In43  1  0.34376803  0.14354255  0.87189756  1
  In  In44  1  0.33084581  0.49815420  0.36641971  1
  In  In45  1  0.33643446  0.51375711  0.88252255  1
  In  In46  1  0.34547233  0.84252547  0.35813425  1
  In  In47  1  0.32724281  0.83794242  0.88675914  1
  In  In48  1  0.65860486  0.17597853  0.39535591  1
  In  In49  1  0.66886685  0.16958506  0.86895789  1
  In  In50  1  0.66432339  0.49833272  0.36709006  1
  In  In51  1  0.65615835  0.51319497  0.88556723  1
  In  In52  1  0.67419993  0.83702033  0.38418782  1
  In  In53  1  0.67532510  0.82434582  0.87868134  1
  In  In54  1  0.18177891  -0.01609551  0.13641493  1
  In  In55  1  0.16550443  0.00018960  0.63427045  1
  In  In56  1  0.16739526  0.33514340  0.13309044  1
  In  In57  1  0.15298540  0.33155673  0.61970783  1
  In  In58  1  0.15972008  0.67408509  0.12941141  1
  In  In59  1  0.17933303  0.66950813  0.61630542  1
  In  In60  1  0.50097864  -0.02398677  0.13110485  1
  In  In61  1  0.50242513  -0.00348767  0.61624017  1
  In  In62  1  0.49209380  0.34462908  0.13513760  1
  In  In63  1  0.51216826  0.31992549  0.61972797  1
  In  In64  1  0.50432110  0.67234783  0.13444056  1
  In  In65  1  0.50046945  0.68093025  0.62220554  1
  In  In66  1  0.84580848  -0.00614156  0.12845029  1
  In  In67  1  0.84115639  0.00455644  0.61526744  1
  In  In68  1  0.82277860  0.34218259  0.13532484  1
  In  In69  1  0.83955569  0.33215226  0.61878056  1
  In  In70  1  0.83343785  0.66635599  0.12715826  1
  In  In71  1  0.81848736  0.65867142  0.62525104  1
  In  In72  1  0.66893287  0.00058710  0.25639074  1
  In  In73  1  0.83640531  0.49873599  0.49665724  1
  In  In74  1  0.67472115  0.32893834  0.74292918  1
  In  In75  1  0.32211237  0.33205345  0.74942360  1
  In  In76  1  0.16183916  0.16593874  0.00580208  1
  In  In77  1  0.67180323  0.00620596  0.74139580  1
  In  In78  1  0.16299880  0.82944500  0.49337523  1
  In  In79  1  0.49326667  0.50115637  0.48620795  1
  In  In80  1  0.16562237  0.16842073  0.50062315  1
  In  In81  1  0.50339041  0.16480591  -0.00551719  1
  In  In82  1  0.83269943  0.16149640  -0.00618417  1
  In  In83  1  0.33511047  0.67435032  0.76139012  1
  In  In84  1  0.16287647  0.50647532  0.00444766  1
  In  In85  1  -0.00385351  0.66474479  0.75068100  1
  Cu  Cu86  1  0.00182634  0.33465974  0.49651238  1
  Cu  Cu87  1  0.66890814  0.66665139  0.00715815  1
  Cu  Cu88  1  0.66198125  0.34592697  0.00759388  1
  Cu  Cu89  1  0.15617836  0.49500919  0.74637227  1
  Cu  Cu90  1  0.16286846  0.83424404  0.24947019  1
  Cu  Cu91  1  0.50211376  0.50442200  0.75744357  1
  Cu  Cu92  1  0.16256628  0.17309773  0.25480297  1
  Cu  Cu93  1  -0.01194745  0.33309117  0.00334661  1
  Cu  Cu94  1  0.00874677  -0.01220456  0.00274333  1
  Cu  Cu95  1  0.17200899  0.84101041  0.75452471  1
  Cu  Cu96  1  0.50709722  0.83967551  0.74529473  1
  Cu  Cu97  1  0.50496017  0.16380323  0.25813671  1
  Cu  Cu98  1  0.82722806  0.49776371  0.74984541  1
  Cu  Cu99  1  0.66365050  0.66859420  0.49654946  1
  Cu  Cu100  1  0.33734751  -0.00309044  0.49812509  1
  Cu  Cu101  1  0.33747386  -0.00917791  0.00704094  1
  Cu  Cu102  1  0.83486138  0.83355475  0.75399607  1
  Cu  Cu103  1  0.33904086  0.33825999  0.00470798  1
  Cu  Cu104  1  0.66949885  -0.01345040  -0.00205480  1
  Cu  Cu105  1  0.83713701  0.49876222  0.25273662  1
  Cu  Cu106  1  0.33798453  0.33342762  0.49120561  1
  Cu  Cu107  1  0.50327876  0.49798467  0.24986454  1
  Cu  Cu108  1  0.16704382  0.16333409  0.74768531  1
  Cu  Cu109  1  0.33007411  0.66674216  0.48836911  1
  Cu  Cu110  1  0.16803390  0.49952082  0.24518137  1
  Cu  Cu111  1  0.83204678  0.17005781  0.25385404  1
  Cu  Cu112  1  -0.00306452  0.66793218  0.00615098  1
  Cu  Cu113  1  -0.00533981  -0.00193024  0.49882349  1
  Cu  Cu114  1  0.82943679  0.83496254  0.24959287  1
  Se  Se115  1  0.07928957  0.07147426  0.06604975  1
  Se  Se116  1  0.07799745  0.07555763  0.55976694  1
  Se  Se117  1  0.07466073  0.40989534  0.06070255  1
  Se  Se118  1  0.08554025  0.42022183  0.54717392  1
  Se  Se119  1  0.08371699  0.75151544  0.05386409  1
  Se  Se120  1  0.07492538  0.74220019  0.55733450  1
  Se  Se121  1  0.41734029  0.07859881  0.06104299  1
  Se  Se122  1  0.41744482  0.08464465  0.55041590  1
  Se  Se123  1  0.42178380  0.42071685  0.05597605  1
  Se  Se124  1  0.41457501  0.41083024  0.55856205  1
  Se  Se125  1  0.43906793  0.76834146  0.06507146  1
  Se  Se126  1  0.41117954  0.74480226  0.54815629  1
  Se  Se127  1  0.74405458  0.07243757  0.05748755  1
  Se  Se128  1  0.73667323  0.05034789  0.54405245  1
  Se  Se129  1  0.75265877  0.42184402  0.05869156  1
  Se  Se130  1  0.74057535  0.41059638  0.55501840  1
  Se  Se131  1  0.75478165  0.75221208  0.05638843  1
  Se  Se132  1  0.74927559  0.74568469  0.55298745  1
  Se  Se133  1  0.25980871  0.25513811  0.06112791  1
  Se  Se134  1  0.26042196  0.25767390  0.55890686  1
  Se  Se135  1  0.25483860  0.59092786  0.06323029  1
  Se  Se136  1  0.24922700  0.58344183  0.54265611  1
  Se  Se137  1  0.25091088  0.90901321  0.05740594  1
  Se  Se138  1  0.25106212  0.92115792  0.55779339  1
  Se  Se139  1  0.58543994  0.25444355  0.06128940  1
  Se  Se140  1  0.58401740  0.25123815  0.54140465  1
  Se  Se141  1  0.58415196  0.58677089  0.06242118  1
  Se  Se142  1  0.58437397  0.58455389  0.55561781  1
  Se  Se143  1  0.58080146  0.91154638  0.05183588  1
  Se  Se144  1  0.56124574  0.89431935  0.55138803  1
  Se  Se145  1  0.91368455  0.24818562  0.06317497  1
  Se  Se146  1  0.92467450  0.24889671  0.55236106  1
  Se  Se147  1  0.91369192  0.58167245  0.05502842  1
  Se  Se148  1  0.92148440  0.59115612  0.55858688  1
  Se  Se149  1  0.91598014  0.91200199  0.05343263  1
  Se  Se150  1  0.91859889  0.90846667  0.55204222  1
  Se  Se151  1  0.08160020  0.25481927  0.43453897  1
  Se  Se152  1  0.06886835  0.25266895  0.94323763  1
  Se  Se153  1  0.08189703  0.58992207  0.44739958  1
  Se  Se154  1  0.07234393  0.59081506  0.93793768  1
  Se  Se155  1  0.07399158  0.92222985  0.43577850  1
  Se  Se156  1  0.09375362  0.90834541  0.94796505  1
  Se  Se157  1  0.42057471  0.24713206  0.44322763  1
  Se  Se158  1  0.40657591  0.25526120  0.93728517  1
  Se  Se159  1  0.41676703  0.59824628  0.42538842  1
  Se  Se160  1  0.41276726  0.58880964  0.95446689  1
  Se  Se161  1  0.41363255  0.91118904  0.44219077  1
  Se  Se162  1  0.42375373  0.91763065  0.94799419  1
  Se  Se163  1  0.76045930  0.24761771  0.45501358  1
  Se  Se164  1  0.73656038  0.26125629  0.94492930  1
  Se  Se165  1  0.74450254  0.58828776  0.43753244  1
  Se  Se166  1  0.75179846  0.58309576  0.95166120  1
  Se  Se167  1  0.73814431  0.92995023  0.45587864  1
  Se  Se168  1  0.75905603  0.91052672  0.94541355  1
  Se  Se169  1  0.25360626  0.07656538  0.44055001  1
  Se  Se170  1  0.25669154  0.07502507  0.94877677  1
  Se  Se171  1  0.25466094  0.42082870  0.44405780  1
  Se  Se172  1  0.25119857  0.40995725  0.94280323  1
  Se  Se173  1  0.25416356  0.75053962  0.42810826  1
  Se  Se174  1  0.26687287  0.73751289  0.95368565  1
  Se  Se175  1  0.59149080  0.07161209  0.45322561  1
  Se  Se176  1  0.59570006  0.07185781  0.93635511  1
  Se  Se177  1  0.59384511  0.40942971  0.44202883  1
  Se  Se178  1  0.57569498  0.42352691  0.95209373  1
  Se  Se179  1  0.57923789  0.74823572  0.44129542  1
  Se  Se180  1  0.58851719  0.74942368  0.94867932  1
  Se  Se181  1  0.91330204  0.08645339  0.44892619  1
  Se  Se182  1  0.93172536  0.07217733  0.94115005  1
  Se  Se183  1  0.92468607  0.41316073  0.43311697  1
  Se  Se184  1  0.90883532  0.41890521  0.94991440  1
  Se  Se185  1  0.90558215  0.76021667  0.44818887  1
  Se  Se186  1  0.91628549  0.75005830  0.94728096  1
  Se  Se187  1  0.25220102  0.25459679  0.30366398  1
  Se  Se188  1  0.24133511  0.23866471  0.81667678  1
  Se  Se189  1  0.24855414  0.58433091  0.29972876  1
  Se  Se190  1  0.23669962  0.57373980  0.80791126  1
  Se  Se191  1  0.24808357  0.92078300  0.29804210  1
  Se  Se192  1  0.25769679  0.91940076  0.80970011  1
  Se  Se193  1  0.59210075  0.24413980  0.30977316  1
  Se  Se194  1  0.57386057  0.24476009  0.80220015  1
  Se  Se195  1  0.59227892  0.58358062  0.29499732  1
  Se  Se196  1  0.58265787  0.59046518  0.80843549  1
  Se  Se197  1  0.57774912  0.91146400  0.31305079  1
  Se  Se198  1  0.58838652  0.91683073  0.80864526  1
  Se  Se199  1  0.91924955  0.25381802  0.30351593  1
  Se  Se200  1  0.90835990  0.25493109  0.79757545  1
  Se  Se201  1  0.91913240  0.58735433  0.30264777  1
  Se  Se202  1  0.90848071  0.57496609  0.81258752  1
  Se  Se203  1  0.90832786  0.92221465  0.30505483  1
  Se  Se204  1  0.92019071  0.91531792  0.80494305  1
  Se  Se205  1  0.07822512  0.08445792  0.30134621  1
  Se  Se206  1  0.08411785  0.08256279  0.80478269  1
  Se  Se207  1  0.08298446  0.41948957  0.30095985  1
  Se  Se208  1  0.07326983  0.40985166  0.79662088  1
  Se  Se209  1  0.07819328  0.75110895  0.30236441  1
  Se  Se210  1  0.09153909  0.75390246  0.80894390  1
  Se  Se211  1  0.41906700  0.07974008  0.30735198  1
  Se  Se212  1  0.42824127  0.08921442  0.79332480  1
  Se  Se213  1  0.42022378  0.41384077  0.30362785  1
  Se  Se214  1  0.41640867  0.42279948  0.81050544  1
  Se  Se215  1  0.40340329  0.73691199  0.29503626  1
  Se  Se216  1  0.42964094  0.76460585  0.81403616  1
  Se  Se217  1  0.75311810  0.09250315  0.31750220  1
  Se  Se218  1  0.76399256  0.09543215  0.80341478  1
  Se  Se219  1  0.75287708  0.41428137  0.30451251  1
  Se  Se220  1  0.74608336  0.42222607  0.81394666  1
  Se  Se221  1  0.74786087  0.75623039  0.30830041  1
  Se  Se222  1  0.75034210  0.74724512  0.80202353  1
  Se  Se223  1  0.24430785  0.08945204  0.19872471  1
  Se  Se224  1  0.25442777  0.07981731  0.70003049  1
  Se  Se225  1  0.25620794  0.41508252  0.19738883  1
  Se  Se226  1  0.24530387  0.42852488  0.68383917  1
  Se  Se227  1  0.24767038  0.75055222  0.19788935  1
  Se  Se228  1  0.24877527  0.75974079  0.69222247  1
  Se  Se229  1  0.57818535  0.08729351  0.18931484  1
  Se  Se230  1  0.58266390  0.09405473  0.68110958  1
  Se  Se231  1  0.59056403  0.41403422  0.19871664  1
  Se  Se232  1  0.57410511  0.42358193  0.69163506  1
  Se  Se233  1  0.58805482  0.75158634  0.20619122  1
  Se  Se234  1  0.58633420  0.75042282  0.69480778  1
  Se  Se235  1  0.91197824  0.08291171  0.20104741  1
  Se  Se236  1  0.91948234  0.07059306  0.69363322  1
  Se  Se237  1  0.91983776  0.41382369  0.19956274  1
  Se  Se238  1  0.90977618  0.41794931  0.69326801  1
  Se  Se239  1  0.91497157  0.75186004  0.19620990  1
  Se  Se240  1  0.91033896  0.75436245  0.68813392  1
  Se  Se241  1  0.08028142  0.25490060  0.19911217  1
  Se  Se242  1  0.08570813  0.24942085  0.69544839  1
  Se  Se243  1  0.08167124  0.58534179  0.19687534  1
  Se  Se244  1  0.08820435  0.58285905  0.68484595  1
  Se  Se245  1  0.07670259  0.91807326  0.19697215  1
  Se  Se246  1  0.08203705  0.91856136  0.70298693  1
  Se  Se247  1  0.42292128  0.24827694  0.20193794  1
  Se  Se248  1  0.41808018  0.24895143  0.69106824  1
  Se  Se249  1  0.41916859  0.58249094  0.19843475  1
  Se  Se250  1  0.42137493  0.58370225  0.69561847  1
  Se  Se251  1  0.40128462  0.92865424  0.20110419  1
  Se  Se252  1  0.42130262  0.92176635  0.69405328  1
  Se  Se253  1  0.74549205  0.25239886  0.20301991  1
  Se  Se254  1  0.75153398  0.23606298  0.67756229  1
  Se  Se255  1  0.75440201  0.58418673  0.19927105  1
  Se  Se256  1  0.74266720  0.58521243  0.70317276  1
  Se  Se257  1  0.74779768  0.91133535  0.18763304  1
  Se  Se258  1  0.75707059  0.90763763  0.68654522  1
