# generated using pymatgen
data_In86Cu29Se144
_symmetry_space_group_name_H-M   'P 1'
_cell_length_a   17.58369885
_cell_length_b   17.58227475
_cell_length_c   23.44462895
_cell_angle_alpha   90.02361553
_cell_angle_beta   90.02288936
_cell_angle_gamma   89.98909005
_symmetry_Int_Tables_number   1
_chemical_formula_structural   In86Cu29Se144
_chemical_formula_sum   'In86 Cu29 Se144'
_cell_volume   7248.17355697
_cell_formula_units_Z   1
loop_
 _symmetry_equiv_pos_site_id
 _symmetry_equiv_pos_as_xyz
  1  'x, y, z'
loop_
 _atom_site_type_symbol
 _atom_site_label
 _atom_site_symmetry_multiplicity
 _atom_site_fract_x
 _atom_site_fract_y
 _atom_site_fract_z
 _atom_site_occupancy
  In  In0  1  0.02155889  0.15513078  0.14399257  1
  In  In1  1  0.01362688  0.17567225  0.61066246  1
  In  In2  1  -0.00022375  0.49980610  0.12769603  1
  In  In3  1  0.00140290  0.50626957  0.62823893  1
  In  In4  1  -0.00507142  0.83215881  0.11874007  1
  In  In5  1  -0.00944688  0.82917235  0.62304518  1
  In  In6  1  0.32609368  0.15607630  0.11144863  1
  In  In7  1  0.34147543  0.17759931  0.62118789  1
  In  In8  1  0.33222348  0.50634795  0.11707857  1
  In  In9  1  0.32742468  0.49097657  0.62449008  1
  In  In10  1  0.32336845  0.83502994  0.11161415  1
  In  In11  1  0.34255606  0.82503860  0.62865025  1
  In  In12  1  0.66624636  0.17919755  0.13162538  1
  In  In13  1  0.66532585  0.16461744  0.61192792  1
  In  In14  1  0.66380994  0.50423260  0.13213055  1
  In  In15  1  0.66421388  0.49656618  0.61425226  1
  In  In16  1  0.66725709  0.82510095  0.12933631  1
  In  In17  1  0.66815255  0.83138061  0.61723650  1
  In  In18  1  0.15207799  0.01073496  0.37340087  1
  In  In19  1  0.15263175  0.00593039  0.89948179  1
  In  In20  1  0.15463995  0.32553550  0.36807152  1
  In  In21  1  0.16566555  0.33391579  0.87833658  1
  In  In22  1  0.16429210  0.67945114  0.37217769  1
  In  In23  1  0.15804694  0.66446071  0.88435188  1
  In  In24  1  0.49810652  0.00341768  0.37976618  1
  In  In25  1  0.48625107  0.01077479  0.89807526  1
  In  In26  1  0.50628500  0.32684232  0.37977788  1
  In  In27  1  0.48623912  0.34499633  0.88119718  1
  In  In28  1  0.51391829  0.65130355  0.38770763  1
  In  In29  1  0.49151043  0.67038446  0.88326958  1
  In  In30  1  0.84500275  -0.00982019  0.37582456  1
  In  In31  1  0.82830794  -0.00658169  0.87823088  1
  In  In32  1  0.83218146  0.33648429  0.37734668  1
  In  In33  1  0.84872530  0.32215119  0.87134716  1
  In  In34  1  0.83184553  0.66475101  0.37066669  1
  In  In35  1  0.85762468  0.66227241  0.88325202  1
  In  In36  1  -0.00097842  0.16353331  0.37252079  1
  In  In37  1  0.00067985  0.17861166  0.87447832  1
  In  In38  1  -0.00862836  0.48889887  0.36893172  1
  In  In39  1  0.01303626  0.50802438  0.86148458  1
  In  In40  1  -0.02503373  0.81513044  0.34749489  1
  In  In41  1  0.01535012  0.81231684  0.90015025  1
  In  In42  1  0.32662755  0.17040981  0.38156433  1
  In  In43  1  0.31846003  0.17425978  0.88613710  1
  In  In44  1  0.34531889  0.50832840  0.38132380  1
  In  In45  1  0.33445212  0.49291852  0.87851428  1
  In  In46  1  0.33341170  0.84340853  0.37646901  1
  In  In47  1  0.32951189  0.84226826  0.88994583  1
  In  In48  1  0.65740113  0.17793444  0.37719623  1
  In  In49  1  0.67133124  0.15370439  0.87646232  1
  In  In50  1  0.67050208  0.50076999  0.37492023  1
  In  In51  1  0.65884649  0.49262361  0.87813893  1
  In  In52  1  0.68151232  0.82092923  0.37407200  1
  In  In53  1  0.66443996  0.83329041  0.88373534  1
  In  In54  1  0.15801488  -0.00280161  0.10896389  1
  In  In55  1  0.15328162  0.00779991  0.62541372  1
  In  In56  1  0.15401068  0.32317742  0.11639008  1
  In  In57  1  0.17617553  0.33277524  0.63198769  1
  In  In58  1  0.15218627  0.66348355  0.10844898  1
  In  In59  1  0.15518728  0.64991217  0.62843554  1
  In  In60  1  0.48939577  -0.00646312  0.11745795  1
  In  In61  1  0.50229298  0.00316652  0.61858736  1
  In  In62  1  0.50180628  0.33836573  0.12297004  1
  In  In63  1  0.49395992  0.32923496  0.62126668  1
  In  In64  1  0.50716774  0.67320174  0.12236048  1
  In  In65  1  0.49778007  0.67109907  0.61077650  1
  In  In66  1  0.84998386  -0.00986382  0.13097038  1
  In  In67  1  0.82886681  -0.00595014  0.61170437  1
  In  In68  1  0.83799916  0.32730840  0.13619770  1
  In  In69  1  0.84516987  0.34255137  0.61100723  1
  In  In70  1  0.83535163  0.67234220  0.13392105  1
  In  In71  1  0.84198315  0.67005343  0.61744172  1
  In  In72  1  0.66559350  -0.00252155  0.74237291  1
  In  In73  1  0.17050651  0.84301111  0.49620617  1
  In  In74  1  -0.00593479  0.00192776  0.75535787  1
  In  In75  1  0.67123848  0.33230721  0.74937846  1
  In  In76  1  0.32582115  0.66236194  0.75301842  1
  In  In77  1  0.32582752  -0.00338745  0.23851879  1
  In  In78  1  0.33316394  0.66923778  0.24948964  1
  In  In79  1  0.67088646  0.67073465  0.74407456  1
  In  In80  1  0.83659072  0.15986285  0.00389346  1
  In  In81  1  0.17187770  0.50036101  0.50383724  1
  In  In82  1  0.32531437  0.33139651  0.25067915  1
  In  In83  1  0.32674338  0.00243425  0.76628576  1
  In  In84  1  0.67081329  0.00003625  0.24640349  1
  In  In85  1  0.83489075  0.50175003  0.01001848  1
  Cu  Cu86  1  0.65951312  0.32972688  0.00199067  1
  Cu  Cu87  1  0.33088134  0.65892002  -0.00110040  1
  Cu  Cu88  1  0.66638920  0.66047345  0.00695991  1
  Cu  Cu89  1  0.50083488  0.84203651  0.75678934  1
  Cu  Cu90  1  0.49413191  0.18172053  0.75193080  1
  Cu  Cu91  1  0.00547422  0.33407540  0.00039119  1
  Cu  Cu92  1  0.17281458  0.17272552  0.75108363  1
  Cu  Cu93  1  0.49301060  0.16947724  0.25148556  1
  Cu  Cu94  1  -0.00080629  -0.00363222  0.49429764  1
  Cu  Cu95  1  -0.00060341  0.32833110  0.49325113  1
  Cu  Cu96  1  0.83060379  0.17506826  0.25828691  1
  Cu  Cu97  1  0.66629735  0.33786945  0.49599485  1
  Cu  Cu98  1  0.49540417  0.50232852  0.75348364  1
  Cu  Cu99  1  0.67406811  0.66857700  0.49599656  1
  Cu  Cu100  1  0.15759731  0.82582147  0.76034346  1
  Cu  Cu101  1  0.84453116  0.82156458  0.75255128  1
  Cu  Cu102  1  0.15711286  0.83725826  0.23866756  1
  Cu  Cu103  1  0.16290794  0.50420089  0.24379469  1
  Cu  Cu104  1  0.51022453  0.49836567  0.25195280  1
  Cu  Cu105  1  0.66325587  -0.00268073  0.00807764  1
  Cu  Cu106  1  0.66763874  0.00312310  0.49060293  1
  Cu  Cu107  1  0.84198277  0.49634496  0.74486732  1
  Cu  Cu108  1  0.83379100  0.50023838  0.25190996  1
  Cu  Cu109  1  0.84235479  0.16858649  0.73767550  1
  Cu  Cu110  1  0.33408518  0.00458333  0.50093798  1
  Cu  Cu111  1  0.50698429  0.82327701  0.25334898  1
  Cu  Cu112  1  0.33206837  0.33480478  0.00191918  1
  Cu  Cu113  1  -0.00255326  0.66652839  0.49414276  1
  Cu  Cu114  1  0.33320178  0.33417950  0.50167610  1
  Se  Se115  1  0.07796641  0.09715066  0.05321716  1
  Se  Se116  1  0.08635308  0.07985136  0.54436349  1
  Se  Se117  1  0.08201590  0.42309162  0.05421855  1
  Se  Se118  1  0.07839055  0.40818414  0.55747947  1
  Se  Se119  1  0.09987656  0.77588458  0.04899459  1
  Se  Se120  1  0.08206316  0.74349244  0.55482675  1
  Se  Se121  1  0.43318344  0.09552602  0.05224710  1
  Se  Se122  1  0.41826846  0.08811831  0.55393316  1
  Se  Se123  1  0.41662323  0.41819467  0.05438549  1
  Se  Se124  1  0.41568974  0.41898358  0.55407504  1
  Se  Se125  1  0.41126725  0.74249058  0.05542479  1
  Se  Se126  1  0.42676133  0.77026066  0.55052719  1
  Se  Se127  1  0.74449486  0.07654184  0.06904856  1
  Se  Se128  1  0.75193104  0.08407796  0.54610136  1
  Se  Se129  1  0.74396610  0.40477546  0.06293450  1
  Se  Se130  1  0.75275894  0.42056376  0.54721332  1
  Se  Se131  1  0.74952085  0.74369167  0.05929072  1
  Se  Se132  1  0.75593252  0.75219313  0.55146804  1
  Se  Se133  1  0.24575576  0.24889062  0.04953886  1
  Se  Se134  1  0.24774868  0.25229108  0.55521023  1
  Se  Se135  1  0.24179678  0.57756737  0.04792265  1
  Se  Se136  1  0.26061273  0.59800073  0.55872195  1
  Se  Se137  1  0.27661244  0.94885791  0.05339439  1
  Se  Se138  1  0.25755738  0.92623040  0.56647176  1
  Se  Se139  1  0.58011695  0.24584870  0.05675778  1
  Se  Se140  1  0.58198474  0.25545583  0.55114177  1
  Se  Se141  1  0.58153705  0.57709398  0.05736415  1
  Se  Se142  1  0.58698346  0.58727363  0.54928304  1
  Se  Se143  1  0.58468453  0.90921335  0.06088390  1
  Se  Se144  1  0.58941942  0.92260052  0.55311099  1
  Se  Se145  1  0.92259681  0.25530577  0.06031627  1
  Se  Se146  1  0.91439762  0.24390281  0.54616667  1
  Se  Se147  1  0.92637221  0.59805676  0.05871422  1
  Se  Se148  1  0.92191178  0.58022442  0.55208280  1
  Se  Se149  1  0.91187732  0.91583472  0.04981487  1
  Se  Se150  1  0.91864138  0.91082333  0.54910677  1
  Se  Se151  1  0.08552955  0.24458468  0.44386982  1
  Se  Se152  1  0.08623228  0.24566209  0.94871336  1
  Se  Se153  1  0.08204810  0.58623933  0.43766442  1
  Se  Se154  1  0.06618835  0.58334323  0.94637678  1
  Se  Se155  1  0.06995310  0.90938668  0.43183381  1
  Se  Se156  1  0.09032190  0.90565534  0.96438827  1
  Se  Se157  1  0.41556922  0.24977848  0.44651389  1
  Se  Se158  1  0.41571973  0.25080719  0.94788763  1
  Se  Se159  1  0.41553559  0.58793523  0.45473387  1
  Se  Se160  1  0.41711470  0.57675459  0.94697349  1
  Se  Se161  1  0.41579900  0.91964104  0.44785315  1
  Se  Se162  1  0.44172441  0.89171550  0.94974524  1
  Se  Se163  1  0.74894804  0.25144328  0.44518396  1
  Se  Se164  1  0.74686512  0.25607640  0.94194348  1
  Se  Se165  1  0.75557777  0.58217993  0.44398505  1
  Se  Se166  1  0.74501105  0.58588968  0.94034785  1
  Se  Se167  1  0.75169179  0.91590091  0.44196048  1
  Se  Se168  1  0.74619424  0.91919052  0.95038482  1
  Se  Se169  1  0.24656402  0.07720627  0.44353129  1
  Se  Se170  1  0.27438415  0.05835908  0.94546250  1
  Se  Se171  1  0.25385276  0.40820547  0.43588683  1
  Se  Se172  1  0.24722133  0.41688392  0.94811325  1
  Se  Se173  1  0.26023544  0.74387827  0.44384951  1
  Se  Se174  1  0.24897520  0.74614949  0.94792783  1
  Se  Se175  1  0.57946770  0.08948059  0.44559741  1
  Se  Se176  1  0.58981945  0.08737764  0.95281490  1
  Se  Se177  1  0.58118234  0.42150394  0.44369202  1
  Se  Se178  1  0.57875503  0.41762149  0.95044482  1
  Se  Se179  1  0.58886297  0.75389814  0.44483954  1
  Se  Se180  1  0.58581366  0.74312666  0.94866107  1
  Se  Se181  1  0.91602043  0.08357762  0.44416387  1
  Se  Se182  1  0.92574368  0.07563141  0.93868318  1
  Se  Se183  1  0.91628361  0.41900266  0.44793344  1
  Se  Se184  1  0.91857800  0.41227697  0.94355364  1
  Se  Se185  1  0.91851747  0.75095151  0.43798046  1
  Se  Se186  1  0.89413257  0.76788157  0.95289139  1
  Se  Se187  1  0.23788196  0.23217316  0.30233279  1
  Se  Se188  1  0.25309404  0.25399973  0.80744064  1
  Se  Se189  1  0.24472992  0.57499953  0.30953006  1
  Se  Se190  1  0.23875568  0.57460202  0.81357379  1
  Se  Se191  1  0.23729584  0.90945597  0.30467128  1
  Se  Se192  1  0.23032298  0.91146044  0.81911793  1
  Se  Se193  1  0.57906577  0.25256098  0.30064075  1
  Se  Se194  1  0.58280762  0.24823763  0.81494115  1
  Se  Se195  1  0.58742210  0.58620944  0.30559094  1
  Se  Se196  1  0.57803653  0.58433254  0.80843554  1
  Se  Se197  1  0.57914953  0.91448150  0.30990162  1
  Se  Se198  1  0.57874114  0.92355650  0.81526506  1
  Se  Se199  1  0.91847355  0.25650138  0.30857020  1
  Se  Se200  1  0.92397233  0.24746342  0.79447154  1
  Se  Se201  1  0.92042523  0.58329584  0.30293975  1
  Se  Se202  1  0.91601607  0.58551854  0.79998608  1
  Se  Se203  1  0.93100458  0.93657067  0.29620436  1
  Se  Se204  1  0.91735259  0.90356960  0.81625628  1
  Se  Se205  1  0.07185325  0.07883375  0.29851352  1
  Se  Se206  1  0.09537248  0.08736494  0.81074932  1
  Se  Se207  1  0.08575764  0.41905977  0.30069372  1
  Se  Se208  1  0.06271631  0.38981351  0.81030749  1
  Se  Se209  1  0.08527798  0.74559953  0.29433415  1
  Se  Se210  1  0.07433369  0.74435337  0.81270717  1
  Se  Se211  1  0.41233307  0.08569646  0.30637454  1
  Se  Se212  1  0.42493246  0.09508729  0.81475350  1
  Se  Se213  1  0.42116729  0.42126168  0.30746048  1
  Se  Se214  1  0.41231359  0.41629026  0.80192941  1
  Se  Se215  1  0.42266587  0.75089751  0.31549823  1
  Se  Se216  1  0.41485403  0.76036347  0.80967957  1
  Se  Se217  1  0.75140221  0.08889437  0.31418494  1
  Se  Se218  1  0.76379866  0.08849064  0.79916609  1
  Se  Se219  1  0.75000252  0.41635015  0.30512224  1
  Se  Se220  1  0.76190239  0.42381508  0.81013561  1
  Se  Se221  1  0.75669897  0.74961354  0.29839459  1
  Se  Se222  1  0.75610808  0.75122237  0.81347838  1
  Se  Se223  1  0.23568850  0.09053442  0.18660526  1
  Se  Se224  1  0.24838403  0.08663393  0.69232695  1
  Se  Se225  1  0.24427406  0.42371164  0.18614563  1
  Se  Se226  1  0.23705418  0.43408997  0.69763066  1
  Se  Se227  1  0.24297492  0.75373061  0.18540085  1
  Se  Se228  1  0.23694678  0.75671693  0.69274079  1
  Se  Se229  1  0.57050720  0.08550323  0.19142399  1
  Se  Se230  1  0.57399969  0.09924131  0.69264573  1
  Se  Se231  1  0.58590344  0.41060141  0.19701194  1
  Se  Se232  1  0.57859562  0.42460686  0.69318866  1
  Se  Se233  1  0.58855006  0.74033557  0.20031467  1
  Se  Se234  1  0.57302736  0.76186455  0.69182138  1
  Se  Se235  1  0.90574302  0.09582717  0.19578430  1
  Se  Se236  1  0.91693455  0.08269438  0.67952357  1
  Se  Se237  1  0.91894167  0.41864548  0.19836072  1
  Se  Se238  1  0.92055905  0.41082434  0.69080100  1
  Se  Se239  1  0.93134885  0.74739356  0.19597687  1
  Se  Se240  1  0.92345690  0.73995901  0.69534897  1
  Se  Se241  1  0.07648466  0.26850898  0.19982787  1
  Se  Se242  1  0.08534187  0.24480948  0.69218157  1
  Se  Se243  1  0.08440409  0.59075485  0.19083104  1
  Se  Se244  1  0.08559951  0.57428168  0.70393664  1
  Se  Se245  1  0.07990542  0.92230891  0.18423405  1
  Se  Se246  1  0.08548010  0.90845166  0.69507940  1
  Se  Se247  1  0.41230765  0.24281583  0.18705959  1
  Se  Se248  1  0.41032574  0.26102521  0.69768857  1
  Se  Se249  1  0.42435017  0.57558152  0.19325128  1
  Se  Se250  1  0.42437895  0.58523352  0.68925735  1
  Se  Se251  1  0.42181243  0.89800958  0.19222584  1
  Se  Se252  1  0.41964674  0.92218971  0.69732711  1
  Se  Se253  1  0.74488395  0.25609065  0.20490004  1
  Se  Se254  1  0.75545073  0.24604159  0.68242674  1
  Se  Se255  1  0.75163887  0.58358517  0.19773541  1
  Se  Se256  1  0.75601326  0.57330642  0.68696204  1
  Se  Se257  1  0.76253741  0.90350544  0.19749008  1
  Se  Se258  1  0.76367553  0.90264245  0.69272097  1
