# generated using pymatgen
data_In86Cu29Se144
_symmetry_space_group_name_H-M   'P 1'
_cell_length_a   17.58176211
_cell_length_b   17.58528544
_cell_length_c   23.44588275
_cell_angle_alpha   90.01131355
_cell_angle_beta   89.98958310
_cell_angle_gamma   90.00411260
_symmetry_Int_Tables_number   1
_chemical_formula_structural   In86Cu29Se144
_chemical_formula_sum   'In86 Cu29 Se144'
_cell_volume   7249.00490668
_cell_formula_units_Z   1
loop_
 _symmetry_equiv_pos_site_id
 _symmetry_equiv_pos_as_xyz
  1  'x, y, z'
loop_
 _atom_site_type_symbol
 _atom_site_label
 _atom_site_symmetry_multiplicity
 _atom_site_fract_x
 _atom_site_fract_y
 _atom_site_fract_z
 _atom_site_occupancy
  In  In0  1  0.01175263  0.16099524  0.12778157  1
  In  In1  1  0.00374200  0.15271672  0.62960468  1
  In  In2  1  -0.00378889  0.49875786  0.12602114  1
  In  In3  1  -0.00191703  0.49507376  0.62015044  1
  In  In4  1  -0.00023226  0.82554746  0.13647337  1
  In  In5  1  0.00136814  0.84303766  0.62240913  1
  In  In6  1  0.33431107  0.17888595  0.12267540  1
  In  In7  1  0.31300831  0.17206702  0.62769557  1
  In  In8  1  0.31760564  0.49213836  0.11148297  1
  In  In9  1  0.33525537  0.50992010  0.62644276  1
  In  In10  1  0.33130528  0.83788641  0.11878810  1
  In  In11  1  0.34373556  0.82700479  0.63911853  1
  In  In12  1  0.67116992  0.16062197  0.13575244  1
  In  In13  1  0.68504290  0.18066100  0.62694068  1
  In  In14  1  0.66870930  0.49772216  0.12546278  1
  In  In15  1  0.66580719  0.49569087  0.62626652  1
  In  In16  1  0.67421004  0.83200476  0.14159916  1
  In  In17  1  0.66247289  0.82475768  0.60674756  1
  In  In18  1  0.16255446  0.00674763  0.37775914  1
  In  In19  1  0.16444617  0.00012182  0.87752416  1
  In  In20  1  0.16283185  0.33467684  0.37314925  1
  In  In21  1  0.15209267  0.34568460  0.88018994  1
  In  In22  1  0.14849946  0.66772500  0.37052090  1
  In  In23  1  0.18137014  0.65442180  0.88765955  1
  In  In24  1  0.49945969  -0.01918087  0.38164879  1
  In  In25  1  0.49918940  0.00809724  0.87198086  1
  In  In26  1  0.50526769  0.34361765  0.36531554  1
  In  In27  1  0.51283017  0.33828913  0.87542674  1
  In  In28  1  0.52714330  0.66493001  0.37956669  1
  In  In29  1  0.46482974  0.66515836  0.87722120  1
  In  In30  1  0.81847810  -0.02019850  0.35432753  1
  In  In31  1  0.83727231  -0.00891127  0.87284771  1
  In  In32  1  0.84647351  0.34259334  0.36812050  1
  In  In33  1  0.84671630  0.34260949  0.86862424  1
  In  In34  1  0.82632342  0.66181107  0.38043174  1
  In  In35  1  0.82286754  0.66034007  0.87721086  1
  In  In36  1  0.00438269  0.16786900  0.37078100  1
  In  In37  1  0.00583291  0.18213115  0.86764670  1
  In  In38  1  -0.00043238  0.49920934  0.37497057  1
  In  In39  1  0.01326718  0.48832811  0.88217819  1
  In  In40  1  -0.03193503  0.80820306  0.34491259  1
  In  In41  1  0.00125246  0.84882024  0.86966510  1
  In  In42  1  0.31544713  0.16471298  0.37761977  1
  In  In43  1  0.32951905  0.15189945  0.87065315  1
  In  In44  1  0.33328100  0.48707736  0.37271171  1
  In  In45  1  0.31850355  0.51469913  0.89146425  1
  In  In46  1  0.33701408  0.84138394  0.37913187  1
  In  In47  1  0.31870291  0.81567699  0.85859367  1
  In  In48  1  0.67621269  0.17433899  0.36744190  1
  In  In49  1  0.65824224  0.16938771  0.87793266  1
  In  In50  1  0.68670858  0.51549106  0.36351042  1
  In  In51  1  0.67106364  0.49295713  0.88754728  1
  In  In52  1  0.66961355  0.82732012  0.37927182  1
  In  In53  1  0.66644855  0.83534858  0.87754228  1
  In  In54  1  0.15967680  -0.00791898  0.11367189  1
  In  In55  1  0.15785815  0.00651752  0.63086609  1
  In  In56  1  0.16403472  0.33554235  0.12294734  1
  In  In57  1  0.15771439  0.32675606  0.61897179  1
  In  In58  1  0.15467497  0.65268540  0.11379132  1
  In  In59  1  0.17970353  0.66336928  0.62434134  1
  In  In60  1  0.50462946  -0.00328033  0.12905993  1
  In  In61  1  0.50227176  -0.01290619  0.62976508  1
  In  In62  1  0.49082914  0.33663585  0.13236769  1
  In  In63  1  0.51114281  0.34934828  0.63001306  1
  In  In64  1  0.51328466  0.66953823  0.12615633  1
  In  In65  1  0.49509231  0.66483847  0.62709071  1
  In  In66  1  0.83261095  -0.00099910  0.13600762  1
  In  In67  1  0.84542700  -0.00198379  0.61955665  1
  In  In68  1  0.82663094  0.34305932  0.13270919  1
  In  In69  1  0.83197813  0.33640557  0.63379029  1
  In  In70  1  0.84374005  0.66209023  0.13874022  1
  In  In71  1  0.82774970  0.66330144  0.60734627  1
  In  In72  1  0.33374359  0.00386139  0.25219630  1
  In  In73  1  0.67035602  0.00597184  0.74935096  1
  In  In74  1  0.49718133  0.16792875  -0.00412853  1
  In  In75  1  0.49404690  0.16542424  0.49938942  1
  In  In76  1  0.84438920  0.16585267  0.49999167  1
  In  In77  1  0.33503020  0.66343766  0.24440809  1
  In  In78  1  0.49795232  0.82960865  -0.00027270  1
  In  In79  1  0.16276284  0.83329365  0.49905588  1
  In  In80  1  0.83706296  0.82834913  0.00370170  1
  In  In81  1  0.50216654  0.50586687  0.50383147  1
  In  In82  1  0.00530372  0.66747549  0.74679880  1
  In  In83  1  0.83533899  0.16628243  0.00724979  1
  In  In84  1  0.33338005  0.33650786  0.75056450  1
  In  In85  1  0.66090568  0.66538916  0.74720797  1
  Cu  Cu86  1  0.50140829  0.50624997  0.75456170  1
  Cu  Cu87  1  0.32659797  0.33086577  0.00044409  1
  Cu  Cu88  1  0.50908737  0.82619100  0.25758546  1
  Cu  Cu89  1  0.32889348  -0.00266714  -0.00530743  1
  Cu  Cu90  1  0.83650595  0.83891052  0.74284262  1
  Cu  Cu91  1  0.32447326  0.33029178  0.49718366  1
  Cu  Cu92  1  0.00080931  0.33815499  0.00026121  1
  Cu  Cu93  1  0.33537865  0.66640939  0.50287233  1
  Cu  Cu94  1  -0.00218360  0.66072791  0.49179889  1
  Cu  Cu95  1  0.15904436  0.83354669  0.24231841  1
  Cu  Cu96  1  0.17075553  0.17551388  0.24770212  1
  Cu  Cu97  1  0.50097947  0.16573825  0.25202395  1
  Cu  Cu98  1  0.67321908  0.34250842  0.50137772  1
  Cu  Cu99  1  0.50203215  0.49612493  0.24620028  1
  Cu  Cu100  1  0.66856360  0.33145977  0.00659486  1
  Cu  Cu101  1  0.84038034  0.49613745  0.75226111  1
  Cu  Cu102  1  0.66682895  -0.00414239  0.49319964  1
  Cu  Cu103  1  0.16555881  0.83780148  0.75005696  1
  Cu  Cu104  1  0.16348882  0.16288839  0.75231944  1
  Cu  Cu105  1  0.66658593  0.66116838  0.00328352  1
  Cu  Cu106  1  0.00367555  0.33524386  0.49480218  1
  Cu  Cu107  1  0.16297682  0.49740969  0.24301835  1
  Cu  Cu108  1  -0.00257694  0.66799088  0.00610393  1
  Cu  Cu109  1  0.83968903  0.17137513  0.24945344  1
  Cu  Cu110  1  0.50202574  0.17169107  0.75266449  1
  Cu  Cu111  1  0.83469853  0.49862211  0.25189437  1
  Cu  Cu112  1  0.00333838  0.00161497  -0.00125315  1
  Cu  Cu113  1  0.32709612  -0.00188677  0.50596856  1
  Cu  Cu114  1  -0.00126944  -0.00437685  0.49367780  1
  Se  Se115  1  0.08659734  0.08854923  0.04886628  1
  Se  Se116  1  0.07888098  0.07663724  0.55218123  1
  Se  Se117  1  0.08305069  0.42232378  0.05511764  1
  Se  Se118  1  0.08624562  0.41859293  0.55010162  1
  Se  Se119  1  0.07734338  0.75581488  0.05786641  1
  Se  Se120  1  0.07522887  0.73773001  0.55893067  1
  Se  Se121  1  0.41057023  0.07274005  0.05842389  1
  Se  Se122  1  0.40724015  0.08072828  0.56476247  1
  Se  Se123  1  0.41485895  0.40830765  0.05431468  1
  Se  Se124  1  0.40917833  0.40720864  0.55741795  1
  Se  Se125  1  0.41022694  0.73742578  0.05914799  1
  Se  Se126  1  0.41306245  0.74943582  0.55923260  1
  Se  Se127  1  0.74301256  0.07240358  0.06046647  1
  Se  Se128  1  0.74233155  0.07832304  0.55491144  1
  Se  Se129  1  0.75410390  0.41787123  0.05448781  1
  Se  Se130  1  0.75571561  0.41890786  0.55970006  1
  Se  Se131  1  0.74453972  0.74244274  0.06398739  1
  Se  Se132  1  0.76013380  0.75911593  0.54317153  1
  Se  Se133  1  0.24390119  0.24735220  0.05305500  1
  Se  Se134  1  0.24210040  0.24514158  0.54876738  1
  Se  Se135  1  0.25437968  0.59254897  0.04766642  1
  Se  Se136  1  0.25196116  0.57909080  0.55036502  1
  Se  Se137  1  0.24749942  0.91173396  0.04740868  1
  Se  Se138  1  0.24970860  0.91540698  0.56654543  1
  Se  Se139  1  0.58741573  0.24837140  0.06365716  1
  Se  Se140  1  0.58899376  0.25912074  0.55626127  1
  Se  Se141  1  0.58249265  0.57865742  0.05607291  1
  Se  Se142  1  0.59617538  0.59675065  0.55885563  1
  Se  Se143  1  0.59172526  0.91228806  0.06285770  1
  Se  Se144  1  0.57900611  0.92109754  0.54941187  1
  Se  Se145  1  0.92383149  0.25960671  0.06475392  1
  Se  Se146  1  0.92728102  0.25823608  0.56175724  1
  Se  Se147  1  0.91278478  0.58633884  0.05888367  1
  Se  Se148  1  0.91839026  0.57746446  0.54904026  1
  Se  Se149  1  0.92333473  0.92427651  0.06112128  1
  Se  Se150  1  0.91678808  0.91161539  0.54725694  1
  Se  Se151  1  0.08414554  0.24738713  0.44345413  1
  Se  Se152  1  0.08101560  0.25036004  0.94787854  1
  Se  Se153  1  0.08763259  0.57879858  0.44498388  1
  Se  Se154  1  0.07994305  0.58565805  0.94952479  1
  Se  Se155  1  0.07338926  0.91095718  0.43244964  1
  Se  Se156  1  0.08358466  0.91347048  0.94712049  1
  Se  Se157  1  0.41253563  0.25978803  0.43661401  1
  Se  Se158  1  0.40647592  0.25665912  0.93528712  1
  Se  Se159  1  0.41279314  0.58967465  0.43633096  1
  Se  Se160  1  0.43104424  0.56591049  0.95133677  1
  Se  Se161  1  0.41268978  0.91445349  0.45625582  1
  Se  Se162  1  0.41276449  0.91986707  0.93635281  1
  Se  Se163  1  0.75167842  0.25889684  0.44316364  1
  Se  Se164  1  0.74806593  0.25520511  0.94322231  1
  Se  Se165  1  0.74596659  0.57844848  0.45017329  1
  Se  Se166  1  0.75523377  0.57972523  0.95336909  1
  Se  Se167  1  0.75657223  0.91748327  0.44294631  1
  Se  Se168  1  0.74491811  0.92291323  0.94739178  1
  Se  Se169  1  0.24548077  0.08055183  0.45165325  1
  Se  Se170  1  0.24653015  0.08624302  0.94706182  1
  Se  Se171  1  0.24572135  0.41804201  0.44442090  1
  Se  Se172  1  0.24181893  0.41672441  0.95077609  1
  Se  Se173  1  0.25372333  0.74092157  0.43802911  1
  Se  Se174  1  0.25737869  0.75401198  0.94582970  1
  Se  Se175  1  0.59041852  0.08374410  0.43739524  1
  Se  Se176  1  0.59286151  0.07019812  0.94867826  1
  Se  Se177  1  0.58949752  0.41739445  0.44082198  1
  Se  Se178  1  0.58182263  0.41372766  0.95502484  1
  Se  Se179  1  0.57122895  0.76609852  0.44926474  1
  Se  Se180  1  0.58815347  0.73713397  0.93888465  1
  Se  Se181  1  0.91605697  0.07271401  0.43210219  1
  Se  Se182  1  0.92117758  0.08017375  0.94010856  1
  Se  Se183  1  0.91581780  0.41848034  0.44687847  1
  Se  Se184  1  0.91433455  0.41990231  0.94843575  1
  Se  Se185  1  0.92067069  0.75033701  0.43976784  1
  Se  Se186  1  0.92459414  0.74421233  0.93665420  1
  Se  Se187  1  0.25308840  0.25465150  0.30453725  1
  Se  Se188  1  0.24232284  0.24738944  0.81107480  1
  Se  Se189  1  0.24243614  0.57746577  0.30643971  1
  Se  Se190  1  0.25423618  0.58431676  0.80819528  1
  Se  Se191  1  0.24052579  0.90723635  0.30621594  1
  Se  Se192  1  0.24789834  0.92260318  0.80403948  1
  Se  Se193  1  0.58518552  0.25203815  0.30221715  1
  Se  Se194  1  0.58709611  0.25314787  0.80367013  1
  Se  Se195  1  0.58344880  0.58067537  0.29979728  1
  Se  Se196  1  0.58082743  0.58288302  0.81878546  1
  Se  Se197  1  0.58687985  0.91577985  0.30892036  1
  Se  Se198  1  0.58005661  0.91182819  0.80637125  1
  Se  Se199  1  0.92426445  0.25307740  0.30223901  1
  Se  Se200  1  0.91024156  0.24781777  0.80115602  1
  Se  Se201  1  0.91365522  0.58280528  0.30912424  1
  Se  Se202  1  0.91579110  0.58094402  0.81164829  1
  Se  Se203  1  0.94496805  0.94253534  0.30663856  1
  Se  Se204  1  0.91825820  0.92228218  0.79594020  1
  Se  Se205  1  0.09227476  0.08798180  0.30191407  1
  Se  Se206  1  0.08003558  0.08144019  0.80763827  1
  Se  Se207  1  0.08187065  0.41789798  0.30338642  1
  Se  Se208  1  0.07890054  0.41489501  0.80128741  1
  Se  Se209  1  0.07948659  0.74189080  0.29101814  1
  Se  Se210  1  0.09025730  0.75419503  0.81207795  1
  Se  Se211  1  0.42394942  0.08804433  0.31756832  1
  Se  Se212  1  0.41814926  0.08350914  0.79835521  1
  Se  Se213  1  0.41324163  0.41581574  0.29693698  1
  Se  Se214  1  0.42002249  0.42465070  0.81374114  1
  Se  Se215  1  0.42052838  0.74894837  0.31337513  1
  Se  Se216  1  0.42931896  0.75953774  0.79981540  1
  Se  Se217  1  0.75089924  0.08770452  0.29800088  1
  Se  Se218  1  0.75690030  0.09228913  0.81321696  1
  Se  Se219  1  0.74902360  0.41068657  0.30151939  1
  Se  Se220  1  0.74989647  0.42379135  0.80909649  1
  Se  Se221  1  0.75572352  0.75167384  0.30986333  1
  Se  Se222  1  0.75809050  0.75998887  0.80445533  1
  Se  Se223  1  0.24541329  0.08729675  0.18727496  1
  Se  Se224  1  0.24904314  0.08126174  0.69990089  1
  Se  Se225  1  0.25092242  0.41653804  0.19241533  1
  Se  Se226  1  0.24451055  0.41907753  0.68651728  1
  Se  Se227  1  0.24310872  0.75341639  0.18559669  1
  Se  Se228  1  0.24634318  0.74906328  0.69908110  1
  Se  Se229  1  0.58118217  0.07850057  0.20005543  1
  Se  Se230  1  0.58134968  0.09668990  0.68619580  1
  Se  Se231  1  0.58713676  0.41168971  0.19484981  1
  Se  Se232  1  0.58906577  0.42376316  0.70481866  1
  Se  Se233  1  0.58921374  0.74208102  0.20320118  1
  Se  Se234  1  0.57852703  0.76276136  0.68981238  1
  Se  Se235  1  0.92069804  0.08698134  0.19556598  1
  Se  Se236  1  0.89919470  0.09143430  0.69213865  1
  Se  Se237  1  0.92003612  0.41589473  0.19951690  1
  Se  Se238  1  0.92447111  0.41696365  0.69704360  1
  Se  Se239  1  0.89848037  0.76803835  0.20297205  1
  Se  Se240  1  0.90877400  0.74985566  0.68467978  1
  Se  Se241  1  0.08318758  0.25494787  0.19517037  1
  Se  Se242  1  0.08505764  0.24411743  0.69319672  1
  Se  Se243  1  0.07968948  0.58517373  0.19438278  1
  Se  Se244  1  0.09276382  0.57482757  0.68955319  1
  Se  Se245  1  0.08185685  0.92529936  0.19286882  1
  Se  Se246  1  0.07762796  0.91777724  0.69812721  1
  Se  Se247  1  0.41380626  0.24627939  0.20022695  1
  Se  Se248  1  0.42452439  0.24789867  0.68667918  1
  Se  Se249  1  0.42105384  0.57246694  0.18361424  1
  Se  Se250  1  0.41666833  0.58524359  0.69985345  1
  Se  Se251  1  0.42337587  0.90270860  0.19761932  1
  Se  Se252  1  0.40988277  0.92856702  0.70129195  1
  Se  Se253  1  0.74999495  0.25175068  0.19907765  1
  Se  Se254  1  0.74391182  0.26280974  0.70385941  1
  Se  Se255  1  0.74918416  0.57937731  0.19757141  1
  Se  Se256  1  0.76240596  0.58011993  0.69242897  1
  Se  Se257  1  0.74933943  0.92270238  0.20568478  1
  Se  Se258  1  0.74856095  0.91092461  0.68344927  1
