# generated using pymatgen
data_In86Cu29Se144
_symmetry_space_group_name_H-M   'P 1'
_cell_length_a   17.58063248
_cell_length_b   17.58016564
_cell_length_c   23.43899357
_cell_angle_alpha   90.00645649
_cell_angle_beta   90.03785020
_cell_angle_gamma   90.01187119
_symmetry_Int_Tables_number   1
_chemical_formula_structural   In86Cu29Se144
_chemical_formula_sum   'In86 Cu29 Se144'
_cell_volume   7244.29806345
_cell_formula_units_Z   1
loop_
 _symmetry_equiv_pos_site_id
 _symmetry_equiv_pos_as_xyz
  1  'x, y, z'
loop_
 _atom_site_type_symbol
 _atom_site_label
 _atom_site_symmetry_multiplicity
 _atom_site_fract_x
 _atom_site_fract_y
 _atom_site_fract_z
 _atom_site_occupancy
  In  In0  1  0.00254956  0.16496043  0.11795247  1
  In  In1  1  0.00740868  0.16632511  0.63095977  1
  In  In2  1  0.00311226  0.50176006  0.12290934  1
  In  In3  1  0.00312156  0.49027994  0.62765362  1
  In  In4  1  0.00287308  0.83628286  0.12423553  1
  In  In5  1  -0.00156903  0.83750315  0.61236067  1
  In  In6  1  0.32284725  0.15874387  0.10261932  1
  In  In7  1  0.32766215  0.16304236  0.64066912  1
  In  In8  1  0.32693951  0.51230161  0.12293023  1
  In  In9  1  0.31450455  0.51591721  0.64656769  1
  In  In10  1  0.32191192  0.82063778  0.11702449  1
  In  In11  1  0.32502021  0.83615330  0.63437607  1
  In  In12  1  0.66537577  0.15392207  0.11216897  1
  In  In13  1  0.67326532  0.17393615  0.63546512  1
  In  In14  1  0.66378478  0.48498461  0.11741768  1
  In  In15  1  0.67197380  0.50193520  0.64295314  1
  In  In16  1  0.67637970  0.84354886  0.12023658  1
  In  In17  1  0.66935377  0.82784380  0.62596431  1
  In  In18  1  0.15008547  -0.00900677  0.36535518  1
  In  In19  1  0.16806218  -0.00825760  0.88791912  1
  In  In20  1  0.16769945  0.34284063  0.37306131  1
  In  In21  1  0.16747980  0.33795771  0.87581318  1
  In  In22  1  0.16546157  0.66703256  0.37642788  1
  In  In23  1  0.17704450  0.65952553  0.87896571  1
  In  In24  1  0.50331801  -0.02735530  0.36023505  1
  In  In25  1  0.49034922  0.01203728  0.88655974  1
  In  In26  1  0.50566740  0.33321746  0.37703987  1
  In  In27  1  0.48794638  0.32295881  0.87511694  1
  In  In28  1  0.48750911  0.68539077  0.37002405  1
  In  In29  1  0.49778280  0.67102045  0.87430363  1
  In  In30  1  0.83161892  -0.00256906  0.36569411  1
  In  In31  1  0.83801799  0.00951660  0.89058378  1
  In  In32  1  0.83913379  0.32435061  0.37149735  1
  In  In33  1  0.84004637  0.33346211  0.87247637  1
  In  In34  1  0.85831698  0.67118050  0.36937629  1
  In  In35  1  0.82697097  0.67251576  0.88131775  1
  In  In36  1  -0.00780771  0.16351975  0.36090638  1
  In  In37  1  -0.01554979  0.17872125  0.89124765  1
  In  In38  1  0.01906271  0.51921437  0.35955482  1
  In  In39  1  0.02070659  0.48388442  0.88306244  1
  In  In40  1  0.00314137  0.83309883  0.37654809  1
  In  In41  1  -0.00220311  0.84192478  0.89523514  1
  In  In42  1  0.33283249  0.16454619  0.37177730  1
  In  In43  1  0.33551669  0.16895802  0.88056174  1
  In  In44  1  0.30928207  0.50042491  0.37858047  1
  In  In45  1  0.30439414  0.48508815  0.85701388  1
  In  In46  1  0.33228301  0.81245752  0.36441281  1
  In  In47  1  0.33188743  0.83627473  0.87758626  1
  In  In48  1  0.68423655  0.16456201  0.36934090  1
  In  In49  1  0.66801687  0.17184149  0.87777204  1
  In  In50  1  0.66419930  0.49908259  0.37599265  1
  In  In51  1  0.67299069  0.50920421  0.87380346  1
  In  In52  1  0.66094069  0.84990321  0.36676505  1
  In  In53  1  0.66981128  0.82315055  0.88099261  1
  In  In54  1  0.13454360  -0.01898237  0.09398041  1
  In  In55  1  0.16477371  0.00160507  0.62837317  1
  In  In56  1  0.15613211  0.31107317  0.10256242  1
  In  In57  1  0.15440882  0.34530050  0.64379312  1
  In  In58  1  0.16733858  0.67089509  0.12453617  1
  In  In59  1  0.16702499  0.67212880  0.62294150  1
  In  In60  1  0.50984955  0.00118431  0.11839239  1
  In  In61  1  0.49074729  -0.01397261  0.62804284  1
  In  In62  1  0.50390719  0.32575709  0.11843408  1
  In  In63  1  0.49258953  0.34244977  0.64403693  1
  In  In64  1  0.47696618  0.66743256  0.12810972  1
  In  In65  1  0.50378098  0.66781695  0.63487494  1
  In  In66  1  0.84063291  -0.00372290  0.12020278  1
  In  In67  1  0.83858389  -0.00711314  0.62526257  1
  In  In68  1  0.84844872  0.34290741  0.10921671  1
  In  In69  1  0.83754268  0.32409338  0.64898630  1
  In  In70  1  0.84893244  0.68149977  0.11588481  1
  In  In71  1  0.83037467  0.67215797  0.62863704  1
  In  In72  1  0.83792123  0.16498267  0.49898601  1
  In  In73  1  0.00242857  0.66569959  0.75629988  1
  In  In74  1  0.49594851  0.83270377  0.49597670  1
  In  In75  1  0.15744848  0.16134690  0.50374963  1
  In  In76  1  0.67258916  0.66920893  0.23962198  1
  In  In77  1  0.32586612  -0.00508332  0.23726819  1
  In  In78  1  0.49345647  0.50133251  -0.00842524  1
  In  In79  1  0.67243720  0.32704973  0.23919691  1
  In  In80  1  0.49811572  0.16522312  0.49745080  1
  In  In81  1  0.66301627  0.00520847  0.76765221  1
  In  In82  1  0.84448325  0.50096506  0.50282190  1
  In  In83  1  0.49277353  0.51199317  0.52020264  1
  In  In84  1  -0.00032552  0.00899713  0.75566187  1
  In  In85  1  0.32832801  0.33636278  0.23652190  1
  Cu  Cu86  1  0.50537556  0.50255554  0.76016791  1
  Cu  Cu87  1  0.32896380  0.66094886  0.50246145  1
  Cu  Cu88  1  0.66499034  0.34289602  0.51544099  1
  Cu  Cu89  1  0.16180872  0.50326265  0.24900094  1
  Cu  Cu90  1  0.67209241  -0.00598882  -0.00221628  1
  Cu  Cu91  1  0.16502789  0.83132949  0.75679568  1
  Cu  Cu92  1  0.83705504  0.49584431  0.23816289  1
  Cu  Cu93  1  0.00050382  0.33684934  -0.00090487  1
  Cu  Cu94  1  -0.00133878  0.66426483  0.00181477  1
  Cu  Cu95  1  0.01167502  0.67102656  0.49329266  1
  Cu  Cu96  1  0.16908813  0.16702458  0.76089752  1
  Cu  Cu97  1  0.67444233  0.32928279  -0.00466634  1
  Cu  Cu98  1  0.49163524  0.83349903  0.75371145  1
  Cu  Cu99  1  0.83210381  0.83376576  0.75754679  1
  Cu  Cu100  1  0.84049752  0.83500305  0.24484091  1
  Cu  Cu101  1  0.31835146  0.33482719  0.50958086  1
  Cu  Cu102  1  0.83919014  0.16317604  0.24058198  1
  Cu  Cu103  1  0.49921758  0.16034766  0.75962769  1
  Cu  Cu104  1  0.50325470  0.15611248  0.23928419  1
  Cu  Cu105  1  0.49042289  0.50533702  0.25449804  1
  Cu  Cu106  1  0.00380197  0.33609319  0.50206737  1
  Cu  Cu107  1  0.32764315  0.66696815  -0.00460725  1
  Cu  Cu108  1  0.83725393  0.50170634  0.75820028  1
  Cu  Cu109  1  0.66844445  0.00450072  0.48994990  1
  Cu  Cu110  1  0.32197529  -0.00531482  0.50283580  1
  Cu  Cu111  1  0.66242210  0.66508679  0.00170563  1
  Cu  Cu112  1  0.34005114  -0.00133037  0.00150044  1
  Cu  Cu113  1  0.68360888  0.67396742  0.50060341  1
  Cu  Cu114  1  0.15848183  0.16897436  0.23734879  1
  Se  Se115  1  0.11571053  0.11665187  0.05545525  1
  Se  Se116  1  0.06406052  0.06797628  0.55748170  1
  Se  Se117  1  0.08493126  0.42114180  0.05071439  1
  Se  Se118  1  0.08850509  0.41363272  0.55772447  1
  Se  Se119  1  0.08218672  0.74853418  0.05425518  1
  Se  Se120  1  0.08945114  0.75435948  0.55157646  1
  Se  Se121  1  0.42834296  0.08439451  0.04885983  1
  Se  Se122  1  0.40624828  0.07621346  0.55939100  1
  Se  Se123  1  0.41207746  0.41551706  0.06039630  1
  Se  Se124  1  0.40328508  0.41151325  0.56819822  1
  Se  Se125  1  0.41515830  0.74703478  0.04760076  1
  Se  Se126  1  0.41246617  0.74270153  0.56104575  1
  Se  Se127  1  0.75853543  0.07872725  0.04785109  1
  Se  Se128  1  0.73929123  0.08097854  0.55873132  1
  Se  Se129  1  0.75277889  0.41941627  0.04562286  1
  Se  Se130  1  0.75509295  0.41592205  0.56984356  1
  Se  Se131  1  0.74762604  0.74862808  0.05318487  1
  Se  Se132  1  0.76058817  0.75954487  0.55522331  1
  Se  Se133  1  0.27428329  0.27207607  0.04397174  1
  Se  Se134  1  0.24559369  0.24772471  0.56810308  1
  Se  Se135  1  0.24429254  0.58582963  0.05032592  1
  Se  Se136  1  0.24924183  0.57886316  0.55908427  1
  Se  Se137  1  0.25250120  0.91473490  0.04893086  1
  Se  Se138  1  0.24433769  0.91376366  0.56090595  1
  Se  Se139  1  0.58839612  0.24943141  0.04929253  1
  Se  Se140  1  0.58101066  0.25528484  0.56578141  1
  Se  Se141  1  0.57914637  0.58710647  0.06174897  1
  Se  Se142  1  0.60413778  0.59578461  0.56372728  1
  Se  Se143  1  0.58514996  0.91232997  0.04880599  1
  Se  Se144  1  0.58956770  0.92534601  0.55354023  1
  Se  Se145  1  0.91762262  0.24403937  0.04593602  1
  Se  Se146  1  0.92097666  0.25995777  0.56262089  1
  Se  Se147  1  0.91384088  0.57837951  0.05289890  1
  Se  Se148  1  0.93216421  0.59632400  0.56177591  1
  Se  Se149  1  0.91222190  0.90491486  0.05242445  1
  Se  Se150  1  0.90465055  0.91363133  0.55002530  1
  Se  Se151  1  0.07403040  0.25210725  0.43701263  1
  Se  Se152  1  0.08724037  0.25458204  0.94743451  1
  Se  Se153  1  0.08822647  0.57601715  0.44660812  1
  Se  Se154  1  0.08517012  0.58631433  0.94702082  1
  Se  Se155  1  0.08700187  0.91581084  0.44492209  1
  Se  Se156  1  0.07808709  0.92701986  0.96139425  1
  Se  Se157  1  0.40148106  0.26287795  0.44496934  1
  Se  Se158  1  0.42274075  0.24324292  0.95230693  1
  Se  Se159  1  0.41347349  0.58756465  0.44001757  1
  Se  Se160  1  0.39919732  0.58339809  0.93146710  1
  Se  Se161  1  0.40312939  0.92221307  0.43680874  1
  Se  Se162  1  0.42058257  0.91131301  0.94844899  1
  Se  Se163  1  0.73980709  0.26374022  0.44812380  1
  Se  Se164  1  0.76023249  0.24758843  0.94391696  1
  Se  Se165  1  0.75377052  0.58810106  0.43867140  1
  Se  Se166  1  0.74914246  0.58400456  0.95068764  1
  Se  Se167  1  0.74938230  0.91826179  0.43867336  1
  Se  Se168  1  0.75455245  0.91063868  0.94459373  1
  Se  Se169  1  0.25028063  0.07696587  0.43927055  1
  Se  Se170  1  0.25541267  0.08083150  0.94821036  1
  Se  Se171  1  0.23894441  0.41685435  0.45288606  1
  Se  Se172  1  0.24451011  0.42642971  0.94557267  1
  Se  Se173  1  0.25441204  0.74734947  0.44449889  1
  Se  Se174  1  0.24422984  0.75668647  0.94654066  1
  Se  Se175  1  0.58402293  0.07928231  0.42967556  1
  Se  Se176  1  0.59212276  0.08285228  0.94613826  1
  Se  Se177  1  0.58294288  0.41981409  0.45383991  1
  Se  Se178  1  0.58961901  0.41052136  0.93737629  1
  Se  Se179  1  0.59460945  0.74281660  0.43945904  1
  Se  Se180  1  0.57842764  0.74734892  0.94857101  1
  Se  Se181  1  0.92458402  0.07661209  0.43801005  1
  Se  Se182  1  0.94373560  0.06399098  0.95406758  1
  Se  Se183  1  0.92636425  0.41256112  0.43602811  1
  Se  Se184  1  0.91575164  0.42013645  0.94496908  1
  Se  Se185  1  0.91796863  0.75154615  0.44918548  1
  Se  Se186  1  0.91231685  0.74893481  0.95203159  1
  Se  Se187  1  0.24268997  0.24204941  0.30182660  1
  Se  Se188  1  0.25401546  0.25108862  0.81023829  1
  Se  Se189  1  0.24681393  0.58486889  0.30273893  1
  Se  Se190  1  0.24930882  0.59537822  0.79676224  1
  Se  Se191  1  0.24321586  0.90594612  0.30301112  1
  Se  Se192  1  0.24416922  0.91881877  0.80943581  1
  Se  Se193  1  0.57750082  0.24224653  0.30308668  1
  Se  Se194  1  0.58151596  0.24811033  0.80790950  1
  Se  Se195  1  0.57895203  0.58379931  0.30824152  1
  Se  Se196  1  0.58719403  0.59187243  0.80732266  1
  Se  Se197  1  0.58895118  0.91324474  0.28435361  1
  Se  Se198  1  0.57135345  0.90973110  0.81811772  1
  Se  Se199  1  0.91577955  0.25371669  0.29383484  1
  Se  Se200  1  0.92705792  0.25085455  0.80673286  1
  Se  Se201  1  0.91581495  0.58021582  0.29438552  1
  Se  Se202  1  0.91636526  0.57921089  0.81989235  1
  Se  Se203  1  0.92264665  0.91564200  0.30366537  1
  Se  Se204  1  0.91218571  0.91425449  0.81526478  1
  Se  Se205  1  0.08284520  0.08488050  0.29660797  1
  Se  Se206  1  0.08806989  0.08957286  0.82129150  1
  Se  Se207  1  0.08209014  0.41122705  0.29935100  1
  Se  Se208  1  0.09001381  0.41823212  0.80142035  1
  Se  Se209  1  0.06149714  0.72711071  0.31241259  1
  Se  Se210  1  0.08177508  0.76060849  0.81962488  1
  Se  Se211  1  0.42250396  0.08300559  0.30471969  1
  Se  Se212  1  0.41094722  0.07931905  0.80843515  1
  Se  Se213  1  0.41498847  0.41649179  0.31202835  1
  Se  Se214  1  0.41874004  0.41764055  0.80702582  1
  Se  Se215  1  0.43108611  0.76650346  0.29069941  1
  Se  Se216  1  0.40925971  0.74962545  0.80619565  1
  Se  Se217  1  0.75260149  0.08269558  0.29460957  1
  Se  Se218  1  0.76678695  0.09276899  0.81183920  1
  Se  Se219  1  0.75512039  0.42337139  0.30432811  1
  Se  Se220  1  0.75097544  0.41854586  0.80777643  1
  Se  Se221  1  0.75937841  0.75475949  0.30736005  1
  Se  Se222  1  0.74785530  0.74717639  0.80458531  1
  Se  Se223  1  0.24106207  0.08970435  0.18057407  1
  Se  Se224  1  0.24168849  0.07695331  0.70377277  1
  Se  Se225  1  0.23243006  0.42226983  0.18237806  1
  Se  Se226  1  0.27080322  0.39512674  0.69834696  1
  Se  Se227  1  0.25756499  0.74123028  0.19564642  1
  Se  Se228  1  0.24404538  0.74816554  0.69984548  1
  Se  Se229  1  0.59428031  0.07806256  0.19162317  1
  Se  Se230  1  0.57458484  0.08257165  0.69226716  1
  Se  Se231  1  0.56852331  0.42317139  0.19454485  1
  Se  Se232  1  0.58843655  0.41647856  0.70732978  1
  Se  Se233  1  0.57927630  0.75358910  0.18169224  1
  Se  Se234  1  0.58222663  0.75945573  0.69874755  1
  Se  Se235  1  0.92409933  0.08029251  0.18911544  1
  Se  Se236  1  0.90361510  0.09229841  0.69365084  1
  Se  Se237  1  0.92223577  0.41096221  0.19041345  1
  Se  Se238  1  0.92116846  0.42075165  0.70313687  1
  Se  Se239  1  0.92338310  0.74909678  0.19578390  1
  Se  Se240  1  0.91752941  0.76287143  0.69480464  1
  Se  Se241  1  0.07862505  0.25793438  0.18775789  1
  Se  Se242  1  0.08182384  0.24482862  0.70478454  1
  Se  Se243  1  0.08184016  0.58658674  0.19286678  1
  Se  Se244  1  0.08946188  0.57856608  0.69340062  1
  Se  Se245  1  0.09185841  0.92025406  0.18754750  1
  Se  Se246  1  0.08049216  0.90753196  0.69549014  1
  Se  Se247  1  0.41818413  0.23633493  0.18462125  1
  Se  Se248  1  0.41666622  0.24434848  0.70432725  1
  Se  Se249  1  0.40408521  0.58383225  0.20184924  1
  Se  Se250  1  0.42331128  0.58390966  0.70212109  1
  Se  Se251  1  0.41902285  0.91067961  0.17912059  1
  Se  Se252  1  0.40834074  0.91917221  0.70314493  1
  Se  Se253  1  0.76189126  0.24305598  0.17725619  1
  Se  Se254  1  0.73896589  0.25571326  0.71044894  1
  Se  Se255  1  0.75543696  0.57420903  0.17861615  1
  Se  Se256  1  0.75943020  0.59003095  0.70331872  1
  Se  Se257  1  0.75647848  0.91897580  0.19441910  1
  Se  Se258  1  0.75021872  0.91605487  0.69947691  1
