# generated using pymatgen
data_In86Cu29Se144
_symmetry_space_group_name_H-M   'P 1'
_cell_length_a   17.57795734
_cell_length_b   17.57488695
_cell_length_c   23.43758145
_cell_angle_alpha   89.98674848
_cell_angle_beta   89.98921766
_cell_angle_gamma   90.01421250
_symmetry_Int_Tables_number   1
_chemical_formula_structural   In86Cu29Se144
_chemical_formula_sum   'In86 Cu29 Se144'
_cell_volume   7240.58586037
_cell_formula_units_Z   1
loop_
 _symmetry_equiv_pos_site_id
 _symmetry_equiv_pos_as_xyz
  1  'x, y, z'
loop_
 _atom_site_type_symbol
 _atom_site_label
 _atom_site_symmetry_multiplicity
 _atom_site_fract_x
 _atom_site_fract_y
 _atom_site_fract_z
 _atom_site_occupancy
  In  In0  1  -0.00444533  0.14596052  0.12816305  1
  In  In1  1  -0.02099318  0.16418919  0.61550975  1
  In  In2  1  -0.00049853  0.50801699  0.11694415  1
  In  In3  1  0.01871319  0.49576502  0.62418140  1
  In  In4  1  0.00030183  0.84694485  0.12625106  1
  In  In5  1  -0.00052766  0.83675853  0.62787103  1
  In  In6  1  0.34024284  0.15046622  0.12646030  1
  In  In7  1  0.33691248  0.16199133  0.63189304  1
  In  In8  1  0.34054838  0.50419697  0.11597782  1
  In  In9  1  0.31756387  0.50534222  0.63282585  1
  In  In10  1  0.35439834  0.81684666  0.14544913  1
  In  In11  1  0.33382051  0.84321701  0.62926890  1
  In  In12  1  0.65804234  0.16727806  0.12361434  1
  In  In13  1  0.68043112  0.15409795  0.63531780  1
  In  In14  1  0.66953995  0.50458909  0.11590514  1
  In  In15  1  0.66095707  0.50346836  0.64279816  1
  In  In16  1  0.66550899  0.83136845  0.12204820  1
  In  In17  1  0.67651124  0.82723269  0.63189960  1
  In  In18  1  0.15204636  -0.00886518  0.37312282  1
  In  In19  1  0.16592442  -0.01491799  0.85617290  1
  In  In20  1  0.16834555  0.34372161  0.38197321  1
  In  In21  1  0.18344705  0.33689960  0.87040504  1
  In  In22  1  0.16777928  0.67203092  0.37793062  1
  In  In23  1  0.14785786  0.67369131  0.87143889  1
  In  In24  1  0.50684817  -0.01655098  0.35419055  1
  In  In25  1  0.50131324  -0.00095658  0.88004136  1
  In  In26  1  0.50026740  0.33661025  0.37230975  1
  In  In27  1  0.49706468  0.33471551  0.87163357  1
  In  In28  1  0.50276933  0.68460204  0.35429048  1
  In  In29  1  0.51752995  0.65454578  0.88130805  1
  In  In30  1  0.82753063  -0.00194601  0.37364407  1
  In  In31  1  0.82354416  -0.01042198  0.87041059  1
  In  In32  1  0.82606052  0.32427940  0.38157405  1
  In  In33  1  0.83592792  0.35140063  0.87288882  1
  In  In34  1  0.84295505  0.67809433  0.37354011  1
  In  In35  1  0.83118056  0.67155165  0.87353231  1
  In  In36  1  -0.00923511  0.14861929  0.37844751  1
  In  In37  1  0.01292175  0.15874263  0.87123172  1
  In  In38  1  0.00948924  0.51246494  0.37529723  1
  In  In39  1  -0.01351655  0.51125456  0.88306862  1
  In  In40  1  -0.01937893  0.86081592  0.40092433  1
  In  In41  1  -0.00726219  0.82451902  0.86103913  1
  In  In42  1  0.34766530  0.16088116  0.37384261  1
  In  In43  1  0.33893528  0.17086452  0.87190919  1
  In  In44  1  0.31565820  0.51926601  0.37540301  1
  In  In45  1  0.34503724  0.49259352  0.88481362  1
  In  In46  1  0.32451287  0.82440184  0.36754035  1
  In  In47  1  0.33373179  0.84670140  0.87454867  1
  In  In48  1  0.68801405  0.15138078  0.38245661  1
  In  In49  1  0.65558683  0.15547038  0.87061998  1
  In  In50  1  0.65442603  0.50383520  0.37182733  1
  In  In51  1  0.66567311  0.50512709  0.86891473  1
  In  In52  1  0.67318293  0.84439992  0.35866232  1
  In  In53  1  0.66778461  0.83329022  0.87752696  1
  In  In54  1  0.17249684  -0.00842571  0.13535707  1
  In  In55  1  0.16688843  -0.01287908  0.62731503  1
  In  In56  1  0.16629095  0.34442406  0.12268764  1
  In  In57  1  0.15869870  0.34813573  0.62532330  1
  In  In58  1  0.17631013  0.66559745  0.12431222  1
  In  In59  1  0.16305992  0.66131269  0.62255259  1
  In  In60  1  0.49988348  -0.00295471  0.11933342  1
  In  In61  1  0.50123626  0.00200400  0.63487718  1
  In  In62  1  0.50408433  0.33279716  0.11164813  1
  In  In63  1  0.50120427  0.33505681  0.64451886  1
  In  In64  1  0.50864306  0.67335916  0.12076538  1
  In  In65  1  0.50288201  0.67093226  0.63424222  1
  In  In66  1  0.84619708  -0.00975929  0.13112962  1
  In  In67  1  0.83498769  -0.00573213  0.62366281  1
  In  In68  1  0.82052842  0.33195896  0.12176634  1
  In  In69  1  0.83509081  0.32464849  0.62732416  1
  In  In70  1  0.82046544  0.66058418  0.11918935  1
  In  In71  1  0.82868619  0.68283162  0.62834453  1
  In  In72  1  0.00033916  0.32924971  0.26013599  1
  In  In73  1  0.16858656  0.83162833  0.00022849  1
  In  In74  1  0.34049117  0.66076284  0.75821698  1
  In  In75  1  0.83152152  0.16964013  0.00136549  1
  In  In76  1  0.00860596  0.67396451  0.25057979  1
  In  In77  1  0.50038068  0.83186761  0.49562950  1
  In  In78  1  0.84115230  0.49825522  0.50230865  1
  In  In79  1  0.50794189  0.16685402  0.49797046  1
  In  In80  1  0.33661465  0.33410877  0.25003703  1
  In  In81  1  0.15885615  0.16638666  0.50317866  1
  In  In82  1  0.49520891  0.50372058  0.49935867  1
  In  In83  1  0.66580303  0.32502425  0.24535789  1
  In  In84  1  -0.00044849  0.32936798  0.74542987  1
  In  In85  1  0.17579857  0.16959433  -0.00424072  1
  Cu  Cu86  1  0.49737148  0.51099988  0.24297027  1
  Cu  Cu87  1  0.83152506  0.83152972  0.25266953  1
  Cu  Cu88  1  0.67161379  0.32557905  0.51018015  1
  Cu  Cu89  1  -0.00996957  0.66852880  -0.00376701  1
  Cu  Cu90  1  0.32834502  0.34434276  0.50667466  1
  Cu  Cu91  1  0.83467558  0.83792892  0.74934945  1
  Cu  Cu92  1  0.00478130  0.67211476  0.50241918  1
  Cu  Cu93  1  0.82863818  0.16510462  0.74879559  1
  Cu  Cu94  1  0.50774054  0.15745192  0.24819960  1
  Cu  Cu95  1  0.16229083  0.16891003  0.25247641  1
  Cu  Cu96  1  0.66822107  0.66850543  -0.00341390  1
  Cu  Cu97  1  0.66682984  -0.00393730  -0.00209595  1
  Cu  Cu98  1  0.32939545  -0.00464630  0.49776034  1
  Cu  Cu99  1  0.32673777  0.66703616  0.49837471  1
  Cu  Cu100  1  0.33750289  0.00024856  -0.00054550  1
  Cu  Cu101  1  0.50819368  0.83588154  0.75514387  1
  Cu  Cu102  1  0.82949631  0.49641628  0.24137208  1
  Cu  Cu103  1  0.50000851  0.16513993  0.75603926  1
  Cu  Cu104  1  0.66571221  0.33926746  -0.00783071  1
  Cu  Cu105  1  0.15810000  0.84010133  0.25687903  1
  Cu  Cu106  1  -0.00046201  -0.00462105  -0.00079830  1
  Cu  Cu107  1  0.67046024  0.66832983  0.49998484  1
  Cu  Cu108  1  0.67131217  -0.00573974  0.50055778  1
  Cu  Cu109  1  0.16615542  0.49802606  0.75261015  1
  Cu  Cu110  1  0.16601709  0.15528318  0.74522978  1
  Cu  Cu111  1  0.00191229  0.34120541  0.00127298  1
  Cu  Cu112  1  0.33675407  0.66730838  0.00300860  1
  Cu  Cu113  1  0.83435315  0.51409271  0.75334385  1
  Cu  Cu114  1  0.33944294  0.33491915  -0.00558589  1
  Se  Se115  1  0.08691354  0.07363326  0.05509099  1
  Se  Se116  1  0.07365737  0.07134153  0.55992263  1
  Se  Se117  1  0.08723788  0.42453733  0.05193651  1
  Se  Se118  1  0.08268459  0.41466399  0.54682925  1
  Se  Se119  1  0.07287894  0.74324721  0.06016676  1
  Se  Se120  1  0.08613694  0.75362736  0.55834079  1
  Se  Se121  1  0.42160077  0.08726130  0.04842773  1
  Se  Se122  1  0.41368413  0.07487272  0.55517022  1
  Se  Se123  1  0.42238920  0.42006382  0.04775603  1
  Se  Se124  1  0.41463420  0.41480185  0.56719784  1
  Se  Se125  1  0.41517442  0.75514287  0.05636915  1
  Se  Se126  1  0.41181070  0.74191685  0.55949530  1
  Se  Se127  1  0.74794811  0.07450987  0.06066969  1
  Se  Se128  1  0.74968969  0.08058045  0.55505993  1
  Se  Se129  1  0.75091701  0.41695966  0.04928571  1
  Se  Se130  1  0.74152486  0.42010574  0.56465236  1
  Se  Se131  1  0.75060885  0.75276749  0.05063201  1
  Se  Se132  1  0.74962029  0.75564288  0.55156137  1
  Se  Se133  1  0.26350441  0.25697509  0.06187922  1
  Se  Se134  1  0.25534449  0.25390226  0.56232431  1
  Se  Se135  1  0.24846271  0.58325256  0.05025803  1
  Se  Se136  1  0.24906480  0.58015756  0.55316860  1
  Se  Se137  1  0.25816741  0.91927209  0.06071434  1
  Se  Se138  1  0.25130777  0.91209445  0.55339309  1
  Se  Se139  1  0.59025895  0.24951732  0.04702404  1
  Se  Se140  1  0.58564507  0.25229367  0.56934244  1
  Se  Se141  1  0.58304587  0.58518614  0.04994345  1
  Se  Se142  1  0.59026566  0.58985309  0.55957175  1
  Se  Se143  1  0.58231432  0.91320185  0.05126946  1
  Se  Se144  1  0.58584430  0.92011298  0.56104590  1
  Se  Se145  1  0.92952161  0.25480751  0.06230172  1
  Se  Se146  1  0.92148322  0.26722975  0.55092807  1
  Se  Se147  1  0.90909690  0.58284913  0.05079348  1
  Se  Se148  1  0.92445463  0.59122186  0.56410338  1
  Se  Se149  1  0.91467587  0.91317329  0.05068680  1
  Se  Se150  1  0.90647612  0.90186176  0.55652791  1
  Se  Se151  1  0.07415460  0.25352741  0.43697734  1
  Se  Se152  1  0.07900458  0.26074352  0.93962418  1
  Se  Se153  1  0.08702646  0.58791175  0.44910989  1
  Se  Se154  1  0.08071831  0.58857674  0.94704968  1
  Se  Se155  1  0.09102092  0.92061707  0.45688310  1
  Se  Se156  1  0.07981984  0.91826719  0.93688348  1
  Se  Se157  1  0.40895496  0.26390471  0.44663971  1
  Se  Se158  1  0.42062061  0.24701224  0.94448058  1
  Se  Se159  1  0.41777945  0.60081907  0.43647948  1
  Se  Se160  1  0.42151124  0.58516243  0.94905290  1
  Se  Se161  1  0.41323394  0.92297011  0.43475566  1
  Se  Se162  1  0.41955286  0.91291640  0.94931036  1
  Se  Se163  1  0.75202613  0.24283201  0.45550408  1
  Se  Se164  1  0.74717227  0.25584846  0.93454889  1
  Se  Se165  1  0.74693307  0.58475724  0.43918227  1
  Se  Se166  1  0.74975182  0.58463799  0.94067958  1
  Se  Se167  1  0.74518953  0.90840735  0.44191295  1
  Se  Se168  1  0.75377858  0.91339598  0.94871353  1
  Se  Se169  1  0.25470632  0.08298068  0.44030859  1
  Se  Se170  1  0.25091620  0.06907269  0.93518771  1
  Se  Se171  1  0.25210850  0.42678443  0.44834352  1
  Se  Se172  1  0.24759941  0.41709690  0.94935902  1
  Se  Se173  1  0.24798290  0.75708086  0.44793827  1
  Se  Se174  1  0.25699199  0.74201471  0.93786330  1
  Se  Se175  1  0.58257125  0.06393028  0.43819634  1
  Se  Se176  1  0.58299917  0.08405129  0.95033603  1
  Se  Se177  1  0.59286979  0.40519546  0.44784839  1
  Se  Se178  1  0.58240554  0.42072852  0.93807831  1
  Se  Se179  1  0.59184925  0.74467541  0.43558027  1
  Se  Se180  1  0.58249197  0.75401855  0.94770490  1
  Se  Se181  1  0.90644199  0.07590526  0.44801764  1
  Se  Se182  1  0.92194786  0.07971190  0.94048281  1
  Se  Se183  1  0.92556007  0.41317138  0.43548781  1
  Se  Se184  1  0.91214948  0.42059586  0.95165702  1
  Se  Se185  1  0.91195757  0.74947700  0.45377731  1
  Se  Se186  1  0.91606884  0.75729179  0.94120007  1
  Se  Se187  1  0.24458931  0.24535809  0.31313064  1
  Se  Se188  1  0.24440592  0.23934754  0.80211193  1
  Se  Se189  1  0.24675254  0.59960658  0.30131339  1
  Se  Se190  1  0.24284213  0.57624861  0.81720952  1
  Se  Se191  1  0.24788078  0.92271569  0.30590888  1
  Se  Se192  1  0.25911249  0.91011221  0.79368686  1
  Se  Se193  1  0.58128713  0.23719471  0.31398274  1
  Se  Se194  1  0.58499086  0.25132771  0.80505827  1
  Se  Se195  1  0.58604533  0.58708297  0.29775883  1
  Se  Se196  1  0.58513549  0.58751721  0.79880426  1
  Se  Se197  1  0.56404440  0.88066489  0.28814719  1
  Se  Se198  1  0.58809366  0.92174708  0.80946195  1
  Se  Se199  1  0.90242690  0.23811257  0.30900742  1
  Se  Se200  1  0.91072266  0.24201511  0.81128583  1
  Se  Se201  1  0.91082079  0.57578555  0.30262732  1
  Se  Se202  1  0.92248767  0.59297216  0.80483178  1
  Se  Se203  1  0.91553843  0.91110498  0.30894646  1
  Se  Se204  1  0.91811644  0.92432017  0.80054657  1
  Se  Se205  1  0.07997212  0.08427875  0.30477447  1
  Se  Se206  1  0.07825270  0.07490435  0.79608609  1
  Se  Se207  1  0.09584116  0.42860086  0.30460497  1
  Se  Se208  1  0.08011219  0.42020361  0.81260052  1
  Se  Se209  1  0.07485028  0.76809517  0.32106392  1
  Se  Se210  1  0.09697802  0.76620394  0.79630827  1
  Se  Se211  1  0.41845797  0.07893931  0.30011602  1
  Se  Se212  1  0.41757553  0.07883970  0.80805871  1
  Se  Se213  1  0.42207317  0.43327746  0.30946394  1
  Se  Se214  1  0.40000142  0.40617261  0.80680222  1
  Se  Se215  1  0.40128902  0.74818299  0.29295370  1
  Se  Se216  1  0.42922204  0.75436909  0.81585232  1
  Se  Se217  1  0.72888838  0.06079822  0.30403762  1
  Se  Se218  1  0.74779488  0.08104037  0.80413888  1
  Se  Se219  1  0.75384080  0.41957434  0.30794404  1
  Se  Se220  1  0.75313016  0.42231166  0.79985437  1
  Se  Se221  1  0.75111414  0.74157088  0.30201216  1
  Se  Se222  1  0.75009471  0.75542285  0.80412679  1
  Se  Se223  1  0.24740436  0.08838408  0.19838512  1
  Se  Se224  1  0.25219002  0.07378653  0.69321274  1
  Se  Se225  1  0.24975521  0.42697284  0.19250037  1
  Se  Se226  1  0.24699881  0.41122240  0.70101140  1
  Se  Se227  1  0.23583536  0.75931956  0.19664895  1
  Se  Se228  1  0.25483184  0.74420892  0.69087156  1
  Se  Se229  1  0.58690084  0.07548175  0.19153671  1
  Se  Se230  1  0.58515312  0.08321353  0.70163718  1
  Se  Se231  1  0.57598409  0.42042136  0.18944409  1
  Se  Se232  1  0.58464529  0.41712679  0.70913162  1
  Se  Se233  1  0.57534400  0.76313221  0.19497736  1
  Se  Se234  1  0.58795972  0.75032839  0.70082288  1
  Se  Se235  1  0.91599196  0.07882353  0.20274784  1
  Se  Se236  1  0.91246330  0.08469326  0.69358078  1
  Se  Se237  1  0.91485842  0.41577893  0.18817088  1
  Se  Se238  1  0.91087721  0.42925932  0.69108829  1
  Se  Se239  1  0.91054484  0.75245517  0.18814930  1
  Se  Se240  1  0.91896026  0.75089157  0.69932755  1
  Se  Se241  1  0.08760252  0.24624358  0.18786293  1
  Se  Se242  1  0.08700648  0.23764952  0.68448684  1
  Se  Se243  1  0.08998827  0.57597568  0.19190669  1
  Se  Se244  1  0.08557552  0.58239337  0.69846534  1
  Se  Se245  1  0.07532272  0.92310346  0.20214961  1
  Se  Se246  1  0.08628432  0.91014081  0.69976842  1
  Se  Se247  1  0.43048163  0.24534301  0.19100895  1
  Se  Se248  1  0.41284248  0.24600328  0.70272690  1
  Se  Se249  1  0.41665567  0.58992482  0.18585573  1
  Se  Se250  1  0.42645954  0.56951593  0.69525421  1
  Se  Se251  1  0.39235754  0.94593452  0.18614691  1
  Se  Se252  1  0.42109649  0.91412401  0.70061224  1
  Se  Se253  1  0.76137348  0.23261975  0.19365720  1
  Se  Se254  1  0.74802700  0.25512795  0.69977358  1
  Se  Se255  1  0.74360896  0.58125913  0.19364840  1
  Se  Se256  1  0.75078919  0.59456287  0.69749993  1
  Se  Se257  1  0.75195601  0.91105223  0.19253296  1
  Se  Se258  1  0.74822502  0.92164325  0.69774328  1
