# generated using pymatgen
data_In86Cu29Se144
_symmetry_space_group_name_H-M   'P 1'
_cell_length_a   17.58219896
_cell_length_b   17.57956928
_cell_length_c   23.44147407
_cell_angle_alpha   89.99722777
_cell_angle_beta   90.00022534
_cell_angle_gamma   89.99468807
_symmetry_Int_Tables_number   1
_chemical_formula_structural   In86Cu29Se144
_chemical_formula_sum   'In86 Cu29 Se144'
_cell_volume   7245.46621540
_cell_formula_units_Z   1
loop_
 _symmetry_equiv_pos_site_id
 _symmetry_equiv_pos_as_xyz
  1  'x, y, z'
loop_
 _atom_site_type_symbol
 _atom_site_label
 _atom_site_symmetry_multiplicity
 _atom_site_fract_x
 _atom_site_fract_y
 _atom_site_fract_z
 _atom_site_occupancy
  In  In0  1  0.00775058  0.16627503  0.13158276  1
  In  In1  1  -0.01613864  0.16948305  0.62207874  1
  In  In2  1  -0.00217822  0.50343164  0.13105650  1
  In  In3  1  0.00062374  0.49220566  0.60835916  1
  In  In4  1  -0.02077272  0.83067740  0.11968353  1
  In  In5  1  0.00836842  0.83863097  0.62038838  1
  In  In6  1  0.32208007  0.16333695  0.12782342  1
  In  In7  1  0.33148333  0.16821774  0.63134324  1
  In  In8  1  0.33736178  0.50613057  0.11498724  1
  In  In9  1  0.33586462  0.50134087  0.62308746  1
  In  In10  1  0.35051826  0.82969361  0.12666678  1
  In  In11  1  0.33586739  0.82823496  0.62690939  1
  In  In12  1  0.66873389  0.17996564  0.12356626  1
  In  In13  1  0.68214351  0.17348572  0.62081583  1
  In  In14  1  0.67524491  0.51004809  0.12202297  1
  In  In15  1  0.66384448  0.50318690  0.62678025  1
  In  In16  1  0.65713430  0.81316614  0.12064702  1
  In  In17  1  0.65465465  0.81950387  0.61656586  1
  In  In18  1  0.16649798  -0.01766467  0.37892687  1
  In  In19  1  0.16878626  -0.00312882  0.86532890  1
  In  In20  1  0.15535559  0.35745724  0.39034929  1
  In  In21  1  0.17493530  0.34074187  0.86885965  1
  In  In22  1  0.16456782  0.67428626  0.37915663  1
  In  In23  1  0.16441209  0.65153111  0.87515991  1
  In  In24  1  0.48637100  -0.00402663  0.37452408  1
  In  In25  1  0.49116074  -0.00323685  0.87407843  1
  In  In26  1  0.50723829  0.34276058  0.37939378  1
  In  In27  1  0.50910911  0.34458898  0.86177878  1
  In  In28  1  0.51346716  0.65902537  0.37733376  1
  In  In29  1  0.50092631  0.66623622  0.87292265  1
  In  In30  1  0.82838963  0.00015637  0.38232827  1
  In  In31  1  0.83419672  -0.01509251  0.87621697  1
  In  In32  1  0.84831732  0.32982404  0.38844157  1
  In  In33  1  0.83556612  0.35218410  0.87448144  1
  In  In34  1  0.83263328  0.66465177  0.37607533  1
  In  In35  1  0.82599377  0.67632283  0.87873779  1
  In  In36  1  -0.01969113  0.16689509  0.37308709  1
  In  In37  1  0.01207017  0.16652690  0.87199192  1
  In  In38  1  -0.00262630  0.50384526  0.37597215  1
  In  In39  1  -0.00673672  0.51694947  0.89187081  1
  In  In40  1  0.00748670  0.82234742  0.37912592  1
  In  In41  1  -0.01053643  0.83676580  0.87605415  1
  In  In42  1  0.34044898  0.16294961  0.37591388  1
  In  In43  1  0.33019415  0.16653207  0.86279016  1
  In  In44  1  0.33894113  0.49782267  0.38655796  1
  In  In45  1  0.33342447  0.50446256  0.87049519  1
  In  In46  1  0.32983583  0.83443062  0.38108198  1
  In  In47  1  0.34533696  0.84133147  0.86985367  1
  In  In48  1  0.67703613  0.17827612  0.37699653  1
  In  In49  1  0.65602901  0.16977216  0.87023304  1
  In  In50  1  0.65939145  0.51597479  0.37900545  1
  In  In51  1  0.66451063  0.50412389  0.87125806  1
  In  In52  1  0.67205194  0.82592385  0.38040611  1
  In  In53  1  0.67252258  0.82049967  0.87837526  1
  In  In54  1  0.16653061  0.00849854  0.12787662  1
  In  In55  1  0.17679999  -0.01032619  0.63244076  1
  In  In56  1  0.15448313  0.33302999  0.13150501  1
  In  In57  1  0.17285350  0.34945577  0.61573719  1
  In  In58  1  0.16626914  0.65099008  0.12451910  1
  In  In59  1  0.17223385  0.67270805  0.62047860  1
  In  In60  1  0.50442092  -0.02324312  0.13083562  1
  In  In61  1  0.49922600  -0.01574133  0.62356371  1
  In  In62  1  0.49657279  0.33954705  0.12131086  1
  In  In63  1  0.48517199  0.35275411  0.63208175  1
  In  In64  1  0.50856517  0.67106584  0.12189573  1
  In  In65  1  0.49891388  0.66412312  0.62576020  1
  In  In66  1  0.84477267  -0.01920639  0.12344024  1
  In  In67  1  0.84085536  0.00379299  0.62058024  1
  In  In68  1  0.82995253  0.35216338  0.12993711  1
  In  In69  1  0.83109847  0.32838940  0.61738103  1
  In  In70  1  0.83240375  0.65938636  0.12891777  1
  In  In71  1  0.82738109  0.65709621  0.61948784  1
  In  In72  1  0.00295936  0.66943069  0.75206414  1
  In  In73  1  0.66536847  -0.00142798  0.25755027  1
  In  In74  1  0.16425152  0.16921143  0.00443546  1
  In  In75  1  -0.00201851  -0.00463347  0.24947710  1
  In  In76  1  0.32927453  0.33510929  0.26425984  1
  In  In77  1  0.16312846  0.16628533  0.50966883  1
  In  In78  1  0.49067844  0.15948077  -0.01246186  1
  In  In79  1  0.16171862  0.82821569  -0.00283265  1
  In  In80  1  0.66750922  0.00061919  0.74411335  1
  In  In81  1  0.33665204  0.66549161  0.25006382  1
  In  In82  1  0.67223743  0.34117359  0.25161349  1
  In  In83  1  0.50686820  0.17025810  0.49423779  1
  In  In84  1  0.83362436  0.16508837  0.00309739  1
  In  In85  1  0.00389545  0.33411371  0.74438615  1
  Cu  Cu86  1  0.16683659  0.50077283  0.74696957  1
  Cu  Cu87  1  0.33646010  0.66827975  0.50255816  1
  Cu  Cu88  1  -0.00264256  -0.00620568  0.49770125  1
  Cu  Cu89  1  0.17432713  0.83406806  0.74537253  1
  Cu  Cu90  1  -0.00260348  0.66678147  0.49750869  1
  Cu  Cu91  1  -0.00051043  0.34544675  0.00649157  1
  Cu  Cu92  1  0.83598505  0.50328842  0.25447899  1
  Cu  Cu93  1  0.50095490  0.17113086  0.74681811  1
  Cu  Cu94  1  0.16786105  0.83133351  0.25469655  1
  Cu  Cu95  1  0.33332008  0.34624113  -0.00694320  1
  Cu  Cu96  1  0.33298525  -0.00619796  0.50542175  1
  Cu  Cu97  1  0.67366872  -0.01705588  0.00269938  1
  Cu  Cu98  1  0.66287378  0.34144435  -0.00679473  1
  Cu  Cu99  1  0.82719135  0.82412268  0.25202330  1
  Cu  Cu100  1  0.83269666  0.16914505  0.74425920  1
  Cu  Cu101  1  0.66606684  0.66332220  -0.00156361  1
  Cu  Cu102  1  0.66720775  0.66674809  0.50154226  1
  Cu  Cu103  1  0.33459220  -0.00450796  -0.00082219  1
  Cu  Cu104  1  0.33695897  0.66484290  -0.00300610  1
  Cu  Cu105  1  0.66966299  -0.00380454  0.50328139  1
  Cu  Cu106  1  0.49878941  0.82873263  0.74679873  1
  Cu  Cu107  1  0.16418259  0.49704651  0.25313460  1
  Cu  Cu108  1  0.16679193  0.16552229  0.25423971  1
  Cu  Cu109  1  0.49550092  0.16110172  0.24996621  1
  Cu  Cu110  1  0.66923029  0.34181962  0.50121413  1
  Cu  Cu111  1  0.16603164  0.16304507  0.74591457  1
  Cu  Cu112  1  0.82335290  0.50198673  0.74763630  1
  Cu  Cu113  1  0.83276888  0.83266296  0.75045851  1
  Cu  Cu114  1  0.49830329  0.50416315  0.74886343  1
  Se  Se115  1  0.06970249  0.07321155  0.05500620  1
  Se  Se116  1  0.07525181  0.06930244  0.56482563  1
  Se  Se117  1  0.08664573  0.42219797  0.06114223  1
  Se  Se118  1  0.08152404  0.40733051  0.54281987  1
  Se  Se119  1  0.07672241  0.74207354  0.06185692  1
  Se  Se120  1  0.08245057  0.74797156  0.55262876  1
  Se  Se121  1  0.41237027  0.07725408  0.06190422  1
  Se  Se122  1  0.41527963  0.08147180  0.55787212  1
  Se  Se123  1  0.42135964  0.42061053  0.04883067  1
  Se  Se124  1  0.42047604  0.42438497  0.55132219  1
  Se  Se125  1  0.41924336  0.74760281  0.05152958  1
  Se  Se126  1  0.42070405  0.75153797  0.55583485  1
  Se  Se127  1  0.74181293  0.07313771  0.06309603  1
  Se  Se128  1  0.75291284  0.08321543  0.55219860  1
  Se  Se129  1  0.74665530  0.41580647  0.05291179  1
  Se  Se130  1  0.75098367  0.42367451  0.55716630  1
  Se  Se131  1  0.75210402  0.74206892  0.05538862  1
  Se  Se132  1  0.75364973  0.75061367  0.55234161  1
  Se  Se133  1  0.25890997  0.26499736  0.05767926  1
  Se  Se134  1  0.26496523  0.25691660  0.55540093  1
  Se  Se135  1  0.24954137  0.58383888  0.04796703  1
  Se  Se136  1  0.25079975  0.58418277  0.55404134  1
  Se  Se137  1  0.25156683  0.91955953  0.06013427  1
  Se  Se138  1  0.24923044  0.90982341  0.55716061  1
  Se  Se139  1  0.58270544  0.25365621  0.04809828  1
  Se  Se140  1  0.58685296  0.26041513  0.56078762  1
  Se  Se141  1  0.58256491  0.58081349  0.05297842  1
  Se  Se142  1  0.58259820  0.58374366  0.55513368  1
  Se  Se143  1  0.58199891  0.90715525  0.05353869  1
  Se  Se144  1  0.58057056  0.91318413  0.54934307  1
  Se  Se145  1  0.92327490  0.25760215  0.06356117  1
  Se  Se146  1  0.92272038  0.25784181  0.54925637  1
  Se  Se147  1  0.90370164  0.56728614  0.06094659  1
  Se  Se148  1  0.91437782  0.58223587  0.54936367  1
  Se  Se149  1  0.91798724  0.91652215  0.04315764  1
  Se  Se150  1  0.91422192  0.91129262  0.55338213  1
  Se  Se151  1  0.07747848  0.24459602  0.43984756  1
  Se  Se152  1  0.07731853  0.26519059  0.94369088  1
  Se  Se153  1  0.08468553  0.58572330  0.44462872  1
  Se  Se154  1  0.08901147  0.58739075  0.95498129  1
  Se  Se155  1  0.08398317  0.90878208  0.45067367  1
  Se  Se156  1  0.07942240  0.92824582  0.93993812  1
  Se  Se157  1  0.40935357  0.26190970  0.44273968  1
  Se  Se158  1  0.40745802  0.25995428  0.93280163  1
  Se  Se159  1  0.42166496  0.58817657  0.44774348  1
  Se  Se160  1  0.41869530  0.58122679  0.94168062  1
  Se  Se161  1  0.41763162  0.91416928  0.45044782  1
  Se  Se162  1  0.42161716  0.91362544  0.94926200  1
  Se  Se163  1  0.75201861  0.25201041  0.45284768  1
  Se  Se164  1  0.74416810  0.25438490  0.93925767  1
  Se  Se165  1  0.75217497  0.58393170  0.44888113  1
  Se  Se166  1  0.74890309  0.58231791  0.94226042  1
  Se  Se167  1  0.75188693  0.91186899  0.44925779  1
  Se  Se168  1  0.75666392  0.90367186  0.94692971  1
  Se  Se169  1  0.25377308  0.07601701  0.44548557  1
  Se  Se170  1  0.25600279  0.08006695  0.94147173  1
  Se  Se171  1  0.25577525  0.41796638  0.45394747  1
  Se  Se172  1  0.24540408  0.42534177  0.94150480  1
  Se  Se173  1  0.24962598  0.75065220  0.45007507  1
  Se  Se174  1  0.25847351  0.74696189  0.93605996  1
  Se  Se175  1  0.59460188  0.07423169  0.43578328  1
  Se  Se176  1  0.59648791  0.06757475  0.94223534  1
  Se  Se177  1  0.58507994  0.42424260  0.44893966  1
  Se  Se178  1  0.57787331  0.42179610  0.94041371  1
  Se  Se179  1  0.58255137  0.75007746  0.44890715  1
  Se  Se180  1  0.58123074  0.74801723  0.94601206  1
  Se  Se181  1  0.91503203  0.08148935  0.44895137  1
  Se  Se182  1  0.92180231  0.08145543  0.93805367  1
  Se  Se183  1  0.91738149  0.42757975  0.45031034  1
  Se  Se184  1  0.91169103  0.42223222  0.95221921  1
  Se  Se185  1  0.91320362  0.75140865  0.44543691  1
  Se  Se186  1  0.93765509  0.72943279  0.93816899  1
  Se  Se187  1  0.23621450  0.24609515  0.32123089  1
  Se  Se188  1  0.24519996  0.25185435  0.79839214  1
  Se  Se189  1  0.24796453  0.57511834  0.31224551  1
  Se  Se190  1  0.24899854  0.58598903  0.79954915  1
  Se  Se191  1  0.25231078  0.91451841  0.30509996  1
  Se  Se192  1  0.25755205  0.91845977  0.80052172  1
  Se  Se193  1  0.57543105  0.24380620  0.30684380  1
  Se  Se194  1  0.58818418  0.25335184  0.79619616  1
  Se  Se195  1  0.58740158  0.58569230  0.29910486  1
  Se  Se196  1  0.58378273  0.58709899  0.80130174  1
  Se  Se197  1  0.57518239  0.90667710  0.31173474  1
  Se  Se198  1  0.58123166  0.91060539  0.80731045  1
  Se  Se199  1  0.90894820  0.25523789  0.30485605  1
  Se  Se200  1  0.91173214  0.24756311  0.80897057  1
  Se  Se201  1  0.92014576  0.58948622  0.30473168  1
  Se  Se202  1  0.90979918  0.57702637  0.80749631  1
  Se  Se203  1  0.90763239  0.90756821  0.31126941  1
  Se  Se204  1  0.91740004  0.91756450  0.79960476  1
  Se  Se205  1  0.08669829  0.08277833  0.31425773  1
  Se  Se206  1  0.08258231  0.08148408  0.79984807  1
  Se  Se207  1  0.07982654  0.41592019  0.30667788  1
  Se  Se208  1  0.07882445  0.43120143  0.81003502  1
  Se  Se209  1  0.08303831  0.74607002  0.30259773  1
  Se  Se210  1  0.09468678  0.75972558  0.81109701  1
  Se  Se211  1  0.41092444  0.07958911  0.30179213  1
  Se  Se212  1  0.42247013  0.08428770  0.80160552  1
  Se  Se213  1  0.42866672  0.42981488  0.30740931  1
  Se  Se214  1  0.41215211  0.41883231  0.79978235  1
  Se  Se215  1  0.42074434  0.75195406  0.31453031  1
  Se  Se216  1  0.41586967  0.74737780  0.80268338  1
  Se  Se217  1  0.76061992  0.09339546  0.30669876  1
  Se  Se218  1  0.75713901  0.08817999  0.80915269  1
  Se  Se219  1  0.75759708  0.42441316  0.31824112  1
  Se  Se220  1  0.74538399  0.41524627  0.80203692  1
  Se  Se221  1  0.74394754  0.74300529  0.30608333  1
  Se  Se222  1  0.74865811  0.74785717  0.80035835  1
  Se  Se223  1  0.24881779  0.08172677  0.20184082  1
  Se  Se224  1  0.25517084  0.07932357  0.69855770  1
  Se  Se225  1  0.25011657  0.42237606  0.19261442  1
  Se  Se226  1  0.25060952  0.41796925  0.69392936  1
  Se  Se227  1  0.24408859  0.75381676  0.18835034  1
  Se  Se228  1  0.25320174  0.74410541  0.69639530  1
  Se  Se229  1  0.58059855  0.09038500  0.18828683  1
  Se  Se230  1  0.57815452  0.09140225  0.68306127  1
  Se  Se231  1  0.57957603  0.42348404  0.18959505  1
  Se  Se232  1  0.58396829  0.41899808  0.69788851  1
  Se  Se233  1  0.57112079  0.75702625  0.19818241  1
  Se  Se234  1  0.58454305  0.74605885  0.69622897  1
  Se  Se235  1  0.90598214  0.08574356  0.19121894  1
  Se  Se236  1  0.91674035  0.08246011  0.69663774  1
  Se  Se237  1  0.91892462  0.41739393  0.20275914  1
  Se  Se238  1  0.91096517  0.42649810  0.68899113  1
  Se  Se239  1  0.91482469  0.74796363  0.19682928  1
  Se  Se240  1  0.91270798  0.75334639  0.68809872  1
  Se  Se241  1  0.08146670  0.24927175  0.20433817  1
  Se  Se242  1  0.09259307  0.24467632  0.68245577  1
  Se  Se243  1  0.08381398  0.58419118  0.20110704  1
  Se  Se244  1  0.08197773  0.57554459  0.68603512  1
  Se  Se245  1  0.08731749  0.90550301  0.18823429  1
  Se  Se246  1  0.08235967  0.91462010  0.69819549  1
  Se  Se247  1  0.41709698  0.24788500  0.19295551  1
  Se  Se248  1  0.41445225  0.25410250  0.69657613  1
  Se  Se249  1  0.42401380  0.57549185  0.18953865  1
  Se  Se250  1  0.41302202  0.58545739  0.69539061  1
  Se  Se251  1  0.40648869  0.92245653  0.20015593  1
  Se  Se252  1  0.41526131  0.91591324  0.69766913  1
  Se  Se253  1  0.76176010  0.24470639  0.19514953  1
  Se  Se254  1  0.75158492  0.25713146  0.69584818  1
  Se  Se255  1  0.74732274  0.58275212  0.20185079  1
  Se  Se256  1  0.74464215  0.59044737  0.69628769  1
  Se  Se257  1  0.75037496  0.90846391  0.19237907  1
  Se  Se258  1  0.75281829  0.90763535  0.68469663  1
