# generated using pymatgen
data_In86Cu29Se144
_symmetry_space_group_name_H-M   'P 1'
_cell_length_a   17.57822942
_cell_length_b   17.57874568
_cell_length_c   23.43755291
_cell_angle_alpha   90.00180074
_cell_angle_beta   90.00020796
_cell_angle_gamma   89.96706915
_symmetry_Int_Tables_number   1
_chemical_formula_structural   In86Cu29Se144
_chemical_formula_sum   'In86 Cu29 Se144'
_cell_volume   7242.27822258
_cell_formula_units_Z   1
loop_
 _symmetry_equiv_pos_site_id
 _symmetry_equiv_pos_as_xyz
  1  'x, y, z'
loop_
 _atom_site_type_symbol
 _atom_site_label
 _atom_site_symmetry_multiplicity
 _atom_site_fract_x
 _atom_site_fract_y
 _atom_site_fract_z
 _atom_site_occupancy
  In  In0  1  -0.01599093  0.16660779  0.12669059  1
  In  In1  1  -0.00931499  0.15228876  0.61793469  1
  In  In2  1  0.01221830  0.50980146  0.11688713  1
  In  In3  1  0.00164859  0.52441866  0.62085484  1
  In  In4  1  -0.00145202  0.83348826  0.12835623  1
  In  In5  1  0.00457219  0.83151381  0.62546044  1
  In  In6  1  0.35136290  0.16006736  0.12446236  1
  In  In7  1  0.33704381  0.17287926  0.60804332  1
  In  In8  1  0.33481423  0.49713729  0.11767924  1
  In  In9  1  0.34572426  0.50358394  0.63236250  1
  In  In10  1  0.32233398  0.83502943  0.11041443  1
  In  In11  1  0.31922863  0.82846210  0.62473954  1
  In  In12  1  0.66631939  0.16431599  0.12943831  1
  In  In13  1  0.67794312  0.17673924  0.61790295  1
  In  In14  1  0.66754162  0.50486859  0.12753199  1
  In  In15  1  0.66872342  0.48973244  0.62862019  1
  In  In16  1  0.67201696  0.83301379  0.12673537  1
  In  In17  1  0.67313635  0.82051439  0.62243727  1
  In  In18  1  0.15850766  0.00050167  0.37704963  1
  In  In19  1  0.14756104  0.00000474  0.87064716  1
  In  In20  1  0.15370425  0.33397894  0.38068195  1
  In  In21  1  0.17845706  0.33479406  0.87446725  1
  In  In22  1  0.15196441  0.69672968  0.39579646  1
  In  In23  1  0.16145541  0.66871443  0.87806032  1
  In  In24  1  0.51264152  0.00473949  0.36958563  1
  In  In25  1  0.49820019  -0.00038181  0.89198502  1
  In  In26  1  0.50569789  0.31814072  0.37719192  1
  In  In27  1  0.51010891  0.32954297  0.88514124  1
  In  In28  1  0.50319816  0.65626185  0.37373336  1
  In  In29  1  0.49221662  0.67099150  0.88477295  1
  In  In30  1  0.83439725  -0.00258817  0.37466754  1
  In  In31  1  0.83962854  -0.00863842  0.88105113  1
  In  In32  1  0.82042301  0.34183580  0.37850426  1
  In  In33  1  0.81013955  0.33605454  0.87490127  1
  In  In34  1  0.83741063  0.66895597  0.37346807  1
  In  In35  1  0.84417194  0.67746793  0.87499044  1
  In  In36  1  0.00585685  0.15591213  0.38035488  1
  In  In37  1  -0.00163223  0.14995572  0.87134012  1
  In  In38  1  -0.01525600  0.49756114  0.37601691  1
  In  In39  1  -0.00582477  0.52569259  0.87588201  1
  In  In40  1  -0.00733715  0.83020693  0.37503333  1
  In  In41  1  -0.00275245  0.83431396  0.87794993  1
  In  In42  1  0.33486915  0.16872807  0.38612310  1
  In  In43  1  0.34139788  0.17464567  0.87276409  1
  In  In44  1  0.33346663  0.50560011  0.37764473  1
  In  In45  1  0.32206578  0.50544427  0.88212602  1
  In  In46  1  0.31729547  0.82799442  0.38095183  1
  In  In47  1  0.34320981  0.82517586  0.88781197  1
  In  In48  1  0.66883396  0.16487683  0.37409884  1
  In  In49  1  0.66301916  0.18021961  0.88444657  1
  In  In50  1  0.67802977  0.50860752  0.36076998  1
  In  In51  1  0.66347770  0.48483796  0.87476693  1
  In  In52  1  0.67806747  0.84502525  0.36343269  1
  In  In53  1  0.66584442  0.83315087  0.88856114  1
  In  In54  1  0.16188403  -0.02750145  0.12066726  1
  In  In55  1  0.15604039  -0.01573065  0.61742534  1
  In  In56  1  0.15605230  0.33961248  0.12125718  1
  In  In57  1  0.17883276  0.32688065  0.61990785  1
  In  In58  1  0.15946477  0.66911915  0.12041941  1
  In  In59  1  0.15912221  0.67497663  0.63350093  1
  In  In60  1  0.50826040  0.01125877  0.11279420  1
  In  In61  1  0.48925004  0.00461630  0.62563797  1
  In  In62  1  0.52050083  0.34461458  0.10902323  1
  In  In63  1  0.51324091  0.34082911  0.62577164  1
  In  In64  1  0.50728181  0.67500592  0.11807365  1
  In  In65  1  0.49702312  0.65061501  0.63557538  1
  In  In66  1  0.83400269  -0.00216028  0.13067717  1
  In  In67  1  0.84223098  0.00743131  0.61742964  1
  In  In68  1  0.82837805  0.31764171  0.12064741  1
  In  In69  1  0.82760474  0.32802953  0.62009190  1
  In  In70  1  0.83267935  0.67201602  0.12710645  1
  In  In71  1  0.85846288  0.68715629  0.60017184  1
  In  In72  1  0.33987039  0.33701750  0.74806247  1
  In  In73  1  0.32643953  -0.00207897  0.75167480  1
  In  In74  1  0.50163221  0.49759667  0.50609234  1
  In  In75  1  0.83286627  0.50506459  0.00154502  1
  In  In76  1  -0.01408653  0.33556670  0.24965976  1
  In  In77  1  0.50397640  0.83629635  0.50182501  1
  In  In78  1  0.67052597  -0.00137510  0.75672310  1
  In  In79  1  0.33575200  0.33219903  0.25843147  1
  In  In80  1  -0.00366543  0.33655755  0.74753621  1
  In  In81  1  0.67286052  0.65429122  0.75363673  1
  In  In82  1  0.16881783  0.16681179  -0.00281021  1
  In  In83  1  0.16852290  0.49639714  0.50554464  1
  In  In84  1  0.33769798  -0.00067549  0.23703555  1
  In  In85  1  0.33494328  0.66610719  0.25672762  1
  Cu  Cu86  1  0.83521525  0.83103371  0.25044106  1
  Cu  Cu87  1  0.16283154  0.82707083  0.75212080  1
  Cu  Cu88  1  0.16178519  0.50973402  0.75544144  1
  Cu  Cu89  1  -0.00567494  0.32533193  0.50096391  1
  Cu  Cu90  1  0.15771608  0.82930832  0.25208692  1
  Cu  Cu91  1  0.50769693  0.16812246  0.24766412  1
  Cu  Cu92  1  0.00061550  -0.00778684  0.49680169  1
  Cu  Cu93  1  0.67741095  0.00091796  0.00625681  1
  Cu  Cu94  1  0.16582162  0.51148546  0.24628297  1
  Cu  Cu95  1  0.83473504  0.50250001  0.24670569  1
  Cu  Cu96  1  0.49499043  0.82444587  0.76006483  1
  Cu  Cu97  1  0.33220644  -0.00004963  0.49995098  1
  Cu  Cu98  1  0.50478749  0.83073967  0.24383837  1
  Cu  Cu99  1  0.66793373  0.00417871  0.49352675  1
  Cu  Cu100  1  0.32532628  0.66049175  -0.00028219  1
  Cu  Cu101  1  0.16338720  0.15642991  0.73983018  1
  Cu  Cu102  1  0.50925901  0.49981406  0.24390674  1
  Cu  Cu103  1  -0.00317881  0.33890029  -0.00184976  1
  Cu  Cu104  1  0.33924635  0.33168312  -0.00221331  1
  Cu  Cu105  1  -0.00346446  -0.00222160  0.00235373  1
  Cu  Cu106  1  0.66518404  0.66406540  0.00321179  1
  Cu  Cu107  1  0.82891543  0.16130258  0.25201287  1
  Cu  Cu108  1  0.16279559  0.15720129  0.25157041  1
  Cu  Cu109  1  0.83133315  0.50851199  0.74711072  1
  Cu  Cu110  1  0.67551352  0.66751745  0.49291956  1
  Cu  Cu111  1  0.66377588  0.33178992  0.49745326  1
  Cu  Cu112  1  0.51103019  0.16947058  0.75333308  1
  Cu  Cu113  1  0.84204846  0.83599014  0.74837756  1
  Cu  Cu114  1  0.82856387  0.16977439  0.74506595  1
  Se  Se115  1  0.07849156  0.08093494  0.06159179  1
  Se  Se116  1  0.08299017  0.07825018  0.55102577  1
  Se  Se117  1  0.08496157  0.42047323  0.04650815  1
  Se  Se118  1  0.07169118  0.40707430  0.56388428  1
  Se  Se119  1  0.10646808  0.78079250  0.06229239  1
  Se  Se120  1  0.08212451  0.74422074  0.55672444  1
  Se  Se121  1  0.40562013  0.07314831  0.04754829  1
  Se  Se122  1  0.42217309  0.08201653  0.54719853  1
  Se  Se123  1  0.42056274  0.41892452  0.04938483  1
  Se  Se124  1  0.40615364  0.40576121  0.55944426  1
  Se  Se125  1  0.40964349  0.74375667  0.05287236  1
  Se  Se126  1  0.42116399  0.74518598  0.56570962  1
  Se  Se127  1  0.75640384  0.08610414  0.06150434  1
  Se  Se128  1  0.75124129  0.08453279  0.55146306  1
  Se  Se129  1  0.74421788  0.41009823  0.05662894  1
  Se  Se130  1  0.74582534  0.41513210  0.55270465  1
  Se  Se131  1  0.75009876  0.74788312  0.05465537  1
  Se  Se132  1  0.75300414  0.75916750  0.54299892  1
  Se  Se133  1  0.25786646  0.25582638  0.06240441  1
  Se  Se134  1  0.24319244  0.24525153  0.54400498  1
  Se  Se135  1  0.24353369  0.57991047  0.05706031  1
  Se  Se136  1  0.25431733  0.58601951  0.56790964  1
  Se  Se137  1  0.26466149  0.94127528  0.04742901  1
  Se  Se138  1  0.25073088  0.91243579  0.55020931  1
  Se  Se139  1  0.56655943  0.22345900  0.05986594  1
  Se  Se140  1  0.58162806  0.25132522  0.55394087  1
  Se  Se141  1  0.58277515  0.57889450  0.05475999  1
  Se  Se142  1  0.59579605  0.59425935  0.55902327  1
  Se  Se143  1  0.59067150  0.91513611  0.05507432  1
  Se  Se144  1  0.59420904  0.92777715  0.56301491  1
  Se  Se145  1  0.91918636  0.24995134  0.04931331  1
  Se  Se146  1  0.90972230  0.24216045  0.55354329  1
  Se  Se147  1  0.92649631  0.59940726  0.05248218  1
  Se  Se148  1  0.90519583  0.56832906  0.54630013  1
  Se  Se149  1  0.91480693  0.91607148  0.05905174  1
  Se  Se150  1  0.91884899  0.91292946  0.55517832  1
  Se  Se151  1  0.08190884  0.24543375  0.44940159  1
  Se  Se152  1  0.07520349  0.25556541  0.93574807  1
  Se  Se153  1  0.07732369  0.58078641  0.44318498  1
  Se  Se154  1  0.08485441  0.58265330  0.94871703  1
  Se  Se155  1  0.08431562  0.90882854  0.44333537  1
  Se  Se156  1  0.08191154  0.91833900  0.94768675  1
  Se  Se157  1  0.41665070  0.25544003  0.44892640  1
  Se  Se158  1  0.42112376  0.24407121  0.94836561  1
  Se  Se159  1  0.41020437  0.59391575  0.44956469  1
  Se  Se160  1  0.41435014  0.57903627  0.95010583  1
  Se  Se161  1  0.41361881  0.92281589  0.43642565  1
  Se  Se162  1  0.41837053  0.91295859  0.95529264  1
  Se  Se163  1  0.74901169  0.24786555  0.44542113  1
  Se  Se164  1  0.76056734  0.24571502  0.95147155  1
  Se  Se165  1  0.75253339  0.57938615  0.43960304  1
  Se  Se166  1  0.74358718  0.59151576  0.93563225  1
  Se  Se167  1  0.74913341  0.91532274  0.44463711  1
  Se  Se168  1  0.75553900  0.91381762  0.95168790  1
  Se  Se169  1  0.24706079  0.07949724  0.44423361  1
  Se  Se170  1  0.25175685  0.08060355  0.93006940  1
  Se  Se171  1  0.25832131  0.40776731  0.44158479  1
  Se  Se172  1  0.24786533  0.41302970  0.95105957  1
  Se  Se173  1  0.26326771  0.74108069  0.45799113  1
  Se  Se174  1  0.24549562  0.74984212  0.94873454  1
  Se  Se175  1  0.58050974  0.08721104  0.44513656  1
  Se  Se176  1  0.59358559  0.08101507  0.94906327  1
  Se  Se177  1  0.59065505  0.41922608  0.43660652  1
  Se  Se178  1  0.59339215  0.41137881  0.95284033  1
  Se  Se179  1  0.59020041  0.74787721  0.43635920  1
  Se  Se180  1  0.57963331  0.75002654  0.95279591  1
  Se  Se181  1  0.91572437  0.07859292  0.44660317  1
  Se  Se182  1  0.91660745  0.08370935  0.94835847  1
  Se  Se183  1  0.91409309  0.41144527  0.44776535  1
  Se  Se184  1  0.91853587  0.41555475  0.93391304  1
  Se  Se185  1  0.91504694  0.74793127  0.44646705  1
  Se  Se186  1  0.90913118  0.76127225  0.94899945  1
  Se  Se187  1  0.23789901  0.24055820  0.31097565  1
  Se  Se188  1  0.24258731  0.23856248  0.79920266  1
  Se  Se189  1  0.23647779  0.58530357  0.31623911  1
  Se  Se190  1  0.24875976  0.58796276  0.80855522  1
  Se  Se191  1  0.24745337  0.91293275  0.30340450  1
  Se  Se192  1  0.24326774  0.90632346  0.81386022  1
  Se  Se193  1  0.58958259  0.25093977  0.30249814  1
  Se  Se194  1  0.58829307  0.25556034  0.80685790  1
  Se  Se195  1  0.58556328  0.58931905  0.29763989  1
  Se  Se196  1  0.57520649  0.57917437  0.81513757  1
  Se  Se197  1  0.58311702  0.91872566  0.29770652  1
  Se  Se198  1  0.57429281  0.91030868  0.81411654  1
  Se  Se199  1  0.90882925  0.24175724  0.31436154  1
  Se  Se200  1  0.90945445  0.24664401  0.80970075  1
  Se  Se201  1  0.91791635  0.58301899  0.30184703  1
  Se  Se202  1  0.91291086  0.59368693  0.79893760  1
  Se  Se203  1  0.91706024  0.91640065  0.30397724  1
  Se  Se204  1  0.92023430  0.92045534  0.80467753  1
  Se  Se205  1  0.07746417  0.07629484  0.30306468  1
  Se  Se206  1  0.07676167  0.07904260  0.79354377  1
  Se  Se207  1  0.08689621  0.42415995  0.30411516  1
  Se  Se208  1  0.08539331  0.42225035  0.81249983  1
  Se  Se209  1  0.07992253  0.74446503  0.30732688  1
  Se  Se210  1  0.07675216  0.74886829  0.80783797  1
  Se  Se211  1  0.41716281  0.09276052  0.30490877  1
  Se  Se212  1  0.42935472  0.08415933  0.80724033  1
  Se  Se213  1  0.42996163  0.42800787  0.31132361  1
  Se  Se214  1  0.41815457  0.41735461  0.81981622  1
  Se  Se215  1  0.42490899  0.76305128  0.31274183  1
  Se  Se216  1  0.40877176  0.74328917  0.80938562  1
  Se  Se217  1  0.74653040  0.07687274  0.30558940  1
  Se  Se218  1  0.75742861  0.09185537  0.81416253  1
  Se  Se219  1  0.75248671  0.41307808  0.29579749  1
  Se  Se220  1  0.74888088  0.42163006  0.79685040  1
  Se  Se221  1  0.75064029  0.74584059  0.30220389  1
  Se  Se222  1  0.75100446  0.76376210  0.80703054  1
  Se  Se223  1  0.24003381  0.08871562  0.18297288  1
  Se  Se224  1  0.25014011  0.08497457  0.68014657  1
  Se  Se225  1  0.24432958  0.42139009  0.19447147  1
  Se  Se226  1  0.23807914  0.42564780  0.69474396  1
  Se  Se227  1  0.24961361  0.75707843  0.19377480  1
  Se  Se228  1  0.25277988  0.74731909  0.70201473  1
  Se  Se229  1  0.58231104  0.07563286  0.19596755  1
  Se  Se230  1  0.58441298  0.08639161  0.69045015  1
  Se  Se231  1  0.58881835  0.41157984  0.19330007  1
  Se  Se232  1  0.56966580  0.43402567  0.69785660  1
  Se  Se233  1  0.58826403  0.74500013  0.19427521  1
  Se  Se234  1  0.57992797  0.75334806  0.69709607  1
  Se  Se235  1  0.91784951  0.08142969  0.20121263  1
  Se  Se236  1  0.91306995  0.08287596  0.69707042  1
  Se  Se237  1  0.91045587  0.42587499  0.17934148  1
  Se  Se238  1  0.91084745  0.42705477  0.68567994  1
  Se  Se239  1  0.91933092  0.74748752  0.19780963  1
  Se  Se240  1  0.91573113  0.74760523  0.69176763  1
  Se  Se241  1  0.08581488  0.24578775  0.19377536  1
  Se  Se242  1  0.08488198  0.24520522  0.68604557  1
  Se  Se243  1  0.07965552  0.59110884  0.19461123  1
  Se  Se244  1  0.07659016  0.58992151  0.70213198  1
  Se  Se245  1  0.07867002  0.91873506  0.20119611  1
  Se  Se246  1  0.08385952  0.91481597  0.69811108  1
  Se  Se247  1  0.42677674  0.25380010  0.19176474  1
  Se  Se248  1  0.42466522  0.23915359  0.68970415  1
  Se  Se249  1  0.42065008  0.57850599  0.19044262  1
  Se  Se250  1  0.41625781  0.57935893  0.70868446  1
  Se  Se251  1  0.42511449  0.90511808  0.18051637  1
  Se  Se252  1  0.42158922  0.90571649  0.69498901  1
  Se  Se253  1  0.75012264  0.24884937  0.19865550  1
  Se  Se254  1  0.74541607  0.25643037  0.69674213  1
  Se  Se255  1  0.75045632  0.58722645  0.19517095  1
  Se  Se256  1  0.76239827  0.58968707  0.67883331  1
  Se  Se257  1  0.74983629  0.91541275  0.19914717  1
  Se  Se258  1  0.75541993  0.91149467  0.68976515  1
