# generated using pymatgen
data_In86Cu29Se144
_symmetry_space_group_name_H-M   'P 1'
_cell_length_a   17.58213886
_cell_length_b   17.58576399
_cell_length_c   23.44295725
_cell_angle_alpha   89.99677523
_cell_angle_beta   89.99576172
_cell_angle_gamma   89.98319872
_symmetry_Int_Tables_number   1
_chemical_formula_structural   In86Cu29Se144
_chemical_formula_sum   'In86 Cu29 Se144'
_cell_volume   7248.45289667
_cell_formula_units_Z   1
loop_
 _symmetry_equiv_pos_site_id
 _symmetry_equiv_pos_as_xyz
  1  'x, y, z'
loop_
 _atom_site_type_symbol
 _atom_site_label
 _atom_site_symmetry_multiplicity
 _atom_site_fract_x
 _atom_site_fract_y
 _atom_site_fract_z
 _atom_site_occupancy
  In  In0  1  -0.00377260  0.17242340  0.13477560  1
  In  In1  1  -0.00021643  0.16731983  0.62402839  1
  In  In2  1  -0.00292818  0.48814184  0.12215278  1
  In  In3  1  -0.00297552  0.49873309  0.63836689  1
  In  In4  1  0.00174537  0.84429724  0.11867114  1
  In  In5  1  -0.01030463  0.84156786  0.64815613  1
  In  In6  1  0.34583233  0.17416396  0.13360530  1
  In  In7  1  0.32568757  0.17792661  0.62794643  1
  In  In8  1  0.34462101  0.49920721  0.12234339  1
  In  In9  1  0.33186817  0.50272751  0.63480594  1
  In  In10  1  0.33182062  0.82269886  0.11113749  1
  In  In11  1  0.34094372  0.82841784  0.63461374  1
  In  In12  1  0.66930939  0.15642155  0.13079968  1
  In  In13  1  0.68099200  0.16191746  0.62423084  1
  In  In14  1  0.65310509  0.49768425  0.11520150  1
  In  In15  1  0.67138388  0.49710319  0.63759095  1
  In  In16  1  0.67695427  0.84126464  0.09942681  1
  In  In17  1  0.65554732  0.83615474  0.63248266  1
  In  In18  1  0.17049843  0.01939802  0.37352202  1
  In  In19  1  0.15780076  -0.00917412  0.86959676  1
  In  In20  1  0.13885112  0.29976782  0.34450566  1
  In  In21  1  0.16711993  0.33286953  0.86928740  1
  In  In22  1  0.17036215  0.65339365  0.37436215  1
  In  In23  1  0.18353635  0.68251703  0.87325827  1
  In  In24  1  0.50119928  -0.01872327  0.37244894  1
  In  In25  1  0.49365810  0.00399414  0.87099012  1
  In  In26  1  0.49549113  0.32365505  0.35616875  1
  In  In27  1  0.51308324  0.34200690  0.87279045  1
  In  In28  1  0.49923657  0.68580028  0.37277956  1
  In  In29  1  0.49983207  0.66725491  0.88554502  1
  In  In30  1  0.84832735  0.00987469  0.36142198  1
  In  In31  1  0.83481825  -0.01381645  0.88632417  1
  In  In32  1  0.81769704  0.31858018  0.36490867  1
  In  In33  1  0.81933138  0.32074712  0.87505277  1
  In  In34  1  0.82957431  0.66801086  0.37244034  1
  In  In35  1  0.83902223  0.68290272  0.86160031  1
  In  In36  1  -0.00522599  0.16117495  0.37522353  1
  In  In37  1  -0.01206859  0.15453377  0.86757014  1
  In  In38  1  0.02097170  0.49505737  0.37769759  1
  In  In39  1  -0.00054172  0.50081920  0.86867333  1
  In  In40  1  -0.01629363  0.83692590  0.37090607  1
  In  In41  1  0.00145214  0.84096919  0.87186847  1
  In  In42  1  0.32451503  0.16666959  0.37572327  1
  In  In43  1  0.33255023  0.16422117  0.86522077  1
  In  In44  1  0.32832782  0.49918677  0.36964319  1
  In  In45  1  0.35560036  0.51354708  0.87209693  1
  In  In46  1  0.35006613  0.83817010  0.37125342  1
  In  In47  1  0.33038882  0.82878264  0.88093780  1
  In  In48  1  0.67399460  0.17038054  0.36530616  1
  In  In49  1  0.67091542  0.18141281  0.88412713  1
  In  In50  1  0.67455344  0.48890644  0.37301472  1
  In  In51  1  0.65343867  0.49151708  0.88106480  1
  In  In52  1  0.65377480  0.82948407  0.37027926  1
  In  In53  1  0.67683795  0.81876720  0.90627488  1
  In  In54  1  0.17098955  -0.01013721  0.12912603  1
  In  In55  1  0.15795322  0.01026253  0.62986699  1
  In  In56  1  0.17123150  0.32815881  0.13434177  1
  In  In57  1  0.16763997  0.32736531  0.62734193  1
  In  In58  1  0.17111943  0.68323107  0.11716220  1
  In  In59  1  0.16697678  0.66801591  0.63845598  1
  In  In60  1  0.52215221  -0.00152839  0.11991974  1
  In  In61  1  0.50500798  -0.01739691  0.62754601  1
  In  In62  1  0.49458586  0.33787007  0.13304708  1
  In  In63  1  0.49531932  0.33884679  0.63107388  1
  In  In64  1  0.50231006  0.65846755  0.10303879  1
  In  In65  1  0.48861890  0.67565045  0.63573647  1
  In  In66  1  0.82698197  0.00547565  0.11691128  1
  In  In67  1  0.83113701  0.01379660  0.62628054  1
  In  In68  1  0.84298480  0.32146266  0.12689886  1
  In  In69  1  0.83918475  0.32367928  0.63067706  1
  In  In70  1  0.81734150  0.67320698  0.11411486  1
  In  In71  1  0.82849966  0.67179613  0.65046065  1
  In  In72  1  0.16461157  0.16678729  0.01099517  1
  In  In73  1  0.49881672  0.49810670  0.50100896  1
  In  In74  1  0.65816797  0.66261748  0.23463047  1
  In  In75  1  0.16811870  0.83716169  0.50348138  1
  In  In76  1  0.17145407  0.49398773  0.50960963  1
  In  In77  1  0.50231460  0.16645075  0.00803972  1
  In  In78  1  0.00314108  0.66318472  0.24676845  1
  In  In79  1  0.83523309  0.50292141  -0.00355422  1
  In  In80  1  0.17286497  0.50421582  -0.00131000  1
  In  In81  1  0.33586266  0.00335947  0.24817685  1
  In  In82  1  0.50032825  0.15906747  0.49771071  1
  In  In83  1  0.82445224  0.84291630  0.50883610  1
  In  In84  1  0.67106904  -0.00535076  0.75526742  1
  In  In85  1  0.83448426  0.49479140  0.50037541  1
  Cu  Cu86  1  0.67328332  -0.00377761  0.49831253  1
  Cu  Cu87  1  0.16472026  0.16942994  0.74828000  1
  Cu  Cu88  1  0.83857821  0.48819587  0.24651986  1
  Cu  Cu89  1  -0.00694416  0.32335054  0.49478302  1
  Cu  Cu90  1  -0.00536366  0.67338561  0.51575678  1
  Cu  Cu91  1  0.17304322  0.83321540  0.75418388  1
  Cu  Cu92  1  0.00638193  0.00689253  0.49828830  1
  Cu  Cu93  1  0.66624103  0.32242493  0.49565800  1
  Cu  Cu94  1  0.50101789  0.82553945  0.76004479  1
  Cu  Cu95  1  0.83468530  0.16868131  0.75127117  1
  Cu  Cu96  1  0.17003193  0.82864400  0.24451256  1
  Cu  Cu97  1  0.65524050  0.67018296  0.50560457  1
  Cu  Cu98  1  0.50062990  0.50059385  0.75415404  1
  Cu  Cu99  1  0.50028172  0.51072940  0.24381185  1
  Cu  Cu100  1  0.33679114  -0.00016764  0.49883438  1
  Cu  Cu101  1  0.82588553  0.83936945  0.23693342  1
  Cu  Cu102  1  0.16581926  0.49772189  0.75526800  1
  Cu  Cu103  1  0.49946647  0.83103138  0.24112203  1
  Cu  Cu104  1  0.32253123  0.00006322  -0.00113396  1
  Cu  Cu105  1  0.34295326  0.67907498  0.50313349  1
  Cu  Cu106  1  0.50070840  0.16972712  0.75182078  1
  Cu  Cu107  1  0.31912582  0.32998817  0.49654991  1
  Cu  Cu108  1  -0.00036460  0.32232894  -0.00194578  1
  Cu  Cu109  1  0.34487190  0.34016864  -0.00384828  1
  Cu  Cu110  1  -0.00587753  -0.00172251  -0.00384783  1
  Cu  Cu111  1  -0.00144677  0.67488028  -0.00843045  1
  Cu  Cu112  1  0.83350154  0.15629486  0.24663876  1
  Cu  Cu113  1  0.17860836  0.50334632  0.24501823  1
  Cu  Cu114  1  0.82267594  0.49739134  0.76023932  1
  Se  Se115  1  0.07309241  0.07182831  0.06310321  1
  Se  Se116  1  0.08711981  0.08947282  0.55274704  1
  Se  Se117  1  0.08414836  0.40217830  0.05360570  1
  Se  Se118  1  0.06559922  0.40861768  0.55894278  1
  Se  Se119  1  0.07894213  0.75491101  0.05080053  1
  Se  Se120  1  0.07745005  0.75444351  0.57026061  1
  Se  Se121  1  0.40422602  0.07404760  0.06201404  1
  Se  Se122  1  0.41444768  0.07579507  0.56522885  1
  Se  Se123  1  0.42775531  0.41865880  0.05253798  1
  Se  Se124  1  0.39975896  0.40984875  0.55691257  1
  Se  Se125  1  0.43096186  0.76136324  0.04292003  1
  Se  Se126  1  0.42464798  0.75975233  0.55755691  1
  Se  Se127  1  0.73700561  0.08244443  0.04995357  1
  Se  Se128  1  0.75406569  0.08370661  0.54774048  1
  Se  Se129  1  0.75495988  0.41212284  0.06157072  1
  Se  Se130  1  0.73988515  0.40748913  0.55882341  1
  Se  Se131  1  0.75002902  0.74536878  0.03468381  1
  Se  Se132  1  0.74496106  0.73940623  0.56634210  1
  Se  Se133  1  0.26530236  0.26136337  0.05782152  1
  Se  Se134  1  0.24093875  0.24598494  0.55182115  1
  Se  Se135  1  0.26234111  0.59427022  0.05604032  1
  Se  Se136  1  0.26027718  0.59779666  0.56069122  1
  Se  Se137  1  0.24334229  0.91377990  0.05234387  1
  Se  Se138  1  0.25843843  0.92349497  0.56460544  1
  Se  Se139  1  0.58890403  0.25815932  0.06667857  1
  Se  Se140  1  0.58399694  0.25232347  0.56111956  1
  Se  Se141  1  0.61528603  0.60285909  0.04608617  1
  Se  Se142  1  0.58446062  0.58429585  0.56667693  1
  Se  Se143  1  0.56945222  0.90849035  0.04103033  1
  Se  Se144  1  0.59018944  0.91467625  0.55237580  1
  Se  Se145  1  0.92029512  0.23980842  0.05371205  1
  Se  Se146  1  0.91105485  0.24562482  0.55352104  1
  Se  Se147  1  0.92875094  0.59308121  0.05783667  1
  Se  Se148  1  0.91226553  0.58850130  0.56830259  1
  Se  Se149  1  0.90989821  0.91554026  0.05105769  1
  Se  Se150  1  0.92983237  0.92463144  0.56150276  1
  Se  Se151  1  0.08325246  0.24913013  0.43918798  1
  Se  Se152  1  0.08176103  0.24538378  0.93816016  1
  Se  Se153  1  0.07710109  0.59427678  0.45453044  1
  Se  Se154  1  0.08014652  0.58986409  0.93800458  1
  Se  Se155  1  0.07703929  0.91932247  0.43770485  1
  Se  Se156  1  0.08388026  0.91693151  0.94749726  1
  Se  Se157  1  0.41496824  0.25956647  0.44241276  1
  Se  Se158  1  0.41377088  0.24809159  0.93824893  1
  Se  Se159  1  0.41206968  0.59225572  0.44031983  1
  Se  Se160  1  0.42724234  0.57496014  0.95426302  1
  Se  Se161  1  0.42047166  0.91362902  0.45041487  1
  Se  Se162  1  0.40921806  0.92743462  0.94156085  1
  Se  Se163  1  0.75168306  0.24098484  0.44500753  1
  Se  Se164  1  0.75649535  0.24932673  0.95804811  1
  Se  Se165  1  0.73747830  0.59216378  0.44494337  1
  Se  Se166  1  0.75438270  0.58716262  0.92908588  1
  Se  Se167  1  0.74900526  0.91859770  0.43077425  1
  Se  Se168  1  0.73680489  0.93294260  0.95870658  1
  Se  Se169  1  0.25207212  0.08609569  0.45117610  1
  Se  Se170  1  0.24672518  0.08419535  0.94027103  1
  Se  Se171  1  0.24362110  0.41077339  0.43477899  1
  Se  Se172  1  0.25863385  0.41345593  0.93684824  1
  Se  Se173  1  0.25576391  0.74681358  0.43917252  1
  Se  Se174  1  0.25177907  0.74966659  0.95478770  1
  Se  Se175  1  0.59174257  0.07366969  0.43609801  1
  Se  Se176  1  0.58552045  0.08122265  0.94022970  1
  Se  Se177  1  0.58383560  0.40399379  0.43894695  1
  Se  Se178  1  0.58593793  0.40483266  0.95479274  1
  Se  Se179  1  0.57990349  0.75585358  0.44960190  1
  Se  Se180  1  0.55088971  0.77602684  0.95517078  1
  Se  Se181  1  0.91238243  0.07928816  0.44614595  1
  Se  Se182  1  0.91246813  0.08594032  0.94701868  1
  Se  Se183  1  0.92080878  0.40894160  0.43330380  1
  Se  Se184  1  0.92484640  0.40882792  0.93984887  1
  Se  Se185  1  0.91595842  0.74495925  0.44846837  1
  Se  Se186  1  0.91509227  0.75708311  0.93959563  1
  Se  Se187  1  0.26772530  0.26041922  0.30346591  1
  Se  Se188  1  0.25052172  0.25223855  0.80060000  1
  Se  Se189  1  0.25631266  0.59044095  0.29885877  1
  Se  Se190  1  0.24927414  0.57835741  0.81109906  1
  Se  Se191  1  0.24441856  0.91067024  0.31011082  1
  Se  Se192  1  0.25581359  0.91634016  0.80772664  1
  Se  Se193  1  0.59816152  0.25792691  0.29786503  1
  Se  Se194  1  0.58696808  0.24681333  0.80638766  1
  Se  Se195  1  0.58054208  0.58202663  0.31346084  1
  Se  Se196  1  0.57833477  0.58249596  0.81323395  1
  Se  Se197  1  0.58339955  0.91294423  0.29538239  1
  Se  Se198  1  0.58422117  0.90649234  0.81721589  1
  Se  Se199  1  0.91261393  0.24213227  0.30270766  1
  Se  Se200  1  0.91527993  0.25479933  0.80560914  1
  Se  Se201  1  0.91305366  0.57246279  0.30989662  1
  Se  Se202  1  0.91434407  0.58227113  0.80235415  1
  Se  Se203  1  0.91615305  0.91338903  0.29249042  1
  Se  Se204  1  0.92015964  0.93115429  0.80749382  1
  Se  Se205  1  0.07482098  0.07728391  0.30535067  1
  Se  Se206  1  0.08503195  0.08460365  0.80296656  1
  Se  Se207  1  0.08774258  0.42417813  0.29614599  1
  Se  Se208  1  0.07924487  0.41243511  0.80286932  1
  Se  Se209  1  0.08974795  0.75461336  0.31112256  1
  Se  Se210  1  0.08712081  0.75204470  0.80734035  1
  Se  Se211  1  0.42488388  0.08601872  0.31482236  1
  Se  Se212  1  0.41527636  0.08168956  0.79675433  1
  Se  Se213  1  0.42092446  0.42816380  0.30150746  1
  Se  Se214  1  0.41810816  0.41247912  0.80545572  1
  Se  Se215  1  0.41488951  0.75046003  0.29570031  1
  Se  Se216  1  0.41503741  0.74471631  0.81254984  1
  Se  Se217  1  0.74528822  0.07456965  0.29852646  1
  Se  Se218  1  0.75556691  0.08955411  0.81454862  1
  Se  Se219  1  0.74602098  0.41174187  0.29662588  1
  Se  Se220  1  0.74005783  0.41182683  0.81066947  1
  Se  Se221  1  0.75170985  0.75334837  0.29876386  1
  Se  Se222  1  0.73334096  0.76463274  0.81432078  1
  Se  Se223  1  0.24169664  0.09383424  0.19223572  1
  Se  Se224  1  0.25036695  0.08695094  0.69550455  1
  Se  Se225  1  0.25920549  0.41949313  0.19115650  1
  Se  Se226  1  0.24498123  0.41643461  0.69535797  1
  Se  Se227  1  0.25637887  0.75032049  0.19234917  1
  Se  Se228  1  0.25664149  0.74735949  0.70271727  1
  Se  Se229  1  0.56148814  0.09770840  0.19302930  1
  Se  Se230  1  0.58103052  0.08633968  0.69106185  1
  Se  Se231  1  0.58539818  0.42450835  0.19619924  1
  Se  Se232  1  0.58170535  0.41410860  0.70001955  1
  Se  Se233  1  0.58055547  0.75929780  0.17523734  1
  Se  Se234  1  0.58441127  0.74709176  0.70216051  1
  Se  Se235  1  0.91514728  0.07400919  0.19126231  1
  Se  Se236  1  0.91770015  0.08576192  0.69695187  1
  Se  Se237  1  0.92629322  0.40673499  0.19639428  1
  Se  Se238  1  0.90502551  0.41841328  0.70032288  1
  Se  Se239  1  0.90887931  0.74919493  0.18614782  1
  Se  Se240  1  0.92337436  0.74463801  0.71215753  1
  Se  Se241  1  0.08597976  0.24966868  0.20048032  1
  Se  Se242  1  0.07842444  0.25146673  0.69521767  1
  Se  Se243  1  0.09387011  0.57729766  0.18199354  1
  Se  Se244  1  0.08222075  0.58309418  0.70284658  1
  Se  Se245  1  0.08280475  0.91238627  0.19719383  1
  Se  Se246  1  0.09029896  0.92004527  0.70234935  1
  Se  Se247  1  0.41577548  0.25778405  0.20538680  1
  Se  Se248  1  0.41589250  0.25124956  0.69715731  1
  Se  Se249  1  0.42555423  0.59349931  0.18497664  1
  Se  Se250  1  0.41368552  0.58421872  0.70268943  1
  Se  Se251  1  0.41782837  0.91301464  0.18244285  1
  Se  Se252  1  0.42384037  0.91268759  0.70320204  1
  Se  Se253  1  0.75403956  0.24498732  0.19493397  1
  Se  Se254  1  0.74682113  0.24829391  0.69838794  1
  Se  Se255  1  0.76050719  0.57161207  0.18680795  1
  Se  Se256  1  0.73887226  0.58580796  0.70988378  1
  Se  Se257  1  0.74031767  0.91669328  0.18255676  1
  Se  Se258  1  0.76170009  0.90994160  0.69134307  1
