# generated using pymatgen
data_In86Cu29Se144
_symmetry_space_group_name_H-M   'P 1'
_cell_length_a   17.57367457
_cell_length_b   17.57226153
_cell_length_c   23.43043188
_cell_angle_alpha   89.99995232
_cell_angle_beta   89.97854585
_cell_angle_gamma   90.03179485
_symmetry_Int_Tables_number   1
_chemical_formula_structural   In86Cu29Se144
_chemical_formula_sum   'In86 Cu29 Se144'
_cell_volume   7235.53143481
_cell_formula_units_Z   1
loop_
 _symmetry_equiv_pos_site_id
 _symmetry_equiv_pos_as_xyz
  1  'x, y, z'
loop_
 _atom_site_type_symbol
 _atom_site_label
 _atom_site_symmetry_multiplicity
 _atom_site_fract_x
 _atom_site_fract_y
 _atom_site_fract_z
 _atom_site_occupancy
  In  In0  1  0.01589033  0.18869675  0.10208250  1
  In  In1  1  -0.01123040  0.17999432  0.63527188  1
  In  In2  1  0.00040633  0.49974801  0.11883348  1
  In  In3  1  0.00227591  0.49848351  0.62594076  1
  In  In4  1  0.00143412  0.81549650  0.12666719  1
  In  In5  1  0.01203289  0.82280349  0.63464530  1
  In  In6  1  0.33551704  0.17112567  0.11484329  1
  In  In7  1  0.34897030  0.16100855  0.62392596  1
  In  In8  1  0.33090418  0.50207764  0.12030100  1
  In  In9  1  0.32250682  0.50407287  0.62891907  1
  In  In10  1  0.31827891  0.83388827  0.12486941  1
  In  In11  1  0.31899613  0.84900838  0.62133892  1
  In  In12  1  0.67338608  0.16649026  0.11357244  1
  In  In13  1  0.66935441  0.16873799  0.62828148  1
  In  In14  1  0.66855601  0.51272127  0.10342898  1
  In  In15  1  0.67227323  0.47564654  0.63448703  1
  In  In16  1  0.67993721  0.84338310  0.12794004  1
  In  In17  1  0.67323212  0.83725819  0.63446602  1
  In  In18  1  0.15072499  -0.00327111  0.38189763  1
  In  In19  1  0.15683001  0.01345414  0.88239092  1
  In  In20  1  0.16521816  0.34742488  0.37605023  1
  In  In21  1  0.16207183  0.33298608  0.87710699  1
  In  In22  1  0.16581604  0.65965032  0.37157859  1
  In  In23  1  0.15537087  0.66933681  0.88213206  1
  In  In24  1  0.51326265  -0.00067506  0.37332247  1
  In  In25  1  0.52141324  0.00781213  0.86831529  1
  In  In26  1  0.48827882  0.32721841  0.38185640  1
  In  In27  1  0.49669877  0.33339639  0.87040433  1
  In  In28  1  0.48996512  0.67921482  0.36938101  1
  In  In29  1  0.49665542  0.66244384  0.87961831  1
  In  In30  1  0.83038025  0.02082952  0.37668776  1
  In  In31  1  0.83799958  0.00523752  0.87051567  1
  In  In32  1  0.84323004  0.32338360  0.38099459  1
  In  In33  1  0.83682595  0.33722951  0.87677645  1
  In  In34  1  0.83334501  0.64587147  0.37616860  1
  In  In35  1  0.83552854  0.64357996  0.88160282  1
  In  In36  1  -0.01156432  0.16583431  0.37625348  1
  In  In37  1  0.00023392  0.17093158  0.87574382  1
  In  In38  1  0.00154131  0.49626139  0.37229364  1
  In  In39  1  -0.00360471  0.49258295  0.87928390  1
  In  In40  1  0.01380282  0.82979388  0.37989852  1
  In  In41  1  0.00727380  0.84152478  0.86950519  1
  In  In42  1  0.33501296  0.18047617  0.37997804  1
  In  In43  1  0.32127433  0.18196213  0.88182636  1
  In  In44  1  0.31961517  0.49874532  0.37484543  1
  In  In45  1  0.34193147  0.48232704  0.87957812  1
  In  In46  1  0.33129140  0.81621331  0.36989111  1
  In  In47  1  0.33015330  0.82279821  0.87626306  1
  In  In48  1  0.67169888  0.16149413  0.37907325  1
  In  In49  1  0.66566910  0.16299525  0.87747315  1
  In  In50  1  0.67727786  0.50481978  0.37559099  1
  In  In51  1  0.67617975  0.49392121  0.88235613  1
  In  In52  1  0.65286973  0.84050096  0.37276802  1
  In  In53  1  0.66161193  0.84618699  0.86951596  1
  In  In54  1  0.16599844  -0.00223005  0.11512296  1
  In  In55  1  0.17413671  -0.01453782  0.62408692  1
  In  In56  1  0.15767708  0.34062480  0.11696999  1
  In  In57  1  0.15361544  0.34329097  0.63655045  1
  In  In58  1  0.16175314  0.66322937  0.12100225  1
  In  In59  1  0.16130983  0.65349076  0.61910364  1
  In  In60  1  0.51152767  0.01878394  0.11600847  1
  In  In61  1  0.49575384  0.01236555  0.63018096  1
  In  In62  1  0.50540727  0.33823566  0.11369132  1
  In  In63  1  0.51716934  0.32353183  0.64314794  1
  In  In64  1  0.49863308  0.65048427  0.11960351  1
  In  In65  1  0.49928423  0.66213099  0.62743542  1
  In  In66  1  0.82490147  0.00971696  0.12519291  1
  In  In67  1  0.82158631  0.01469004  0.63719995  1
  In  In68  1  0.86058716  0.35038627  0.09713677  1
  In  In69  1  0.83680832  0.33108067  0.62632720  1
  In  In70  1  0.84638845  0.66742161  0.12659987  1
  In  In71  1  0.85400483  0.66567025  0.62821519  1
  In  In72  1  0.16945930  0.16141925  0.50496483  1
  In  In73  1  -0.00881972  0.00095356  0.25047012  1
  In  In74  1  0.66704015  0.66919911  0.24712666  1
  In  In75  1  0.66901095  0.33032803  0.23685957  1
  In  In76  1  0.33453693  0.00117264  0.74756404  1
  In  In77  1  0.83812084  0.83679855  0.50641090  1
  In  In78  1  0.83621117  0.83086532  0.00432906  1
  In  In79  1  0.49364656  0.83603235  0.50120938  1
  In  In80  1  0.33541845  0.66181466  0.75575702  1
  In  In81  1  0.49887841  0.83340544  -0.00673389  1
  In  In82  1  0.67301390  0.66534724  0.76039604  1
  In  In83  1  0.33533872  -0.00242182  0.25134957  1
  In  In84  1  0.32465723  0.34179099  0.23701375  1
  In  In85  1  0.50065167  0.49186623  0.50515086  1
  Cu  Cu86  1  0.00224093  0.33708873  0.50486534  1
  Cu  Cu87  1  0.16746934  0.83127475  0.75158031  1
  Cu  Cu88  1  0.16169433  0.50119939  0.75349489  1
  Cu  Cu89  1  0.16362945  0.16993104  0.75700007  1
  Cu  Cu90  1  0.16339380  0.82200323  0.24967192  1
  Cu  Cu91  1  0.66603657  0.00896211  0.50263562  1
  Cu  Cu92  1  0.67458613  0.65863608  0.50057906  1
  Cu  Cu93  1  0.66953879  0.32531782  0.50666694  1
  Cu  Cu94  1  0.83068034  0.17237474  0.75621352  1
  Cu  Cu95  1  0.83898671  0.49401210  0.75317511  1
  Cu  Cu96  1  0.33240490  0.33725532  -0.00206180  1
  Cu  Cu97  1  0.49326643  0.50223213  0.24417439  1
  Cu  Cu98  1  0.83633613  0.17320576  0.24637227  1
  Cu  Cu99  1  0.33548822  0.32966214  0.50651744  1
  Cu  Cu100  1  0.50297267  0.16860447  0.75306717  1
  Cu  Cu101  1  -0.00593598  0.00133310  0.50686819  1
  Cu  Cu102  1  0.32523979  0.66350041  -0.00240351  1
  Cu  Cu103  1  0.32379308  0.66555367  0.49656988  1
  Cu  Cu104  1  0.84055021  0.83723532  0.75132809  1
  Cu  Cu105  1  0.84076431  0.49162364  0.24639956  1
  Cu  Cu106  1  0.33549851  0.00225249  -0.00166389  1
  Cu  Cu107  1  0.49950278  0.84033664  0.24714515  1
  Cu  Cu108  1  0.00122810  0.66138507  0.00166251  1
  Cu  Cu109  1  0.66272754  0.32605500  -0.00935212  1
  Cu  Cu110  1  -0.00019292  -0.00092369  -0.00514039  1
  Cu  Cu111  1  0.00615126  0.65998989  0.50065312  1
  Cu  Cu112  1  0.16263884  0.17301252  0.23965258  1
  Cu  Cu113  1  0.83355911  0.83587117  0.25100714  1
  Cu  Cu114  1  0.50935183  0.16639957  0.24561711  1
  Se  Se115  1  0.08732240  0.08219405  0.04683303  1
  Se  Se116  1  0.07520287  0.08074009  0.56840481  1
  Se  Se117  1  0.06459369  0.40590495  0.04696594  1
  Se  Se118  1  0.08874292  0.41932112  0.55500242  1
  Se  Se119  1  0.08417340  0.75172305  0.04946019  1
  Se  Se120  1  0.08377520  0.74811162  0.55508869  1
  Se  Se121  1  0.41936392  0.08823514  0.04778240  1
  Se  Se122  1  0.40788733  0.06604303  0.55316130  1
  Se  Se123  1  0.41572159  0.42100166  0.05195386  1
  Se  Se124  1  0.41447465  0.40730159  0.57013075  1
  Se  Se125  1  0.40783850  0.74610534  0.05705837  1
  Se  Se126  1  0.40444294  0.74085176  0.56046401  1
  Se  Se127  1  0.74775392  0.07381015  0.04677194  1
  Se  Se128  1  0.75266205  0.08773044  0.55625937  1
  Se  Se129  1  0.74214723  0.41014423  0.04764412  1
  Se  Se130  1  0.75243467  0.41307379  0.55524237  1
  Se  Se131  1  0.74221849  0.74019689  0.06190709  1
  Se  Se132  1  0.74634217  0.74186594  0.56327330  1
  Se  Se133  1  0.24863576  0.25638002  0.05392937  1
  Se  Se134  1  0.25092491  0.25510139  0.56819995  1
  Se  Se135  1  0.24344974  0.57973216  0.05150437  1
  Se  Se136  1  0.24824837  0.57571407  0.54989726  1
  Se  Se137  1  0.25165755  0.91598597  0.04818969  1
  Se  Se138  1  0.24615576  0.91788405  0.54256396  1
  Se  Se139  1  0.58123272  0.24624383  0.04934921  1
  Se  Se140  1  0.58033140  0.24893397  0.55992614  1
  Se  Se141  1  0.57447323  0.58607549  0.04039497  1
  Se  Se142  1  0.59454759  0.58190254  0.56352757  1
  Se  Se143  1  0.59175027  0.91912657  0.05486656  1
  Se  Se144  1  0.59124812  0.92047677  0.56043687  1
  Se  Se145  1  0.89217156  0.22219454  0.04883857  1
  Se  Se146  1  0.91806899  0.24969038  0.55350094  1
  Se  Se147  1  0.91011820  0.58241371  0.05077057  1
  Se  Se148  1  0.91932253  0.57980469  0.55377533  1
  Se  Se149  1  0.92716982  0.92260893  0.06464942  1
  Se  Se150  1  0.91999094  0.92315556  0.57317985  1
  Se  Se151  1  0.08064243  0.25223678  0.44335566  1
  Se  Se152  1  0.08499819  0.24682864  0.94661586  1
  Se  Se153  1  0.08535663  0.57768094  0.44275676  1
  Se  Se154  1  0.08252114  0.57609059  0.94818108  1
  Se  Se155  1  0.07750017  0.91605398  0.45636361  1
  Se  Se156  1  0.08591539  0.91373577  0.94666025  1
  Se  Se157  1  0.42009099  0.24407252  0.45741276  1
  Se  Se158  1  0.41804281  0.25327227  0.94626251  1
  Se  Se159  1  0.41627480  0.58825580  0.44275857  1
  Se  Se160  1  0.41105928  0.58210661  0.94566050  1
  Se  Se161  1  0.41030454  0.91837913  0.43169892  1
  Se  Se162  1  0.41248331  0.92692514  0.93292328  1
  Se  Se163  1  0.75179247  0.24677613  0.44680612  1
  Se  Se164  1  0.75347769  0.24745069  0.94200605  1
  Se  Se165  1  0.75748238  0.57149781  0.45327174  1
  Se  Se166  1  0.74197045  0.58721201  0.95327562  1
  Se  Se167  1  0.74316051  0.92196082  0.44324255  1
  Se  Se168  1  0.75017297  0.92040710  0.94199687  1
  Se  Se169  1  0.25582051  0.07633582  0.43781146  1
  Se  Se170  1  0.24916780  0.08747718  0.94858946  1
  Se  Se171  1  0.25511928  0.41160206  0.45009810  1
  Se  Se172  1  0.24409778  0.41836362  0.94721989  1
  Se  Se173  1  0.24346215  0.74947266  0.44238632  1
  Se  Se174  1  0.24453279  0.75196512  0.94780573  1
  Se  Se175  1  0.57976253  0.08645767  0.44708548  1
  Se  Se176  1  0.58640063  0.07972267  0.94880197  1
  Se  Se177  1  0.59395805  0.40632597  0.44087285  1
  Se  Se178  1  0.57915517  0.41414490  0.94247504  1
  Se  Se179  1  0.58966382  0.73962142  0.44517928  1
  Se  Se180  1  0.59638524  0.74530252  0.93915507  1
  Se  Se181  1  0.91520359  0.08642066  0.45241893  1
  Se  Se182  1  0.91729271  0.08306463  0.94370367  1
  Se  Se183  1  0.91957256  0.41602743  0.44547432  1
  Se  Se184  1  0.90331355  0.42653690  0.95006572  1
  Se  Se185  1  0.91960306  0.74022903  0.44324664  1
  Se  Se186  1  0.92460272  0.74572537  0.93939451  1
  Se  Se187  1  0.24526696  0.24654081  0.30377409  1
  Se  Se188  1  0.24889987  0.25635943  0.80381684  1
  Se  Se189  1  0.25991491  0.58934517  0.30354268  1
  Se  Se190  1  0.24310381  0.57705399  0.81611140  1
  Se  Se191  1  0.23595332  0.91236720  0.30858669  1
  Se  Se192  1  0.24434708  0.91454588  0.81168606  1
  Se  Se193  1  0.57967240  0.25144344  0.30876771  1
  Se  Se194  1  0.58730689  0.24958096  0.80702512  1
  Se  Se195  1  0.57498028  0.57714437  0.30896266  1
  Se  Se196  1  0.57854292  0.57401538  0.81246847  1
  Se  Se197  1  0.58667013  0.92299004  0.29582111  1
  Se  Se198  1  0.58176205  0.91657181  0.79515216  1
  Se  Se199  1  0.92079545  0.25221506  0.30228278  1
  Se  Se200  1  0.91822525  0.25450266  0.80586441  1
  Se  Se201  1  0.91711655  0.57974376  0.30153251  1
  Se  Se202  1  0.92052236  0.57992708  0.80546294  1
  Se  Se203  1  0.90841803  0.91187360  0.31899012  1
  Se  Se204  1  0.92343304  0.92361096  0.80221261  1
  Se  Se205  1  0.08978599  0.09243326  0.30590491  1
  Se  Se206  1  0.07946489  0.08291124  0.80446056  1
  Se  Se207  1  0.08147350  0.41211787  0.30271326  1
  Se  Se208  1  0.07955436  0.41537110  0.80642822  1
  Se  Se209  1  0.07764598  0.74444886  0.30483335  1
  Se  Se210  1  0.08377091  0.74730892  0.80410762  1
  Se  Se211  1  0.42272494  0.09581415  0.30786928  1
  Se  Se212  1  0.41604758  0.09234016  0.81275141  1
  Se  Se213  1  0.42128664  0.41843287  0.30627103  1
  Se  Se214  1  0.40991958  0.40983672  0.80021662  1
  Se  Se215  1  0.41429684  0.75164018  0.29190647  1
  Se  Se216  1  0.42940577  0.75922748  0.80644580  1
  Se  Se217  1  0.75088499  0.09131222  0.30009360  1
  Se  Se218  1  0.74768460  0.08323443  0.80410147  1
  Se  Se219  1  0.75541455  0.41585799  0.30572026  1
  Se  Se220  1  0.74993059  0.41618358  0.80547257  1
  Se  Se221  1  0.75467418  0.75520257  0.31477024  1
  Se  Se222  1  0.76622432  0.75668892  0.81716650  1
  Se  Se223  1  0.24667541  0.08829186  0.18837492  1
  Se  Se224  1  0.24087878  0.09266414  0.69079751  1
  Se  Se225  1  0.22912667  0.43530451  0.19016444  1
  Se  Se226  1  0.24815671  0.41993566  0.70087809  1
  Se  Se227  1  0.24696184  0.74433741  0.19327551  1
  Se  Se228  1  0.24664730  0.75047136  0.69054556  1
  Se  Se229  1  0.59432758  0.08855600  0.19116418  1
  Se  Se230  1  0.58511335  0.08523103  0.69818405  1
  Se  Se231  1  0.58145170  0.43242030  0.18483369  1
  Se  Se232  1  0.58332434  0.41996965  0.70928408  1
  Se  Se233  1  0.57622099  0.75704606  0.18490029  1
  Se  Se234  1  0.57969619  0.75072440  0.69513036  1
  Se  Se235  1  0.92097750  0.09712080  0.18473602  1
  Se  Se236  1  0.91559651  0.08764639  0.70304320  1
  Se  Se237  1  0.91910098  0.41073311  0.18807908  1
  Se  Se238  1  0.92080709  0.41398044  0.69483507  1
  Se  Se239  1  0.91647288  0.74914515  0.20280607  1
  Se  Se240  1  0.92251238  0.74751412  0.70367985  1
  Se  Se241  1  0.07907453  0.25541767  0.18892498  1
  Se  Se242  1  0.07867708  0.25374338  0.70419211  1
  Se  Se243  1  0.06023913  0.60146010  0.18618993  1
  Se  Se244  1  0.08196227  0.58479876  0.69675371  1
  Se  Se245  1  0.08829320  0.91285220  0.19256486  1
  Se  Se246  1  0.08737919  0.91885522  0.69872934  1
  Se  Se247  1  0.42661800  0.24771641  0.18887673  1
  Se  Se248  1  0.41427974  0.24617553  0.69931428  1
  Se  Se249  1  0.40996896  0.58557172  0.19306970  1
  Se  Se250  1  0.42650364  0.57062700  0.69671916  1
  Se  Se251  1  0.42381048  0.91885117  0.18163545  1
  Se  Se252  1  0.42276811  0.90448727  0.69097480  1
  Se  Se253  1  0.76688694  0.25221147  0.17812151  1
  Se  Se254  1  0.75031316  0.25361632  0.69689596  1
  Se  Se255  1  0.75374543  0.57215984  0.19010515  1
  Se  Se256  1  0.75971288  0.57896140  0.69277139  1
  Se  Se257  1  0.75467759  0.92439685  0.20123330  1
  Se  Se258  1  0.75038383  0.91917053  0.70449214  1
