# generated using pymatgen
data_In86Cu29Se144
_symmetry_space_group_name_H-M   'P 1'
_cell_length_a   17.58631885
_cell_length_b   17.58984784
_cell_length_c   23.44832522
_cell_angle_alpha   90.01948298
_cell_angle_beta   90.00796838
_cell_angle_gamma   90.00917638
_symmetry_Int_Tables_number   1
_chemical_formula_structural   In86Cu29Se144
_chemical_formula_sum   'In86 Cu29 Se144'
_cell_volume   7253.52011280
_cell_formula_units_Z   1
loop_
 _symmetry_equiv_pos_site_id
 _symmetry_equiv_pos_as_xyz
  1  'x, y, z'
loop_
 _atom_site_type_symbol
 _atom_site_label
 _atom_site_symmetry_multiplicity
 _atom_site_fract_x
 _atom_site_fract_y
 _atom_site_fract_z
 _atom_site_occupancy
  In  In0  1  0.00540154  0.17218806  0.11325760  1
  In  In1  1  -0.02244429  0.17403176  0.64428464  1
  In  In2  1  0.00538436  0.49916997  0.13670206  1
  In  In3  1  0.00363699  0.50573000  0.61835006  1
  In  In4  1  -0.00653740  0.82963180  0.12288177  1
  In  In5  1  0.00072276  0.83120674  0.62727834  1
  In  In6  1  0.32789507  0.18245671  0.11809362  1
  In  In7  1  0.32430661  0.17043720  0.63626877  1
  In  In8  1  0.33521930  0.49213894  0.12679931  1
  In  In9  1  0.31963786  0.51046588  0.63337713  1
  In  In10  1  0.31682206  0.83750327  0.12448730  1
  In  In11  1  0.32030184  0.84034703  0.63637437  1
  In  In12  1  0.67035226  0.14936632  0.12453454  1
  In  In13  1  0.69204944  0.16844947  0.63439763  1
  In  In14  1  0.66009942  0.51384584  0.12211938  1
  In  In15  1  0.67898276  0.48336362  0.62989353  1
  In  In16  1  0.68734568  0.83667006  0.12628298  1
  In  In17  1  0.67123430  0.82250060  0.62478134  1
  In  In18  1  0.15377945  0.00169210  0.37863048  1
  In  In19  1  0.16329138  -0.00170220  0.87353756  1
  In  In20  1  0.17670330  0.34297098  0.36966429  1
  In  In21  1  0.16053405  0.32439304  0.86700771  1
  In  In22  1  0.16266886  0.66210095  0.38189105  1
  In  In23  1  0.16306108  0.66872103  0.87053787  1
  In  In24  1  0.51046801  -0.01852578  0.36807071  1
  In  In25  1  0.50152099  0.00919299  0.87619099  1
  In  In26  1  0.49127153  0.34332690  0.37103638  1
  In  In27  1  0.50198151  0.33636689  0.87366326  1
  In  In28  1  0.48528487  0.67799151  0.36898403  1
  In  In29  1  0.47957263  0.67021750  0.88001808  1
  In  In30  1  0.83640269  0.00426658  0.38225526  1
  In  In31  1  0.83856976  -0.00928337  0.88078241  1
  In  In32  1  0.84674113  0.32192137  0.38180326  1
  In  In33  1  0.82095905  0.31968623  0.85209864  1
  In  In34  1  0.85109532  0.65600870  0.39239720  1
  In  In35  1  0.84995005  0.67286364  0.86828409  1
  In  In36  1  -0.01132604  0.16211814  0.37477807  1
  In  In37  1  -0.00417447  0.16848571  0.86971122  1
  In  In38  1  0.00826081  0.50189713  0.38121459  1
  In  In39  1  0.00133310  0.49633550  0.86359922  1
  In  In40  1  0.01014244  0.82303597  0.39228717  1
  In  In41  1  -0.00446247  0.83959705  0.87388278  1
  In  In42  1  0.32025892  0.17288518  0.37005822  1
  In  In43  1  0.32945026  0.16013221  0.87087571  1
  In  In44  1  0.32774839  0.49926608  0.37102656  1
  In  In45  1  0.33321975  0.50085909  0.87290266  1
  In  In46  1  0.33747251  0.81429204  0.37190037  1
  In  In47  1  0.31603400  0.82360684  0.87155048  1
  In  In48  1  0.68757598  0.16423080  0.37265320  1
  In  In49  1  0.66261824  0.17347925  0.87966232  1
  In  In50  1  0.67103126  0.50823006  0.37520956  1
  In  In51  1  0.66860018  0.48850739  0.87548152  1
  In  In52  1  0.67639188  0.84405246  0.36841724  1
  In  In53  1  0.69028896  0.84147029  0.87695793  1
  In  In54  1  0.16135654  -0.00225216  0.11127766  1
  In  In55  1  0.16598331  -0.00929051  0.63163708  1
  In  In56  1  0.16855549  0.33292085  0.12391379  1
  In  In57  1  0.15565832  0.34298156  0.63283294  1
  In  In58  1  0.15424427  0.67434706  0.13313610  1
  In  In59  1  0.15885717  0.67096857  0.62162409  1
  In  In60  1  0.50828012  0.00533663  0.12725850  1
  In  In61  1  0.49561702  -0.01096443  0.63140948  1
  In  In62  1  0.47858972  0.33178047  0.11877871  1
  In  In63  1  0.49931461  0.33549774  0.63454489  1
  In  In64  1  0.50052740  0.65272117  0.12114131  1
  In  In65  1  0.49148356  0.65490724  0.62703545  1
  In  In66  1  0.82195253  -0.00789005  0.10794740  1
  In  In67  1  0.84127617  0.00491853  0.62765178  1
  In  In68  1  0.85043081  0.33362039  0.12360921  1
  In  In69  1  0.83972331  0.33243803  0.62554411  1
  In  In70  1  0.83970880  0.68385308  0.13116993  1
  In  In71  1  0.86982213  0.69133013  0.59597548  1
  In  In72  1  -0.00592213  -0.00436052  0.24880640  1
  In  In73  1  0.15682818  0.16764056  0.50783273  1
  In  In74  1  0.66645275  0.00208550  0.75130116  1
  In  In75  1  0.66381923  0.33138970  0.24965427  1
  In  In76  1  0.50726806  0.49801579  0.49889498  1
  In  In77  1  0.16519821  0.49761965  -0.00771632  1
  In  In78  1  0.50277690  0.16537255  0.50291895  1
  In  In79  1  0.33572318  0.00238844  0.24398101  1
  In  In80  1  0.66891516  0.65519839  0.74726859  1
  In  In81  1  0.50323064  0.82990335  0.49545080  1
  In  In82  1  0.50341855  0.16537486  -0.00006656  1
  In  In83  1  0.50207653  0.82990089  0.00529424  1
  In  In84  1  0.83471151  0.50134959  -0.00172403  1
  In  In85  1  0.66646134  0.67006835  0.25197462  1
  Cu  Cu86  1  0.66735833  0.33349383  -0.00373046  1
  Cu  Cu87  1  0.32981875  -0.00393967  -0.00544350  1
  Cu  Cu88  1  0.83738683  0.15891914  0.24935111  1
  Cu  Cu89  1  0.17117329  0.49865530  0.74809080  1
  Cu  Cu90  1  0.00341044  0.00485311  -0.00796615  1
  Cu  Cu91  1  0.84128967  0.50435808  0.74113050  1
  Cu  Cu92  1  0.16347263  0.18011618  0.24190151  1
  Cu  Cu93  1  0.67800369  0.32411100  0.50335092  1
  Cu  Cu94  1  0.67607042  0.00450195  0.49996255  1
  Cu  Cu95  1  0.50090077  0.16503341  0.24436652  1
  Cu  Cu96  1  0.16483959  0.50811575  0.25403423  1
  Cu  Cu97  1  0.67618759  0.66362955  0.49900075  1
  Cu  Cu98  1  0.32896674  0.34450552  0.49917726  1
  Cu  Cu99  1  0.16946741  0.83065989  0.25586613  1
  Cu  Cu100  1  0.32307843  0.65992269  -0.00334220  1
  Cu  Cu101  1  0.32722429  -0.00608633  0.50745117  1
  Cu  Cu102  1  0.15744275  0.83043807  0.75117136  1
  Cu  Cu103  1  -0.00575333  0.67762632  0.00221417  1
  Cu  Cu104  1  -0.00282379  0.33021049  -0.00947019  1
  Cu  Cu105  1  0.84160344  0.49925662  0.25596756  1
  Cu  Cu106  1  0.32571658  0.67009185  0.50356027  1
  Cu  Cu107  1  0.48627168  0.49775223  0.24596364  1
  Cu  Cu108  1  0.16642182  0.15735687  0.75249761  1
  Cu  Cu109  1  0.00298843  0.33326800  0.50537878  1
  Cu  Cu110  1  0.49083685  0.83076116  0.75575015  1
  Cu  Cu111  1  0.66756291  0.66978452  0.00102446  1
  Cu  Cu112  1  0.49867597  0.17029119  0.75600536  1
  Cu  Cu113  1  0.49320151  0.50035496  0.75284678  1
  Cu  Cu114  1  -0.00160636  -0.00277936  0.50637669  1
  Se  Se115  1  0.08754983  0.08868727  0.04506188  1
  Se  Se116  1  0.07127829  0.08042441  0.57021939  1
  Se  Se117  1  0.06913344  0.41487755  0.05396259  1
  Se  Se118  1  0.09004704  0.41756178  0.55210987  1
  Se  Se119  1  0.08494296  0.75346652  0.05510203  1
  Se  Se120  1  0.08396941  0.75814793  0.55302885  1
  Se  Se121  1  0.40765647  0.07416494  0.05889190  1
  Se  Se122  1  0.40866498  0.07678609  0.56268098  1
  Se  Se123  1  0.41415286  0.42293012  0.04969163  1
  Se  Se124  1  0.41291636  0.41705445  0.56166660  1
  Se  Se125  1  0.40338519  0.74100929  0.05864039  1
  Se  Se126  1  0.41112736  0.74886870  0.56131744  1
  Se  Se127  1  0.75943149  0.09842027  0.04790654  1
  Se  Se128  1  0.75566577  0.08570480  0.55701250  1
  Se  Se129  1  0.74390796  0.41282004  0.06187303  1
  Se  Se130  1  0.75749363  0.41371336  0.55280200  1
  Se  Se131  1  0.75511033  0.74707503  0.05370920  1
  Se  Se132  1  0.75162519  0.75674161  0.54767642  1
  Se  Se133  1  0.23989581  0.25196072  0.04919714  1
  Se  Se134  1  0.25469116  0.25896761  0.55957278  1
  Se  Se135  1  0.24332281  0.58608375  0.06222899  1
  Se  Se136  1  0.24635633  0.58325636  0.55571172  1
  Se  Se137  1  0.24563774  0.91159943  0.04603597  1
  Se  Se138  1  0.24386368  0.91036954  0.55718764  1
  Se  Se139  1  0.59100811  0.25692266  0.06358543  1
  Se  Se140  1  0.59095765  0.25416257  0.56419077  1
  Se  Se141  1  0.58096200  0.58179513  0.04432576  1
  Se  Se142  1  0.59507342  0.58787002  0.56160160  1
  Se  Se143  1  0.59420715  0.92248597  0.05872686  1
  Se  Se144  1  0.59150566  0.92449879  0.55757958  1
  Se  Se145  1  0.91303267  0.24986977  0.04637224  1
  Se  Se146  1  0.92193624  0.24624206  0.55691223  1
  Se  Se147  1  0.92326320  0.58796020  0.06265703  1
  Se  Se148  1  0.91718046  0.57313147  0.54341022  1
  Se  Se149  1  0.92638052  0.92077207  0.05156134  1
  Se  Se150  1  0.91354688  0.91528171  0.55865210  1
  Se  Se151  1  0.07949003  0.25562354  0.43754537  1
  Se  Se152  1  0.08341050  0.24631693  0.94142211  1
  Se  Se153  1  0.07539219  0.59152611  0.45364964  1
  Se  Se154  1  0.06668124  0.59007850  0.94169078  1
  Se  Se155  1  0.08820137  0.92012693  0.45462000  1
  Se  Se156  1  0.08460217  0.91385086  0.94431996  1
  Se  Se157  1  0.40797254  0.25722318  0.44372787  1
  Se  Se158  1  0.41179111  0.25085271  0.94098174  1
  Se  Se159  1  0.41271229  0.59172069  0.44546377  1
  Se  Se160  1  0.41174415  0.57796503  0.94937613  1
  Se  Se161  1  0.40840926  0.92366982  0.44052136  1
  Se  Se162  1  0.41374331  0.91526446  0.93845843  1
  Se  Se163  1  0.75938124  0.24056172  0.44920391  1
  Se  Se164  1  0.75363273  0.25870580  0.94056856  1
  Se  Se165  1  0.75446484  0.57190841  0.45088597  1
  Se  Se166  1  0.74773834  0.59310248  0.93575928  1
  Se  Se167  1  0.75217249  0.91533022  0.44661184  1
  Se  Se168  1  0.75233252  0.92024380  0.95458807  1
  Se  Se169  1  0.25421843  0.08083228  0.44604908  1
  Se  Se170  1  0.24884198  0.08167825  0.94257683  1
  Se  Se171  1  0.24631130  0.42580208  0.44591960  1
  Se  Se172  1  0.25312448  0.40411297  0.93752830  1
  Se  Se173  1  0.24906328  0.75359302  0.44592776  1
  Se  Se174  1  0.24037136  0.74598644  0.94689539  1
  Se  Se175  1  0.58920696  0.07570747  0.43880889  1
  Se  Se176  1  0.59767184  0.07048484  0.94883731  1
  Se  Se177  1  0.59680749  0.40107702  0.44078155  1
  Se  Se178  1  0.58175095  0.41704433  0.94711426  1
  Se  Se179  1  0.59277484  0.73825782  0.43602886  1
  Se  Se180  1  0.59004091  0.74688529  0.93611484  1
  Se  Se181  1  0.91938212  0.08494407  0.45253219  1
  Se  Se182  1  0.91636449  0.08720506  0.94255032  1
  Se  Se183  1  0.92156255  0.41366536  0.44660794  1
  Se  Se184  1  0.91535744  0.41168515  0.93282980  1
  Se  Se185  1  0.91220190  0.75705176  0.45811296  1
  Se  Se186  1  0.91162244  0.75692961  0.94605854  1
  Se  Se187  1  0.25139480  0.25660572  0.29675546  1
  Se  Se188  1  0.25108741  0.24495193  0.80095901  1
  Se  Se189  1  0.24965247  0.59067569  0.30733775  1
  Se  Se190  1  0.24822999  0.58309209  0.80618893  1
  Se  Se191  1  0.24634993  0.91929902  0.31221715  1
  Se  Se192  1  0.24474702  0.91403742  0.80267188  1
  Se  Se193  1  0.57626076  0.24051351  0.31325980  1
  Se  Se194  1  0.58554175  0.25239886  0.80585683  1
  Se  Se195  1  0.56967640  0.57432172  0.30739740  1
  Se  Se196  1  0.57301323  0.58053939  0.81441222  1
  Se  Se197  1  0.58514767  0.90435442  0.29556886  1
  Se  Se198  1  0.57852726  0.90597190  0.81263622  1
  Se  Se199  1  0.91713800  0.24682190  0.30145787  1
  Se  Se200  1  0.93401837  0.26444153  0.79845893  1
  Se  Se201  1  0.92055608  0.58255054  0.31154036  1
  Se  Se202  1  0.92222206  0.58577489  0.79788472  1
  Se  Se203  1  0.92099459  0.90921031  0.32025742  1
  Se  Se204  1  0.91422581  0.92020800  0.80312568  1
  Se  Se205  1  0.08987162  0.09426588  0.30286602  1
  Se  Se206  1  0.07896205  0.07855019  0.80446366  1
  Se  Se207  1  0.08366308  0.41963370  0.30606491  1
  Se  Se208  1  0.08557523  0.41351164  0.79785240  1
  Se  Se209  1  0.08572843  0.75303257  0.31256993  1
  Se  Se210  1  0.07412234  0.74852256  0.80577402  1
  Se  Se211  1  0.42353385  0.08880922  0.31233194  1
  Se  Se212  1  0.41800798  0.07956173  0.80298837  1
  Se  Se213  1  0.40550284  0.41324348  0.29966040  1
  Se  Se214  1  0.41329446  0.41338868  0.80539908  1
  Se  Se215  1  0.42182952  0.75974414  0.29275275  1
  Se  Se216  1  0.40553701  0.74511954  0.80366907  1
  Se  Se217  1  0.75609078  0.07445146  0.30251609  1
  Se  Se218  1  0.75228288  0.08821436  0.81453093  1
  Se  Se219  1  0.75622454  0.41815646  0.31087433  1
  Se  Se220  1  0.75199035  0.42843713  0.79667979  1
  Se  Se221  1  0.76293228  0.74230399  0.31648622  1
  Se  Se222  1  0.75715862  0.75434960  0.80060774  1
  Se  Se223  1  0.23969334  0.08948093  0.18597101  1
  Se  Se224  1  0.25135159  0.07462021  0.69885746  1
  Se  Se225  1  0.24030686  0.42294811  0.19417392  1
  Se  Se226  1  0.25496369  0.40996211  0.69861142  1
  Se  Se227  1  0.24998646  0.75026502  0.19803814  1
  Se  Se228  1  0.24178581  0.74660475  0.69740212  1
  Se  Se229  1  0.58938538  0.07935174  0.20144601  1
  Se  Se230  1  0.57609557  0.09393184  0.68911682  1
  Se  Se231  1  0.57494227  0.42229781  0.18852262  1
  Se  Se232  1  0.58164131  0.42256939  0.69950435  1
  Se  Se233  1  0.58322010  0.75167852  0.18189403  1
  Se  Se234  1  0.57144914  0.75313932  0.69380173  1
  Se  Se235  1  0.91576837  0.08662421  0.18284537  1
  Se  Se236  1  0.90521496  0.08038103  0.70890775  1
  Se  Se237  1  0.91943334  0.41334296  0.20068121  1
  Se  Se238  1  0.92545056  0.41995018  0.68944499  1
  Se  Se239  1  0.92503588  0.75381168  0.20178503  1
  Se  Se240  1  0.91881952  0.74023613  0.69121659  1
  Se  Se241  1  0.07447385  0.25651075  0.18941581  1
  Se  Se242  1  0.08819144  0.24268906  0.69650171  1
  Se  Se243  1  0.07711126  0.59065114  0.20431752  1
  Se  Se244  1  0.08741515  0.58013684  0.69280063  1
  Se  Se245  1  0.09500287  0.91307945  0.19212227  1
  Se  Se246  1  0.07566991  0.91772851  0.70023794  1
  Se  Se247  1  0.41365536  0.24682425  0.19523623  1
  Se  Se248  1  0.41497792  0.25115011  0.69964205  1
  Se  Se249  1  0.41016982  0.58682047  0.19303245  1
  Se  Se250  1  0.41006466  0.58620822  0.70208710  1
  Se  Se251  1  0.42369593  0.90864813  0.18686814  1
  Se  Se252  1  0.41107683  0.91811501  0.70326749  1
  Se  Se253  1  0.75767952  0.24476615  0.19050322  1
  Se  Se254  1  0.75193346  0.26530061  0.70093734  1
  Se  Se255  1  0.75968242  0.57544001  0.19347562  1
  Se  Se256  1  0.76430895  0.58655338  0.67975578  1
  Se  Se257  1  0.76596053  0.91945820  0.19404711  1
  Se  Se258  1  0.75227741  0.90900009  0.69189207  1
