# generated using pymatgen
data_In86Cu29Se144
_symmetry_space_group_name_H-M   'P 1'
_cell_length_a   17.59980275
_cell_length_b   17.59631496
_cell_length_c   23.45749013
_cell_angle_alpha   90.01319388
_cell_angle_beta   90.03603225
_cell_angle_gamma   89.97621388
_symmetry_Int_Tables_number   1
_chemical_formula_structural   In86Cu29Se144
_chemical_formula_sum   'In86 Cu29 Se144'
_cell_volume   7264.58709525
_cell_formula_units_Z   1
loop_
 _symmetry_equiv_pos_site_id
 _symmetry_equiv_pos_as_xyz
  1  'x, y, z'
loop_
 _atom_site_type_symbol
 _atom_site_label
 _atom_site_symmetry_multiplicity
 _atom_site_fract_x
 _atom_site_fract_y
 _atom_site_fract_z
 _atom_site_occupancy
  In  In0  1  -0.00270682  0.17462902  0.12519818  1
  In  In1  1  0.00119556  0.15785020  0.62572212  1
  In  In2  1  -0.01081857  0.49170017  0.11251960  1
  In  In3  1  0.01029707  0.50814709  0.62506308  1
  In  In4  1  -0.00734995  0.83732625  0.11779358  1
  In  In5  1  -0.00963193  0.83353036  0.64129403  1
  In  In6  1  0.33394163  0.16762962  0.13805174  1
  In  In7  1  0.33675162  0.16867824  0.62131878  1
  In  In8  1  0.32755948  0.50019557  0.13824923  1
  In  In9  1  0.31737766  0.49404066  0.60929941  1
  In  In10  1  0.32644011  0.83272801  0.13753717  1
  In  In11  1  0.35135079  0.82693126  0.61839967  1
  In  In12  1  0.67725063  0.17151589  0.12204220  1
  In  In13  1  0.65862222  0.16642572  0.62519937  1
  In  In14  1  0.66941671  0.49146500  0.12535924  1
  In  In15  1  0.66749802  0.49864044  0.62257796  1
  In  In16  1  0.67148026  0.82580217  0.12034839  1
  In  In17  1  0.66122582  0.83632025  0.63818383  1
  In  In18  1  0.17846950  -0.00515771  0.38044289  1
  In  In19  1  0.16165432  -0.00755822  0.86151929  1
  In  In20  1  0.16696746  0.33154809  0.37751020  1
  In  In21  1  0.18074985  0.34067571  0.87468130  1
  In  In22  1  0.16808785  0.64915152  0.38163338  1
  In  In23  1  0.15303804  0.66634933  0.87485885  1
  In  In24  1  0.49434533  0.02213554  0.39630026  1
  In  In25  1  0.50020742  -0.00686042  0.86242830  1
  In  In26  1  0.49950125  0.33433375  0.37910061  1
  In  In27  1  0.49872488  0.33315752  0.86394611  1
  In  In28  1  0.48274157  0.67928953  0.39573390  1
  In  In29  1  0.51341994  0.65823131  0.87153445  1
  In  In30  1  0.82962783  0.00215383  0.37097873  1
  In  In31  1  0.84099696  0.00218297  0.87280348  1
  In  In32  1  0.84502981  0.34217811  0.36323084  1
  In  In33  1  0.82719853  0.34279356  0.88158414  1
  In  In34  1  0.82339305  0.66642924  0.37456500  1
  In  In35  1  0.82974042  0.66163215  0.87724530  1
  In  In36  1  -0.00653145  0.18709254  0.37550805  1
  In  In37  1  -0.00101620  0.15365815  0.87252583  1
  In  In38  1  0.01103751  0.49247342  0.38423484  1
  In  In39  1  -0.00153136  0.51024989  0.88466928  1
  In  In40  1  0.00028776  0.84515248  0.37377116  1
  In  In41  1  -0.04703219  0.80713477  0.82678593  1
  In  In42  1  0.33318616  0.16671128  0.37903322  1
  In  In43  1  0.33703734  0.16739026  0.86586284  1
  In  In44  1  0.33492176  0.49931357  0.37946992  1
  In  In45  1  0.33557686  0.49350223  0.87548738  1
  In  In46  1  0.34391314  0.84852083  0.36997005  1
  In  In47  1  0.32291256  0.83748333  0.86947955  1
  In  In48  1  0.65522680  0.16624561  0.37796823  1
  In  In49  1  0.67673605  0.17733590  0.86508840  1
  In  In50  1  0.67216524  0.49556625  0.38226365  1
  In  In51  1  0.67885079  0.51134112  0.86069691  1
  In  In52  1  0.66312340  0.82627165  0.37769553  1
  In  In53  1  0.71060578  0.85448986  0.83534973  1
  In  In54  1  0.16737769  0.00705802  0.12953661  1
  In  In55  1  0.15986348  0.01241294  0.62748318  1
  In  In56  1  0.15716011  0.33775231  0.13640746  1
  In  In57  1  0.18186060  0.34602011  0.61792964  1
  In  In58  1  0.17176473  0.66479728  0.12696644  1
  In  In59  1  0.16503442  0.63736972  0.63315798  1
  In  In60  1  0.49362511  -0.00825484  0.12858723  1
  In  In61  1  0.50348575  -0.00428616  0.62107371  1
  In  In62  1  0.50478450  0.33206827  0.14247914  1
  In  In63  1  0.49826517  0.33177793  0.62022393  1
  In  In64  1  0.49850527  0.65505884  0.13316113  1
  In  In65  1  0.50133304  0.67211528  0.61018489  1
  In  In66  1  0.83144928  0.00237793  0.11376179  1
  In  In67  1  0.82502400  -0.00638077  0.64112577  1
  In  In68  1  0.83029029  0.33366824  0.12528493  1
  In  In69  1  0.81694547  0.33386541  0.62793982  1
  In  In70  1  0.84066785  0.66839880  0.10922130  1
  In  In71  1  0.84482234  0.66029535  0.63949678  1
  In  In72  1  0.17297292  0.81650493  0.51408223  1
  In  In73  1  0.50552118  0.49771560  0.00182201  1
  In  In74  1  0.00504590  0.33590624  0.75751631  1
  In  In75  1  0.50556518  0.83035290  -0.00310804  1
  In  In76  1  0.83084565  0.16934878  0.50438861  1
  In  In77  1  0.66028676  0.00610766  0.25018754  1
  In  In78  1  0.15703299  0.83257369  -0.00492571  1
  In  In79  1  -0.00009122  0.00210093  0.24391902  1
  In  In80  1  -0.00097979  0.66253514  0.23992050  1
  In  In81  1  0.33879884  0.66730236  0.74344641  1
  In  In82  1  0.50513284  0.16833109  -0.00621409  1
  In  In83  1  0.66343380  0.66256691  0.25303220  1
  In  In84  1  0.82722771  0.83203195  0.50402775  1
  In  In85  1  0.16223757  0.16930852  0.00125467  1
  Cu  Cu86  1  0.33452597  0.33015765  0.49567528  1
  Cu  Cu87  1  -0.01040697  -0.00555672  -0.00833379  1
  Cu  Cu88  1  0.66660482  0.33389536  0.50079714  1
  Cu  Cu89  1  0.49613817  0.50275339  0.26073618  1
  Cu  Cu90  1  0.17594491  0.17673185  0.74662956  1
  Cu  Cu91  1  0.17350591  0.84075042  0.74405967  1
  Cu  Cu92  1  0.82865616  0.16488783  0.74752274  1
  Cu  Cu93  1  0.49559341  0.49110704  0.73983411  1
  Cu  Cu94  1  0.83954246  0.49847416  0.24740736  1
  Cu  Cu95  1  0.67030216  0.66189627  0.50296098  1
  Cu  Cu96  1  -0.00746239  0.66391685  0.50579481  1
  Cu  Cu97  1  0.67575466  -0.00108069  -0.01116415  1
  Cu  Cu98  1  0.33746100  0.00315588  0.50098960  1
  Cu  Cu99  1  0.67543622  0.67081935  -0.00884191  1
  Cu  Cu100  1  0.49585914  0.16856018  0.26153592  1
  Cu  Cu101  1  -0.00156696  0.33303745  0.00315821  1
  Cu  Cu102  1  0.17075154  0.82079156  0.25577004  1
  Cu  Cu103  1  0.49830098  0.16174472  0.74156089  1
  Cu  Cu104  1  0.00264012  0.00218365  0.50488240  1
  Cu  Cu105  1  0.32940446  0.34127976  0.00437916  1
  Cu  Cu106  1  0.83031117  0.49303950  0.75286476  1
  Cu  Cu107  1  0.00071751  0.34060443  0.49855376  1
  Cu  Cu108  1  0.32805860  0.00494761  -0.00011947  1
  Cu  Cu109  1  0.16791002  0.48966714  0.25786185  1
  Cu  Cu110  1  0.50347145  0.82895176  0.73986917  1
  Cu  Cu111  1  0.33265569  0.66337367  0.01046233  1
  Cu  Cu112  1  0.67256604  0.33968139  -0.00305660  1
  Cu  Cu113  1  0.49236920  0.83836030  0.25837338  1
  Cu  Cu114  1  0.16974734  0.15946303  0.25790941  1
  Se  Se115  1  0.07098429  0.07068380  0.05584133  1
  Se  Se116  1  0.08653135  0.09091446  0.55013876  1
  Se  Se117  1  0.08869451  0.41035877  0.05536911  1
  Se  Se118  1  0.08472327  0.42074531  0.55478214  1
  Se  Se119  1  0.07522403  0.73952095  0.05854223  1
  Se  Se120  1  0.06792788  0.74196711  0.57082412  1
  Se  Se121  1  0.41128476  0.08238373  0.05813053  1
  Se  Se122  1  0.42203835  0.08453955  0.55473493  1
  Se  Se123  1  0.41737524  0.41096023  0.06578911  1
  Se  Se124  1  0.41501651  0.41503804  0.55066814  1
  Se  Se125  1  0.41443506  0.74709124  0.06486578  1
  Se  Se126  1  0.40731801  0.74034097  0.54185816  1
  Se  Se127  1  0.74710902  0.08712414  0.04784879  1
  Se  Se128  1  0.74886907  0.07220110  0.56288136  1
  Se  Se129  1  0.75432183  0.42151852  0.05250728  1
  Se  Se130  1  0.75244566  0.41732209  0.55153066  1
  Se  Se131  1  0.75426956  0.75639518  0.04654423  1
  Se  Se132  1  0.74890884  0.73942070  0.56788448  1
  Se  Se133  1  0.25589424  0.25345971  0.06302616  1
  Se  Se134  1  0.25073222  0.24956401  0.55202474  1
  Se  Se135  1  0.25291874  0.57706533  0.06105363  1
  Se  Se136  1  0.25385696  0.60355987  0.55149396  1
  Se  Se137  1  0.25227245  0.92025952  0.05871855  1
  Se  Se138  1  0.25570297  0.92461012  0.56245735  1
  Se  Se139  1  0.58415131  0.26523958  0.05607582  1
  Se  Se140  1  0.58371715  0.24823748  0.55184355  1
  Se  Se141  1  0.59570621  0.59616139  0.05745441  1
  Se  Se142  1  0.58406512  0.57693655  0.55100501  1
  Se  Se143  1  0.59289328  0.92919953  0.05517221  1
  Se  Se144  1  0.58599291  0.90393500  0.55917581  1
  Se  Se145  1  0.91390124  0.25036255  0.05477315  1
  Se  Se146  1  0.92346366  0.26113616  0.56295623  1
  Se  Se147  1  0.92182570  0.58467323  0.04488290  1
  Se  Se148  1  0.91194814  0.58082012  0.56060565  1
  Se  Se149  1  0.90848257  0.91199699  0.04703814  1
  Se  Se150  1  0.92088967  0.92299660  0.56286944  1
  Se  Se151  1  0.08149061  0.25152554  0.44876599  1
  Se  Se152  1  0.07708271  0.25859598  0.93676957  1
  Se  Se153  1  0.08116801  0.58284076  0.45521870  1
  Se  Se154  1  0.09159548  0.58325393  0.95140074  1
  Se  Se155  1  0.08366774  0.91446659  0.45164749  1
  Se  Se156  1  0.07297374  0.91971319  0.93231243  1
  Se  Se157  1  0.42100934  0.24538197  0.44709541  1
  Se  Se158  1  0.40763026  0.26134976  0.94236208  1
  Se  Se159  1  0.42424534  0.56880116  0.45103765  1
  Se  Se160  1  0.41455777  0.59219468  0.94501100  1
  Se  Se161  1  0.41988922  0.91593253  0.45016113  1
  Se  Se162  1  0.40891977  0.92302188  0.94184030  1
  Se  Se163  1  0.75052036  0.25917363  0.43817034  1
  Se  Se164  1  0.74933060  0.24809402  0.94570071  1
  Se  Se165  1  0.75630323  0.58274250  0.44868915  1
  Se  Se166  1  0.74964799  0.57253012  0.94602303  1
  Se  Se167  1  0.74285956  0.92533336  0.44199934  1
  Se  Se168  1  0.75218432  0.91260756  0.93310317  1
  Se  Se169  1  0.24968861  0.08382554  0.44954240  1
  Se  Se170  1  0.24993297  0.08109684  0.93738234  1
  Se  Se171  1  0.24780190  0.41570305  0.44638481  1
  Se  Se172  1  0.24974873  0.42488876  0.95052100  1
  Se  Se173  1  0.25223099  0.75409942  0.43307178  1
  Se  Se174  1  0.26036476  0.74369855  0.94429282  1
  Se  Se175  1  0.59805378  0.08449773  0.45686904  1
  Se  Se176  1  0.58932349  0.07540158  0.93252094  1
  Se  Se177  1  0.58260960  0.41751813  0.44826656  1
  Se  Se178  1  0.58977375  0.41368961  0.93418784  1
  Se  Se179  1  0.58842582  0.75080845  0.45301200  1
  Se  Se180  1  0.59591799  0.75150015  0.93285951  1
  Se  Se181  1  0.92217248  0.07760623  0.44161029  1
  Se  Se182  1  0.91157660  0.09051812  0.94764508  1
  Se  Se183  1  0.91175431  0.41739646  0.44497609  1
  Se  Se184  1  0.91815140  0.41728952  0.94763244  1
  Se  Se185  1  0.92391670  0.74733286  0.44126748  1
  Se  Se186  1  0.92429387  0.75475513  0.92637079  1
  Se  Se187  1  0.25000344  0.24725332  0.30912167  1
  Se  Se188  1  0.25657474  0.25850787  0.80259888  1
  Se  Se189  1  0.24904635  0.57816680  0.30705776  1
  Se  Se190  1  0.25095845  0.58575314  0.81032955  1
  Se  Se191  1  0.24716041  0.91645335  0.30242634  1
  Se  Se192  1  0.25926690  0.92425253  0.79474193  1
  Se  Se193  1  0.58341150  0.25361313  0.30717195  1
  Se  Se194  1  0.57877446  0.24501460  0.79929205  1
  Se  Se195  1  0.57554201  0.58460755  0.32034808  1
  Se  Se196  1  0.57661664  0.57444736  0.79502206  1
  Se  Se197  1  0.57573811  0.91762201  0.31522282  1
  Se  Se198  1  0.58486983  0.91338125  0.79488110  1
  Se  Se199  1  0.91337115  0.24625098  0.29707609  1
  Se  Se200  1  0.90783172  0.24439911  0.81010587  1
  Se  Se201  1  0.91527124  0.57957485  0.31055231  1
  Se  Se202  1  0.91253267  0.57506709  0.80828492  1
  Se  Se203  1  0.90568798  0.90904276  0.30136792  1
  Se  Se204  1  0.94430490  0.94923092  0.80401577  1
  Se  Se205  1  0.08414364  0.08199380  0.31600962  1
  Se  Se206  1  0.09157175  0.09355389  0.79939951  1
  Se  Se207  1  0.07818324  0.41013303  0.30749598  1
  Se  Se208  1  0.09230170  0.43042085  0.81258722  1
  Se  Se209  1  0.08302132  0.74781651  0.31288545  1
  Se  Se210  1  0.09411667  0.76272103  0.80441316  1
  Se  Se211  1  0.41766237  0.07888282  0.31196131  1
  Se  Se212  1  0.41581152  0.08064584  0.79931302  1
  Se  Se213  1  0.41418644  0.41371880  0.30898929  1
  Se  Se214  1  0.41211119  0.41738993  0.80015192  1
  Se  Se215  1  0.41692381  0.74621253  0.30942646  1
  Se  Se216  1  0.42636578  0.75671813  0.81006894  1
  Se  Se217  1  0.75424947  0.09714059  0.30586014  1
  Se  Se218  1  0.74964016  0.07917513  0.80321102  1
  Se  Se219  1  0.75012386  0.42506424  0.30342854  1
  Se  Se220  1  0.74623560  0.40521162  0.80112688  1
  Se  Se221  1  0.75695248  0.76174173  0.30263000  1
  Se  Se222  1  0.72440333  0.71447422  0.80867071  1
  Se  Se223  1  0.25209478  0.07772824  0.20175475  1
  Se  Se224  1  0.25280574  0.08816399  0.69248906  1
  Se  Se225  1  0.25276201  0.40681745  0.20359793  1
  Se  Se226  1  0.24377828  0.43362192  0.69275461  1
  Se  Se227  1  0.25306314  0.73804094  0.20195897  1
  Se  Se228  1  0.24508871  0.75555940  0.68311861  1
  Se  Se229  1  0.56910542  0.09619201  0.18859002  1
  Se  Se230  1  0.58498623  0.07625385  0.69413830  1
  Se  Se231  1  0.58318157  0.42895121  0.20195477  1
  Se  Se232  1  0.58520930  0.41129227  0.68955539  1
  Se  Se233  1  0.57347950  0.76166858  0.19457580  1
  Se  Se234  1  0.57951480  0.73509510  0.69221340  1
  Se  Se235  1  0.90367983  0.09012394  0.18991542  1
  Se  Se236  1  0.91622573  0.08422584  0.69677022  1
  Se  Se237  1  0.92026329  0.41564110  0.19190161  1
  Se  Se238  1  0.91358242  0.41703123  0.69142989  1
  Se  Se239  1  0.90521018  0.75761591  0.18917005  1
  Se  Se240  1  0.91019993  0.75254979  0.71119643  1
  Se  Se241  1  0.08699231  0.23734146  0.19892829  1
  Se  Se242  1  0.08911244  0.25225261  0.68785624  1
  Se  Se243  1  0.09060339  0.56564247  0.19013998  1
  Se  Se244  1  0.06582267  0.59312729  0.70530944  1
  Se  Se245  1  0.09233263  0.90107901  0.19181340  1
  Se  Se246  1  0.08414266  0.92211877  0.69512529  1
  Se  Se247  1  0.41387430  0.25240317  0.20549661  1
  Se  Se248  1  0.41668673  0.25140083  0.69258441  1
  Se  Se249  1  0.41393339  0.58412385  0.20437220  1
  Se  Se250  1  0.42028787  0.57593374  0.67991094  1
  Se  Se251  1  0.41062562  0.92031800  0.20134969  1
  Se  Se252  1  0.41786818  0.91432174  0.69190248  1
  Se  Se253  1  0.73277721  0.26648155  0.19233277  1
  Se  Se254  1  0.74280581  0.24664815  0.69623323  1
  Se  Se255  1  0.76090081  0.58351991  0.18879197  1
  Se  Se256  1  0.74965628  0.57592581  0.69649018  1
  Se  Se257  1  0.75015518  0.91696287  0.18801724  1
  Se  Se258  1  0.75883942  0.89769687  0.70836587  1
