# generated using pymatgen
data_In86Cu29Se144
_symmetry_space_group_name_H-M   'P 1'
_cell_length_a   17.58859251
_cell_length_b   17.58525490
_cell_length_c   23.45290311
_cell_angle_alpha   90.00649077
_cell_angle_beta   89.99589852
_cell_angle_gamma   89.99583142
_symmetry_Int_Tables_number   1
_chemical_formula_structural   In86Cu29Se144
_chemical_formula_sum   'In86 Cu29 Se144'
_cell_volume   7253.98009187
_cell_formula_units_Z   1
loop_
 _symmetry_equiv_pos_site_id
 _symmetry_equiv_pos_as_xyz
  1  'x, y, z'
loop_
 _atom_site_type_symbol
 _atom_site_label
 _atom_site_symmetry_multiplicity
 _atom_site_fract_x
 _atom_site_fract_y
 _atom_site_fract_z
 _atom_site_occupancy
  In  In0  1  -0.00806088  0.17828597  0.11866740  1
  In  In1  1  0.00063714  0.16450748  0.63243919  1
  In  In2  1  0.00470092  0.49649226  0.11968770  1
  In  In3  1  -0.01186037  0.47917082  0.62321657  1
  In  In4  1  0.01896027  0.82780026  0.11853044  1
  In  In5  1  0.01189295  0.84345402  0.62028246  1
  In  In6  1  0.35337121  0.17146740  0.11724481  1
  In  In7  1  0.33207039  0.17123055  0.62532176  1
  In  In8  1  0.33262613  0.50025979  0.13048316  1
  In  In9  1  0.33516124  0.50073307  0.62350533  1
  In  In10  1  0.33125460  0.83161307  0.11746920  1
  In  In11  1  0.32059131  0.84377956  0.63465043  1
  In  In12  1  0.66863090  0.16867650  0.12196855  1
  In  In13  1  0.67363950  0.17238924  0.61485238  1
  In  In14  1  0.65899558  0.50266602  0.13934792  1
  In  In15  1  0.66856749  0.50039206  0.61609794  1
  In  In16  1  0.65340866  0.83527559  0.12938334  1
  In  In17  1  0.66787004  0.82143358  0.61832830  1
  In  In18  1  0.16831930  0.00228592  0.38502758  1
  In  In19  1  0.15829000  -0.00500016  0.86774813  1
  In  In20  1  0.17319602  0.33030219  0.38384737  1
  In  In21  1  0.17850828  0.34168157  0.86764104  1
  In  In22  1  0.17429539  0.65810082  0.38342009  1
  In  In23  1  0.17594804  0.64766313  0.88534866  1
  In  In24  1  0.50694372  0.00375908  0.37478633  1
  In  In25  1  0.48147525  0.01265960  0.89047035  1
  In  In26  1  0.50202390  0.32984506  0.37460949  1
  In  In27  1  0.47887558  0.32647006  0.87628135  1
  In  In28  1  0.48369187  0.65860836  0.36294211  1
  In  In29  1  0.49062259  0.68679499  0.88574785  1
  In  In30  1  0.83174694  0.00006180  0.38562805  1
  In  In31  1  0.84924743  0.00655757  0.86455703  1
  In  In32  1  0.82358025  0.33996557  0.38489904  1
  In  In33  1  0.82788272  0.32365333  0.86562241  1
  In  In34  1  0.82969097  0.66792621  0.38224399  1
  In  In35  1  0.83873237  0.67168591  0.87011967  1
  In  In36  1  -0.00167348  0.16989164  0.38675503  1
  In  In37  1  -0.00905926  0.16660021  0.85981951  1
  In  In38  1  0.00294004  0.49577071  0.38790229  1
  In  In39  1  0.01725015  0.50377503  0.86728914  1
  In  In40  1  0.00617233  0.82844896  0.38708255  1
  In  In41  1  0.00064566  0.84252916  0.87216955  1
  In  In42  1  0.33138835  0.17256693  0.37996347  1
  In  In43  1  0.33615372  0.17253515  0.87016291  1
  In  In44  1  0.33545058  0.50074046  0.37825193  1
  In  In45  1  0.31635056  0.48541726  0.86632854  1
  In  In46  1  0.33553877  0.81898804  0.37301806  1
  In  In47  1  0.33037347  0.83411322  0.87508678  1
  In  In48  1  0.65229461  0.18091166  0.38912417  1
  In  In49  1  0.66397533  0.16473889  0.88163825  1
  In  In50  1  0.66351346  0.49568624  0.37557033  1
  In  In51  1  0.66113169  0.49688265  0.87573684  1
  In  In52  1  0.67044531  0.83558019  0.37231141  1
  In  In53  1  0.65913600  0.82733847  0.87671799  1
  In  In54  1  0.18803114  -0.00674086  0.11543262  1
  In  In55  1  0.16661001  0.00247567  0.62960404  1
  In  In56  1  0.16916698  0.34773818  0.12185001  1
  In  In57  1  0.17046013  0.33367435  0.62434641  1
  In  In58  1  0.18155692  0.68041441  0.11155051  1
  In  In59  1  0.17429406  0.67383259  0.61984592  1
  In  In60  1  0.49508074  0.00260967  0.11437049  1
  In  In61  1  0.48280577  0.00530989  0.62871705  1
  In  In62  1  0.49961743  0.32618011  0.13434508  1
  In  In63  1  0.49231098  0.32673085  0.61823538  1
  In  In64  1  0.48530573  0.67969637  0.14538249  1
  In  In65  1  0.49699167  0.65509574  0.62063338  1
  In  In66  1  0.82230653  0.00634416  0.12135399  1
  In  In67  1  0.85313039  0.01381535  0.61800139  1
  In  In68  1  0.82861920  0.32339903  0.12180840  1
  In  In69  1  0.84289375  0.33611828  0.62628510  1
  In  In70  1  0.82896397  0.65715487  0.13062080  1
  In  In71  1  0.82891500  0.66042368  0.61524537  1
  In  In72  1  0.33800310  0.00152182  0.24448396  1
  In  In73  1  0.00486995  0.66452972  0.74720826  1
  In  In74  1  0.83612202  0.84400751  -0.00929130  1
  In  In75  1  0.65911979  0.00421265  0.25352866  1
  In  In76  1  0.00377782  0.66401862  0.24783857  1
  In  In77  1  0.49712590  0.50253765  0.01233433  1
  In  In78  1  0.49732339  0.83638235  0.49357417  1
  In  In79  1  0.66696142  0.33573473  0.74027283  1
  In  In80  1  -0.00010169  0.00102013  0.25702017  1
  In  In81  1  0.66712237  -0.00152166  0.75039021  1
  In  In82  1  0.65918136  0.66197934  0.74135571  1
  In  In83  1  0.83946705  0.50092215  0.00122290  1
  In  In84  1  -0.00126313  0.33827438  0.25194547  1
  In  In85  1  0.16561610  0.16515936  -0.00670447  1
  Cu  Cu86  1  0.48685328  0.83660924  0.75548748  1
  Cu  Cu87  1  0.66640990  0.00991224  -0.00064462  1
  Cu  Cu88  1  0.66824121  -0.00274939  0.49870024  1
  Cu  Cu89  1  0.48985415  0.50534293  0.75076388  1
  Cu  Cu90  1  0.00088731  0.66233256  0.50663331  1
  Cu  Cu91  1  0.33830443  0.66061838  0.00343643  1
  Cu  Cu92  1  0.17062189  0.49840910  0.74364139  1
  Cu  Cu93  1  0.66267007  0.32946851  0.00212245  1
  Cu  Cu94  1  0.50049258  0.49046262  0.25518453  1
  Cu  Cu95  1  0.66722079  0.33275197  0.49972656  1
  Cu  Cu96  1  0.17377443  0.17565802  0.25364873  1
  Cu  Cu97  1  0.32763496  0.00807928  0.50689128  1
  Cu  Cu98  1  -0.00136047  0.33311954  -0.00567981  1
  Cu  Cu99  1  0.33602713  0.33893603  0.50023145  1
  Cu  Cu100  1  0.17763782  0.50634929  0.25127726  1
  Cu  Cu101  1  0.16923806  0.16599483  0.74764091  1
  Cu  Cu102  1  0.00204541  -0.00040439  0.50632363  1
  Cu  Cu103  1  0.82515539  0.17082125  0.25107290  1
  Cu  Cu104  1  0.17410708  0.82879480  0.24586579  1
  Cu  Cu105  1  0.49693630  0.16814948  0.75020518  1
  Cu  Cu106  1  0.82713020  0.49751214  0.25802090  1
  Cu  Cu107  1  0.66676855  0.66034276  0.49466404  1
  Cu  Cu108  1  0.83536642  0.83663593  0.74146640  1
  Cu  Cu109  1  0.16998680  0.82915272  0.74955570  1
  Cu  Cu110  1  0.00483828  0.32771260  0.50712850  1
  Cu  Cu111  1  -0.00021851  0.00644562  -0.00837556  1
  Cu  Cu112  1  0.33409292  0.66798873  0.49959163  1
  Cu  Cu113  1  0.67075706  0.67122531  0.00544524  1
  Cu  Cu114  1  0.83100478  0.82568279  0.25532062  1
  Se  Se115  1  0.07725590  0.07734164  0.06165156  1
  Se  Se116  1  0.08363250  0.08410281  0.56007664  1
  Se  Se117  1  0.08143864  0.41537503  0.04795871  1
  Se  Se118  1  0.08714475  0.41727307  0.55487380  1
  Se  Se119  1  0.08630548  0.74730446  0.04449715  1
  Se  Se120  1  0.08539225  0.75149103  0.55281539  1
  Se  Se121  1  0.38668662  0.05822701  0.05319887  1
  Se  Se122  1  0.41739348  0.08984107  0.55379547  1
  Se  Se123  1  0.40893228  0.40455765  0.06204266  1
  Se  Se124  1  0.42090151  0.42240646  0.55256182  1
  Se  Se125  1  0.42258423  0.74264670  0.05737469  1
  Se  Se126  1  0.41019830  0.75306306  0.56081731  1
  Se  Se127  1  0.75417312  0.09227424  0.04906444  1
  Se  Se128  1  0.75268327  0.07957116  0.55235017  1
  Se  Se129  1  0.73878437  0.41823839  0.05952455  1
  Se  Se130  1  0.75297590  0.41044061  0.55601255  1
  Se  Se131  1  0.75466200  0.75412471  0.06016659  1
  Se  Se132  1  0.74946435  0.74624276  0.54642787  1
  Se  Se133  1  0.25021695  0.25283769  0.05788573  1
  Se  Se134  1  0.25316876  0.25303020  0.55320102  1
  Se  Se135  1  0.25406357  0.57562336  0.05482813  1
  Se  Se136  1  0.25217968  0.58363110  0.55345535  1
  Se  Se137  1  0.24824009  0.90370281  0.04357966  1
  Se  Se138  1  0.24760486  0.91901486  0.55705207  1
  Se  Se139  1  0.57893885  0.25049786  0.05794445  1
  Se  Se140  1  0.58136487  0.24880809  0.55088160  1
  Se  Se141  1  0.58991086  0.59494125  0.06617509  1
  Se  Se142  1  0.58165912  0.58110773  0.54962207  1
  Se  Se143  1  0.59039788  0.92196716  0.05393256  1
  Se  Se144  1  0.58335090  0.92345141  0.56133575  1
  Se  Se145  1  0.91106603  0.25291506  0.04586974  1
  Se  Se146  1  0.91904862  0.24537176  0.55921918  1
  Se  Se147  1  0.92663019  0.59772396  0.05769534  1
  Se  Se148  1  0.91708178  0.57448845  0.55466017  1
  Se  Se149  1  0.92543969  0.92683970  0.06011178  1
  Se  Se150  1  0.91507656  0.91098931  0.55271577  1
  Se  Se151  1  0.08874155  0.24752603  0.45102807  1
  Se  Se152  1  0.07735802  0.25457572  0.93180269  1
  Se  Se153  1  0.08637950  0.58202722  0.45175130  1
  Se  Se154  1  0.07630720  0.57988516  0.94838313  1
  Se  Se155  1  0.08619787  0.91747616  0.45123476  1
  Se  Se156  1  0.08256617  0.91773548  0.94520248  1
  Se  Se157  1  0.41804862  0.25185751  0.44782614  1
  Se  Se158  1  0.41670447  0.23863327  0.94890424  1
  Se  Se159  1  0.41952885  0.58657778  0.44645591  1
  Se  Se160  1  0.41236665  0.57873318  0.93889236  1
  Se  Se161  1  0.40232876  0.92932714  0.43895641  1
  Se  Se162  1  0.43562302  0.89198270  0.94050073  1
  Se  Se163  1  0.75498301  0.24455268  0.45270525  1
  Se  Se164  1  0.74823304  0.25505961  0.94386661  1
  Se  Se165  1  0.75212571  0.57412849  0.44525033  1
  Se  Se166  1  0.74434304  0.59321570  0.94092987  1
  Se  Se167  1  0.74893395  0.90958559  0.44801365  1
  Se  Se168  1  0.74249332  0.93352392  0.93217460  1
  Se  Se169  1  0.24746941  0.09129668  0.44955372  1
  Se  Se170  1  0.25272365  0.07496848  0.93409271  1
  Se  Se171  1  0.24976493  0.42250701  0.44886548  1
  Se  Se172  1  0.24880544  0.41484481  0.94697633  1
  Se  Se173  1  0.25021636  0.75339763  0.44822138  1
  Se  Se174  1  0.25679976  0.74171191  0.94527332  1
  Se  Se175  1  0.57986867  0.08058725  0.45096074  1
  Se  Se176  1  0.57620257  0.09207241  0.95174061  1
  Se  Se177  1  0.58240514  0.41407125  0.44595896  1
  Se  Se178  1  0.58093364  0.41033544  0.94415875  1
  Se  Se179  1  0.58436224  0.74155175  0.43647682  1
  Se  Se180  1  0.58516101  0.75435064  0.95472962  1
  Se  Se181  1  0.91764133  0.08171712  0.45131088  1
  Se  Se182  1  0.91774172  0.09006049  0.93982773  1
  Se  Se183  1  0.91980793  0.40945344  0.45151745  1
  Se  Se184  1  0.91861575  0.41343281  0.93309118  1
  Se  Se185  1  0.91865125  0.74491662  0.44977528  1
  Se  Se186  1  0.92645662  0.74387468  0.94175402  1
  Se  Se187  1  0.25381643  0.25724372  0.30820677  1
  Se  Se188  1  0.25309883  0.25070628  0.79974970  1
  Se  Se189  1  0.25659886  0.58941395  0.30752761  1
  Se  Se190  1  0.24797266  0.58438685  0.80097628  1
  Se  Se191  1  0.24419770  0.91613277  0.30847878  1
  Se  Se192  1  0.25014415  0.91546690  0.80344778  1
  Se  Se193  1  0.58553649  0.24543802  0.30658094  1
  Se  Se194  1  0.58003287  0.24881917  0.80797306  1
  Se  Se195  1  0.58223639  0.57864607  0.30547699  1
  Se  Se196  1  0.57065291  0.58322414  0.81250647  1
  Se  Se197  1  0.56937628  0.90414334  0.30423863  1
  Se  Se198  1  0.57370570  0.91457175  0.81137552  1
  Se  Se199  1  0.91073415  0.24567182  0.31139862  1
  Se  Se200  1  0.92435908  0.26697558  0.79527252  1
  Se  Se201  1  0.91717735  0.57438759  0.31141058  1
  Se  Se202  1  0.90951441  0.57505001  0.80445394  1
  Se  Se203  1  0.91143296  0.90559032  0.31360638  1
  Se  Se204  1  0.92047527  0.91485175  0.79639579  1
  Se  Se205  1  0.09175046  0.09577336  0.31093739  1
  Se  Se206  1  0.08252995  0.08300225  0.79918133  1
  Se  Se207  1  0.09208422  0.42715209  0.30939806  1
  Se  Se208  1  0.08832603  0.41511437  0.79748166  1
  Se  Se209  1  0.09133290  0.75511296  0.30899753  1
  Se  Se210  1  0.09157006  0.74960509  0.81231180  1
  Se  Se211  1  0.42223978  0.09087600  0.30855257  1
  Se  Se212  1  0.41845815  0.08180888  0.80477051  1
  Se  Se213  1  0.41341388  0.41327306  0.30967305  1
  Se  Se214  1  0.41389073  0.41360662  0.80163554  1
  Se  Se215  1  0.41753446  0.75619655  0.29698742  1
  Se  Se216  1  0.41010211  0.74485406  0.80482280  1
  Se  Se217  1  0.75348864  0.08801001  0.31406774  1
  Se  Se218  1  0.75428097  0.09550402  0.80548266  1
  Se  Se219  1  0.74626721  0.40913516  0.30661938  1
  Se  Se220  1  0.75146616  0.42870773  0.80421102  1
  Se  Se221  1  0.74899215  0.74309237  0.30772403  1
  Se  Se222  1  0.75286549  0.75837145  0.80053963  1
  Se  Se223  1  0.24357487  0.09278832  0.18850299  1
  Se  Se224  1  0.25520537  0.08380870  0.69539845  1
  Se  Se225  1  0.25114507  0.41314671  0.19907772  1
  Se  Se226  1  0.25675793  0.41486666  0.69318438  1
  Se  Se227  1  0.25639401  0.74756986  0.19220167  1
  Se  Se228  1  0.25254619  0.74322565  0.69869261  1
  Se  Se229  1  0.57250572  0.08911270  0.18878376  1
  Se  Se230  1  0.58077426  0.09289962  0.68927988  1
  Se  Se231  1  0.58494051  0.40815382  0.20213195  1
  Se  Se232  1  0.57202766  0.42942020  0.68834728  1
  Se  Se233  1  0.60044127  0.73632421  0.19841755  1
  Se  Se234  1  0.56710484  0.76138122  0.69102347  1
  Se  Se235  1  0.90987238  0.09136546  0.19365858  1
  Se  Se236  1  0.92078250  0.07757307  0.70084773  1
  Se  Se237  1  0.90559390  0.42541722  0.18984879  1
  Se  Se238  1  0.92177028  0.40550850  0.70460016  1
  Se  Se239  1  0.91529129  0.76034699  0.18911683  1
  Se  Se240  1  0.91289482  0.75081779  0.68425755  1
  Se  Se241  1  0.08767679  0.24634194  0.19095138  1
  Se  Se242  1  0.08843631  0.25173184  0.69455322  1
  Se  Se243  1  0.09555169  0.57863037  0.18679954  1
  Se  Se244  1  0.08774259  0.57491108  0.68270569  1
  Se  Se245  1  0.09357047  0.91662379  0.19255637  1
  Se  Se246  1  0.08558604  0.91497770  0.69897068  1
  Se  Se247  1  0.40745187  0.24923424  0.19941453  1
  Se  Se248  1  0.41670293  0.25342353  0.69584513  1
  Se  Se249  1  0.41643090  0.57519255  0.20267496  1
  Se  Se250  1  0.41118445  0.58997778  0.69538030  1
  Se  Se251  1  0.42586598  0.90798625  0.18768198  1
  Se  Se252  1  0.40908924  0.92363874  0.70141044  1
  Se  Se253  1  0.74509019  0.25241170  0.19530663  1
  Se  Se254  1  0.75926347  0.23857896  0.69219873  1
  Se  Se255  1  0.74846120  0.58460413  0.20404668  1
  Se  Se256  1  0.75801305  0.57248071  0.69212935  1
  Se  Se257  1  0.75729567  0.91345195  0.19580884  1
  Se  Se258  1  0.75195102  0.91290671  0.68268401  1
