# generated using pymatgen
data_In86Cu29Se144
_symmetry_space_group_name_H-M   'P 1'
_cell_length_a   17.58433679
_cell_length_b   17.58908664
_cell_length_c   23.45129654
_cell_angle_alpha   89.98074574
_cell_angle_beta   89.97586026
_cell_angle_gamma   90.01339323
_symmetry_Int_Tables_number   1
_chemical_formula_structural   In86Cu29Se144
_chemical_formula_sum   'In86 Cu29 Se144'
_cell_volume   7253.30708359
_cell_formula_units_Z   1
loop_
 _symmetry_equiv_pos_site_id
 _symmetry_equiv_pos_as_xyz
  1  'x, y, z'
loop_
 _atom_site_type_symbol
 _atom_site_label
 _atom_site_symmetry_multiplicity
 _atom_site_fract_x
 _atom_site_fract_y
 _atom_site_fract_z
 _atom_site_occupancy
  In  In0  1  -0.00335095  0.16600421  0.13410587  1
  In  In1  1  -0.00849543  0.16168747  0.61643309  1
  In  In2  1  -0.00570803  0.49845950  0.12836799  1
  In  In3  1  -0.00557804  0.49261015  0.61316827  1
  In  In4  1  -0.01198181  0.84000670  0.13507908  1
  In  In5  1  0.00618594  0.84545170  0.62230248  1
  In  In6  1  0.34065813  0.16721803  0.12698622  1
  In  In7  1  0.32615897  0.15978539  0.61873532  1
  In  In8  1  0.34412055  0.52205770  0.10976012  1
  In  In9  1  0.33807808  0.51062698  0.60818113  1
  In  In10  1  0.35541311  0.82430001  0.12274698  1
  In  In11  1  0.35283857  0.83398138  0.61909291  1
  In  In12  1  0.66967219  0.16536494  0.13076977  1
  In  In13  1  0.66656576  0.17220664  0.62365350  1
  In  In14  1  0.67497363  0.49600290  0.12734923  1
  In  In15  1  0.66790663  0.49973129  0.62683121  1
  In  In16  1  0.65030282  0.83966111  0.13463013  1
  In  In17  1  0.66193755  0.84473755  0.62824245  1
  In  In18  1  0.16137612  0.00877679  0.37909559  1
  In  In19  1  0.16858125  -0.00406363  0.87004993  1
  In  In20  1  0.15814566  0.34128278  0.37935459  1
  In  In21  1  0.17028842  0.33845911  0.87625899  1
  In  In22  1  0.15555015  0.66742369  0.36998602  1
  In  In23  1  0.15870327  0.65886126  0.87921278  1
  In  In24  1  0.51233103  -0.00764289  0.38561356  1
  In  In25  1  0.50257373  -0.00355220  0.86710010  1
  In  In26  1  0.50796416  0.32780659  0.38331457  1
  In  In27  1  0.51041982  0.33912997  0.87413718  1
  In  In28  1  0.50902036  0.65927056  0.38177380  1
  In  In29  1  0.51376984  0.65118913  0.88746365  1
  In  In30  1  0.83834104  0.00609387  0.37287978  1
  In  In31  1  0.83185801  0.00352135  0.86456832  1
  In  In32  1  0.83227958  0.33187590  0.37606963  1
  In  In33  1  0.83139133  0.33814454  0.87715192  1
  In  In34  1  0.81978205  0.65870964  0.36758368  1
  In  In35  1  0.82055654  0.66827430  0.87657324  1
  In  In36  1  -0.00539489  0.16699948  0.37720165  1
  In  In37  1  -0.00230767  0.16220822  0.87103354  1
  In  In38  1  -0.00344788  0.49620566  0.37123130  1
  In  In39  1  -0.00379347  0.49509619  0.88576061  1
  In  In40  1  -0.00187080  0.83128587  0.36292631  1
  In  In41  1  -0.00485945  0.83970549  0.87760810  1
  In  In42  1  0.33331524  0.16626221  0.38642801  1
  In  In43  1  0.34648122  0.15804548  0.86901618  1
  In  In44  1  0.34193943  0.50302426  0.38691581  1
  In  In45  1  0.33455552  0.50307759  0.88521243  1
  In  In46  1  0.34167448  0.83421139  0.37972174  1
  In  In47  1  0.34082292  0.83977886  0.87087502  1
  In  In48  1  0.66975100  0.16726112  0.37912769  1
  In  In49  1  0.66842012  0.16664090  0.86166126  1
  In  In50  1  0.67099512  0.49736208  0.37692166  1
  In  In51  1  0.66500627  0.49844804  0.87838264  1
  In  In52  1  0.65337882  0.83113679  0.36474075  1
  In  In53  1  0.66342397  0.82652616  0.86904564  1
  In  In54  1  0.15843247  -0.00764728  0.12383273  1
  In  In55  1  0.15482821  0.01117729  0.63059428  1
  In  In56  1  0.14969622  0.34095247  0.13372314  1
  In  In57  1  0.16980443  0.33621144  0.61450882  1
  In  In58  1  0.16869032  0.65244755  0.12866061  1
  In  In59  1  0.17571617  0.65785488  0.61902650  1
  In  In60  1  0.51824335  -0.01044278  0.12797853  1
  In  In61  1  0.50238118  -0.00065802  0.62304494  1
  In  In62  1  0.50461035  0.34926486  0.12486496  1
  In  In63  1  0.51345541  0.34589734  0.61974590  1
  In  In64  1  0.51874368  0.67951705  0.11304993  1
  In  In65  1  0.50912329  0.67731873  0.61316696  1
  In  In66  1  0.82778879  0.00250777  0.12787439  1
  In  In67  1  0.81284270  0.02972807  0.64547903  1
  In  In68  1  0.81998701  0.34341649  0.13708268  1
  In  In69  1  0.81771101  0.32018353  0.61731093  1
  In  In70  1  0.83914097  0.65912719  0.13325861  1
  In  In71  1  0.83078507  0.65205662  0.62232944  1
  In  In72  1  -0.00976442  0.32740448  0.74704007  1
  In  In73  1  -0.00336657  0.67227529  0.75383341  1
  In  In74  1  0.33613468  0.32938814  0.74720465  1
  In  In75  1  0.16872740  0.83007203  0.49535031  1
  In  In76  1  0.82705229  0.16754514  -0.00467821  1
  In  In77  1  0.33914718  0.67035999  0.74373653  1
  In  In78  1  0.82824077  0.83321866  0.00034614  1
  In  In79  1  0.33829741  0.66682382  0.25382408  1
  In  In80  1  0.50168624  0.17296387  -0.00558072  1
  In  In81  1  0.32928577  0.00243412  0.24880663  1
  In  In82  1  0.33168883  0.33810376  0.25375561  1
  In  In83  1  0.17194572  0.82646198  0.00069334  1
  In  In84  1  0.16550942  0.17195871  0.00504469  1
  In  In85  1  0.83256555  0.83818387  0.49667860  1
  Cu  Cu86  1  -0.00762142  0.00768504  0.50307486  1
  Cu  Cu87  1  0.50641247  0.83219693  0.74624467  1
  Cu  Cu88  1  0.82670708  0.83342079  0.24926478  1
  Cu  Cu89  1  -0.00097574  0.65776134  0.49323254  1
  Cu  Cu90  1  0.66874272  0.33764102  0.49958168  1
  Cu  Cu91  1  0.17349413  0.84498984  0.74844587  1
  Cu  Cu92  1  0.67416165  0.66005911  0.00356799  1
  Cu  Cu93  1  0.16230830  0.49471003  0.24841070  1
  Cu  Cu94  1  0.50352308  0.16182164  0.74442528  1
  Cu  Cu95  1  0.83595943  0.83369028  0.75277242  1
  Cu  Cu96  1  0.83401406  0.49693058  0.25279244  1
  Cu  Cu97  1  0.15370751  0.16554389  0.25718130  1
  Cu  Cu98  1  0.51343744  0.50370037  0.25234199  1
  Cu  Cu99  1  0.16271021  0.83356642  0.24738907  1
  Cu  Cu100  1  0.66605493  0.00440096  0.50492007  1
  Cu  Cu101  1  0.33440393  -0.00256639  0.50286528  1
  Cu  Cu102  1  0.16474065  0.15880051  0.74386660  1
  Cu  Cu103  1  0.50738091  0.16542657  0.25888395  1
  Cu  Cu104  1  0.83222900  0.16596073  0.25486497  1
  Cu  Cu105  1  0.00086200  0.65955837  0.00956300  1
  Cu  Cu106  1  0.66908447  0.66373911  0.49519559  1
  Cu  Cu107  1  0.32697240  0.34576079  0.00169005  1
  Cu  Cu108  1  0.33959378  0.32886949  0.50128377  1
  Cu  Cu109  1  0.00175418  0.33262275  0.49431919  1
  Cu  Cu110  1  0.51048017  0.50372417  0.75018678  1
  Cu  Cu111  1  0.34266141  -0.00369647  -0.00516441  1
  Cu  Cu112  1  0.82222668  0.49797750  0.75100020  1
  Cu  Cu113  1  -0.00729797  0.33726834  0.00789445  1
  Cu  Cu114  1  0.16575750  0.50040407  0.74522299  1
  Se  Se115  1  0.07231455  0.07879613  0.05708194  1
  Se  Se116  1  0.08637408  0.08614515  0.55064702  1
  Se  Se117  1  0.08125312  0.41974822  0.05660410  1
  Se  Se118  1  0.08544498  0.41776423  0.54733808  1
  Se  Se119  1  0.07436417  0.74893749  0.06581784  1
  Se  Se120  1  0.07320364  0.74097327  0.55594451  1
  Se  Se121  1  0.41733964  0.07734751  0.05857348  1
  Se  Se122  1  0.41864553  0.08215348  0.55418648  1
  Se  Se123  1  0.41953560  0.42043883  0.05226870  1
  Se  Se124  1  0.42175480  0.41714041  0.55055645  1
  Se  Se125  1  0.41299943  0.73613910  0.04881584  1
  Se  Se126  1  0.40063972  0.73200884  0.55067715  1
  Se  Se127  1  0.73738982  0.07477915  0.05411747  1
  Se  Se128  1  0.75230942  0.08769662  0.55503329  1
  Se  Se129  1  0.75163085  0.41112409  0.05616021  1
  Se  Se130  1  0.75135950  0.42163091  0.55429255  1
  Se  Se131  1  0.74677623  0.74489895  0.06607419  1
  Se  Se132  1  0.74565682  0.74666429  0.55842418  1
  Se  Se133  1  0.25642199  0.26286567  0.06524844  1
  Se  Se134  1  0.24974836  0.24735522  0.55002039  1
  Se  Se135  1  0.24423325  0.59050778  0.04851293  1
  Se  Se136  1  0.23510115  0.57106813  0.54477345  1
  Se  Se137  1  0.26279537  0.92230143  0.05982231  1
  Se  Se138  1  0.24905815  0.92007334  0.56253222  1
  Se  Se139  1  0.58888511  0.25568738  0.06050374  1
  Se  Se140  1  0.58459664  0.25238999  0.55203675  1
  Se  Se141  1  0.58957919  0.57576145  0.05577346  1
  Se  Se142  1  0.58881976  0.58159300  0.55377714  1
  Se  Se143  1  0.58168272  0.90779808  0.05120318  1
  Se  Se144  1  0.58224231  0.91457035  0.55146341  1
  Se  Se145  1  0.91456933  0.25138604  0.06328279  1
  Se  Se146  1  0.91735841  0.25403788  0.55147946  1
  Se  Se147  1  0.91083516  0.57844301  0.05709334  1
  Se  Se148  1  0.91254816  0.58027629  0.54795371  1
  Se  Se149  1  0.92090856  0.92491038  0.05674794  1
  Se  Se150  1  0.91116332  0.92960435  0.56327825  1
  Se  Se151  1  0.08500321  0.24580401  0.44428556  1
  Se  Se152  1  0.07088944  0.25966790  0.94291192  1
  Se  Se153  1  0.08433307  0.57829373  0.43968034  1
  Se  Se154  1  0.08196981  0.57886155  0.95114204  1
  Se  Se155  1  0.06731351  0.91951372  0.44381360  1
  Se  Se156  1  0.08142783  0.92351636  0.94683371  1
  Se  Se157  1  0.42386947  0.24449835  0.45054528  1
  Se  Se158  1  0.40165389  0.26237904  0.93915600  1
  Se  Se159  1  0.41996561  0.58921898  0.45233353  1
  Se  Se160  1  0.41326234  0.58771468  0.95085659  1
  Se  Se161  1  0.41883811  0.91505342  0.45080446  1
  Se  Se162  1  0.42570496  0.91527159  0.94190130  1
  Se  Se163  1  0.75186054  0.25094991  0.44847427  1
  Se  Se164  1  0.73326208  0.25697914  0.94025662  1
  Se  Se165  1  0.75555792  0.57971577  0.44729355  1
  Se  Se166  1  0.75500499  0.57811067  0.94751601  1
  Se  Se167  1  0.73931298  0.92418824  0.43817607  1
  Se  Se168  1  0.74519355  0.92195073  0.93602159  1
  Se  Se169  1  0.24853793  0.07892470  0.45018604  1
  Se  Se170  1  0.25730432  0.08057907  0.94314339  1
  Se  Se171  1  0.25704741  0.40960276  0.44433453  1
  Se  Se172  1  0.23997874  0.42392607  0.94801830  1
  Se  Se173  1  0.25616712  0.73675639  0.43818445  1
  Se  Se174  1  0.25891184  0.74281021  0.93534650  1
  Se  Se175  1  0.58316371  0.08864206  0.45030131  1
  Se  Se176  1  0.58956581  0.08103840  0.93672635  1
  Se  Se177  1  0.58358054  0.42136779  0.44789210  1
  Se  Se178  1  0.57316425  0.42565610  0.94713747  1
  Se  Se179  1  0.58833460  0.75338945  0.44595805  1
  Se  Se180  1  0.59510745  0.74615888  0.94744979  1
  Se  Se181  1  0.90879164  0.08852689  0.44844078  1
  Se  Se182  1  0.92167512  0.07396886  0.94222355  1
  Se  Se183  1  0.91618851  0.41682034  0.44388411  1
  Se  Se184  1  0.90838287  0.41626325  0.95167606  1
  Se  Se185  1  0.92034953  0.74465498  0.43686427  1
  Se  Se186  1  0.92577824  0.73931166  0.94442515  1
  Se  Se187  1  0.24458598  0.24170387  0.31099515  1
  Se  Se188  1  0.24105384  0.23944001  0.80790774  1
  Se  Se189  1  0.24675249  0.57080512  0.30903803  1
  Se  Se190  1  0.24618185  0.57951361  0.80512634  1
  Se  Se191  1  0.24139913  0.90895336  0.31175317  1
  Se  Se192  1  0.25989970  0.92283810  0.80227358  1
  Se  Se193  1  0.58795717  0.25304720  0.30913090  1
  Se  Se194  1  0.57599578  0.25069524  0.80111998  1
  Se  Se195  1  0.59239328  0.58701101  0.30809353  1
  Se  Se196  1  0.58986641  0.58692062  0.80609589  1
  Se  Se197  1  0.58158479  0.92925414  0.30219871  1
  Se  Se198  1  0.58953639  0.91631568  0.79957488  1
  Se  Se199  1  0.91661137  0.25053372  0.30599132  1
  Se  Se200  1  0.90098212  0.23847425  0.80677997  1
  Se  Se201  1  0.91615496  0.58428656  0.30399117  1
  Se  Se202  1  0.91091547  0.57336225  0.80935599  1
  Se  Se203  1  0.91123144  0.91718101  0.30185992  1
  Se  Se204  1  0.92174676  0.91671536  0.80284079  1
  Se  Se205  1  0.07396275  0.07735308  0.30729628  1
  Se  Se206  1  0.08442547  0.08215987  0.80520660  1
  Se  Se207  1  0.08020178  0.41139897  0.30180122  1
  Se  Se208  1  0.08414350  0.42211977  0.80519079  1
  Se  Se209  1  0.07977282  0.74543081  0.29587932  1
  Se  Se210  1  0.09576859  0.76207208  0.80897497  1
  Se  Se211  1  0.41873488  0.08744050  0.31277337  1
  Se  Se212  1  0.41907797  0.07774190  0.79603284  1
  Se  Se213  1  0.42761721  0.42544812  0.31070335  1
  Se  Se214  1  0.41849817  0.42856712  0.80581992  1
  Se  Se215  1  0.42950947  0.75656155  0.31059389  1
  Se  Se216  1  0.43123991  0.74915430  0.80875624  1
  Se  Se217  1  0.74691883  0.08297280  0.30685002  1
  Se  Se218  1  0.74877472  0.08125288  0.79608143  1
  Se  Se219  1  0.74952505  0.41369855  0.30570330  1
  Se  Se220  1  0.74522306  0.41367891  0.80734820  1
  Se  Se221  1  0.74402425  0.74939588  0.30171538  1
  Se  Se222  1  0.75125675  0.74676631  0.80022772  1
  Se  Se223  1  0.23572611  0.09537471  0.19036880  1
  Se  Se224  1  0.25547976  0.07896586  0.69550331  1
  Se  Se225  1  0.25338862  0.42889009  0.18620441  1
  Se  Se226  1  0.25091738  0.42477878  0.68709818  1
  Se  Se227  1  0.24861673  0.75768316  0.18956652  1
  Se  Se228  1  0.24339659  0.76005801  0.68616683  1
  Se  Se229  1  0.58279561  0.08375629  0.19757353  1
  Se  Se230  1  0.58766821  0.08037367  0.69086830  1
  Se  Se231  1  0.59018061  0.41438279  0.19938236  1
  Se  Se232  1  0.58959512  0.41451411  0.69915159  1
  Se  Se233  1  0.57944361  0.74366017  0.19910672  1
  Se  Se234  1  0.58656734  0.74743094  0.69149212  1
  Se  Se235  1  0.91208482  0.08059314  0.19832535  1
  Se  Se236  1  0.93302711  0.07944076  0.69561145  1
  Se  Se237  1  0.91921942  0.41298916  0.20053066  1
  Se  Se238  1  0.90541740  0.42313646  0.68850961  1
  Se  Se239  1  0.91513185  0.74863831  0.20167385  1
  Se  Se240  1  0.91160667  0.75670721  0.68572950  1
  Se  Se241  1  0.07676137  0.25211416  0.20202440  1
  Se  Se242  1  0.09101298  0.24817621  0.68770078  1
  Se  Se243  1  0.07943788  0.58174791  0.19795877  1
  Se  Se244  1  0.08092298  0.57963251  0.68911707  1
  Se  Se245  1  0.07913391  0.92190768  0.19933464  1
  Se  Se246  1  0.07999052  0.92048833  0.69905502  1
  Se  Se247  1  0.42755304  0.24593298  0.19678702  1
  Se  Se248  1  0.42463084  0.24485124  0.68384587  1
  Se  Se249  1  0.42766869  0.57912337  0.19266282  1
  Se  Se250  1  0.42745518  0.57643627  0.68648627  1
  Se  Se251  1  0.42485602  0.91020468  0.19842172  1
  Se  Se252  1  0.42108525  0.91514670  0.69482069  1
  Se  Se253  1  0.74677386  0.24814886  0.20200053  1
  Se  Se254  1  0.74927629  0.24888397  0.69639630  1
  Se  Se255  1  0.74974690  0.58104213  0.19998166  1
  Se  Se256  1  0.74596320  0.58744739  0.69805827  1
  Se  Se257  1  0.74608095  0.91843024  0.19542544  1
  Se  Se258  1  0.75186876  0.91540675  0.69832774  1
