# generated using pymatgen
data_In86Cu29Se144
_symmetry_space_group_name_H-M   'P 1'
_cell_length_a   17.58546242
_cell_length_b   17.58836775
_cell_length_c   23.45102132
_cell_angle_alpha   90.02075069
_cell_angle_beta   89.97516520
_cell_angle_gamma   89.99269851
_symmetry_Int_Tables_number   1
_chemical_formula_structural   In86Cu29Se144
_chemical_formula_sum   'In86 Cu29 Se144'
_cell_volume   7253.38983057
_cell_formula_units_Z   1
loop_
 _symmetry_equiv_pos_site_id
 _symmetry_equiv_pos_as_xyz
  1  'x, y, z'
loop_
 _atom_site_type_symbol
 _atom_site_label
 _atom_site_symmetry_multiplicity
 _atom_site_fract_x
 _atom_site_fract_y
 _atom_site_fract_z
 _atom_site_occupancy
  In  In0  1  0.00647929  0.15078578  0.14003957  1
  In  In1  1  -0.01641704  0.16717854  0.62532741  1
  In  In2  1  -0.00723124  0.50573323  0.13587171  1
  In  In3  1  0.00610735  0.51209271  0.61589415  1
  In  In4  1  -0.02062966  0.85262616  0.13866215  1
  In  In5  1  0.00452690  0.83207782  0.62724153  1
  In  In6  1  0.32579693  0.16947507  0.13079292  1
  In  In7  1  0.32118130  0.15887293  0.62444598  1
  In  In8  1  0.34013406  0.48134857  0.12692486  1
  In  In9  1  0.32383883  0.51135631  0.62322474  1
  In  In10  1  0.34801876  0.83545908  0.12251782  1
  In  In11  1  0.33656133  0.83840992  0.62153453  1
  In  In12  1  0.67562957  0.16140257  0.13995862  1
  In  In13  1  0.68850250  0.16918856  0.62926174  1
  In  In14  1  0.66512335  0.49941870  0.12851002  1
  In  In15  1  0.67772771  0.49263347  0.63120397  1
  In  In16  1  0.66936070  0.83616725  0.12292568  1
  In  In17  1  0.65193378  0.83351900  0.62358135  1
  In  In18  1  0.15376506  -0.00950634  0.37276496  1
  In  In19  1  0.17025047  -0.00035138  0.87234312  1
  In  In20  1  0.16712905  0.34012229  0.37134339  1
  In  In21  1  0.15524514  0.32610932  0.87930971  1
  In  In22  1  0.15855550  0.67968191  0.38210875  1
  In  In23  1  0.16340922  0.67369930  0.86883389  1
  In  In24  1  0.49974953  -0.00193584  0.36800892  1
  In  In25  1  0.49199273  0.00028952  0.87756891  1
  In  In26  1  0.49716108  0.33638981  0.36222052  1
  In  In27  1  0.51926858  0.33128720  0.88121056  1
  In  In28  1  0.51297083  0.67072944  0.37403287  1
  In  In29  1  0.51246629  0.65414099  0.88206655  1
  In  In30  1  0.84313161  0.01246916  0.36276419  1
  In  In31  1  0.83021749  -0.01224173  0.87653524  1
  In  In32  1  0.83722995  0.33565377  0.37281537  1
  In  In33  1  0.83000958  0.33647937  0.87647130  1
  In  In34  1  0.82407848  0.65688108  0.37281848  1
  In  In35  1  0.83804528  0.67409098  0.86588772  1
  In  In36  1  -0.02197890  0.15623206  0.36216132  1
  In  In37  1  0.01265305  0.16730329  0.88117732  1
  In  In38  1  -0.00268013  0.50256979  0.37467165  1
  In  In39  1  -0.00873563  0.50093921  0.87139942  1
  In  In40  1  0.01239981  0.84702015  0.37286147  1
  In  In41  1  -0.00556680  0.83394345  0.86951581  1
  In  In42  1  0.33077067  0.16604950  0.36576082  1
  In  In43  1  0.33513320  0.14883737  0.87336071  1
  In  In44  1  0.33141410  0.49222720  0.37298682  1
  In  In45  1  0.34003424  0.50947679  0.87470748  1
  In  In46  1  0.32764521  0.84293631  0.37935639  1
  In  In47  1  0.33026422  0.84356197  0.87649323  1
  In  In48  1  0.69097228  0.18489179  0.35291204  1
  In  In49  1  0.66353757  0.16594526  0.87602724  1
  In  In50  1  0.66851721  0.50969701  0.37050069  1
  In  In51  1  0.66083037  0.49127040  0.87248138  1
  In  In52  1  0.66238958  0.82780265  0.37161930  1
  In  In53  1  0.68452563  0.82676204  0.88675106  1
  In  In54  1  0.15186757  0.01449723  0.13256154  1
  In  In55  1  0.17067623  -0.00656534  0.62966221  1
  In  In56  1  0.17448475  0.32074795  0.13080010  1
  In  In57  1  0.15247433  0.33918619  0.62029279  1
  In  In58  1  0.15796052  0.65978734  0.12534147  1
  In  In59  1  0.14844115  0.65698649  0.61657346  1
  In  In60  1  0.51141562  -0.01566982  0.13176084  1
  In  In61  1  0.50062903  -0.01587719  0.62486391  1
  In  In62  1  0.50093119  0.33112968  0.12897584  1
  In  In63  1  0.51127242  0.34351698  0.62432460  1
  In  In64  1  0.51959348  0.68007420  0.11495026  1
  In  In65  1  0.49382049  0.67911914  0.62618598  1
  In  In66  1  0.84142577  -0.00409655  0.13074891  1
  In  In67  1  0.83847393  0.01742982  0.62115657  1
  In  In68  1  0.83023674  0.33163942  0.14038008  1
  In  In69  1  0.82571096  0.32666828  0.61700161  1
  In  In70  1  0.82207937  0.67739032  0.13419858  1
  In  In71  1  0.84466862  0.66005904  0.62827046  1
  In  In72  1  0.15486282  0.16629604  0.49318629  1
  In  In73  1  0.66965107  -0.00339862  0.75285415  1
  In  In74  1  0.83544636  0.83644119  0.49927109  1
  In  In75  1  0.33238305  0.66747639  0.24445423  1
  In  In76  1  0.33681664  0.33055397  0.74048433  1
  In  In77  1  -0.00559083  0.33401034  0.74876197  1
  In  In78  1  0.83018621  0.49830665  0.00752008  1
  In  In79  1  0.50544054  0.15896519  0.00565651  1
  In  In80  1  0.50047730  0.50616125  0.49447767  1
  In  In81  1  0.17071216  0.49627011  -0.00216068  1
  In  In82  1  0.50545610  0.16431067  0.48705020  1
  In  In83  1  0.32941970  0.66969387  0.74868160  1
  In  In84  1  0.83442806  0.16152415  0.00706610  1
  In  In85  1  0.16743075  0.83364371  -0.00213043  1
  Cu  Cu86  1  0.50046012  0.83036130  0.75117277  1
  Cu  Cu87  1  0.83284501  0.49818417  0.25440211  1
  Cu  Cu88  1  0.67381784  0.32931905  0.49616044  1
  Cu  Cu89  1  0.51062030  0.49647289  0.75409793  1
  Cu  Cu90  1  0.33108757  0.00082613  0.00087742  1
  Cu  Cu91  1  0.83341287  0.83354430  0.74877575  1
  Cu  Cu92  1  -0.00564497  0.67734025  -0.00271212  1
  Cu  Cu93  1  0.66837142  0.00258157  0.49785208  1
  Cu  Cu94  1  0.32761986  0.67548693  0.50277156  1
  Cu  Cu95  1  -0.00454053  0.66727283  0.49746495  1
  Cu  Cu96  1  0.83179884  0.82783438  0.25461921  1
  Cu  Cu97  1  -0.00651347  0.34027461  0.49604203  1
  Cu  Cu98  1  0.34672624  0.66076051  0.00273671  1
  Cu  Cu99  1  0.49450955  0.16341416  0.24627849  1
  Cu  Cu100  1  0.16034019  0.83442143  0.74883969  1
  Cu  Cu101  1  0.50009185  0.50194584  0.24709776  1
  Cu  Cu102  1  0.16647993  0.83710384  0.25410415  1
  Cu  Cu103  1  0.33837990  0.32560757  0.00561580  1
  Cu  Cu104  1  0.16048482  0.50177732  0.25024568  1
  Cu  Cu105  1  0.00634306  0.32640099  0.00976740  1
  Cu  Cu106  1  0.16672815  0.17240226  0.25393938  1
  Cu  Cu107  1  0.33619504  -0.00419857  0.49838146  1
  Cu  Cu108  1  0.50342105  0.16298304  0.75376328  1
  Cu  Cu109  1  0.32553598  0.34166795  0.49481596  1
  Cu  Cu110  1  0.83371860  0.50531657  0.74799533  1
  Cu  Cu111  1  0.16947694  0.15724863  0.75206788  1
  Cu  Cu112  1  0.66590777  0.66692654  0.49810079  1
  Cu  Cu113  1  0.50356764  0.83267088  0.24572792  1
  Cu  Cu114  1  0.67193802  0.66587634  0.00162572  1
  Se  Se115  1  0.07497753  0.08491116  0.05637258  1
  Se  Se116  1  0.07893554  0.08108851  0.56397276  1
  Se  Se117  1  0.08059310  0.41762156  0.06550109  1
  Se  Se118  1  0.08190055  0.42098834  0.54670278  1
  Se  Se119  1  0.07540222  0.75059240  0.06095034  1
  Se  Se120  1  0.07794207  0.75248099  0.55052041  1
  Se  Se121  1  0.41151376  0.07475358  0.06576657  1
  Se  Se122  1  0.41549326  0.08065626  0.55585921  1
  Se  Se123  1  0.42347470  0.41079172  0.05287982  1
  Se  Se124  1  0.40917944  0.41459622  0.55740094  1
  Se  Se125  1  0.42340812  0.75349100  0.05048033  1
  Se  Se126  1  0.41820079  0.75521842  0.55128119  1
  Se  Se127  1  0.74069662  0.07250971  0.06305049  1
  Se  Se128  1  0.75016320  0.08798038  0.54948569  1
  Se  Se129  1  0.74447636  0.40227327  0.06190584  1
  Se  Se130  1  0.74822165  0.41882990  0.55103948  1
  Se  Se131  1  0.75429357  0.75100561  0.05383042  1
  Se  Se132  1  0.74562410  0.74571562  0.56080407  1
  Se  Se133  1  0.24932448  0.24513514  0.05352923  1
  Se  Se134  1  0.25139551  0.25689742  0.55507014  1
  Se  Se135  1  0.26071752  0.58587247  0.06072769  1
  Se  Se136  1  0.24549063  0.58548413  0.54958221  1
  Se  Se137  1  0.25068442  0.92285967  0.06359926  1
  Se  Se138  1  0.25000205  0.91895045  0.55396744  1
  Se  Se139  1  0.59483306  0.24714859  0.06449515  1
  Se  Se140  1  0.58952617  0.25215237  0.55562748  1
  Se  Se141  1  0.58977690  0.57901900  0.05299086  1
  Se  Se142  1  0.58612686  0.58826742  0.56263898  1
  Se  Se143  1  0.57466342  0.90483029  0.05408145  1
  Se  Se144  1  0.58355769  0.91814664  0.54804245  1
  Se  Se145  1  0.92045026  0.25385252  0.06859651  1
  Se  Se146  1  0.91679624  0.25143013  0.54967059  1
  Se  Se147  1  0.92123663  0.59467854  0.06018748  1
  Se  Se148  1  0.91101256  0.58261869  0.54828295  1
  Se  Se149  1  0.91510757  0.91723500  0.05454826  1
  Se  Se150  1  0.92443329  0.92536478  0.55858970  1
  Se  Se151  1  0.06820712  0.25648303  0.43299398  1
  Se  Se152  1  0.09011137  0.24499349  0.95656531  1
  Se  Se153  1  0.08145897  0.58484163  0.44463894  1
  Se  Se154  1  0.07603194  0.59141642  0.94232534  1
  Se  Se155  1  0.08610887  0.91670575  0.45217665  1
  Se  Se156  1  0.07597641  0.92174591  0.94060816  1
  Se  Se157  1  0.40758652  0.26109316  0.43845691  1
  Se  Se158  1  0.41546354  0.24698383  0.93960434  1
  Se  Se159  1  0.40600756  0.59700502  0.43779343  1
  Se  Se160  1  0.42509329  0.57352733  0.94979761  1
  Se  Se161  1  0.42326137  0.91853022  0.44350576  1
  Se  Se162  1  0.41461506  0.91637900  0.94921568  1
  Se  Se163  1  0.75483875  0.24693490  0.44096552  1
  Se  Se164  1  0.74440553  0.25477649  0.94620389  1
  Se  Se165  1  0.74712209  0.57957079  0.44886770  1
  Se  Se166  1  0.75151479  0.58689843  0.93854221  1
  Se  Se167  1  0.74707346  0.92202417  0.43603713  1
  Se  Se168  1  0.75383022  0.91925515  0.95376269  1
  Se  Se169  1  0.25618259  0.07949792  0.44025403  1
  Se  Se170  1  0.24791967  0.08160305  0.94639759  1
  Se  Se171  1  0.24149694  0.42525288  0.44514556  1
  Se  Se172  1  0.26256945  0.40446172  0.93884504  1
  Se  Se173  1  0.24640804  0.75964623  0.44801644  1
  Se  Se174  1  0.26081156  0.73616736  0.94284190  1
  Se  Se175  1  0.60020756  0.08231174  0.42872545  1
  Se  Se176  1  0.59421249  0.06891971  0.94434472  1
  Se  Se177  1  0.58659386  0.40759625  0.43915609  1
  Se  Se178  1  0.58818328  0.41900918  0.95086101  1
  Se  Se179  1  0.58284272  0.75311243  0.44922458  1
  Se  Se180  1  0.58722769  0.74767945  0.94698188  1
  Se  Se181  1  0.91829436  0.07788916  0.44344253  1
  Se  Se182  1  0.92120528  0.07806253  0.94137502  1
  Se  Se183  1  0.90976654  0.42425594  0.44426204  1
  Se  Se184  1  0.92832299  0.40773181  0.94840307  1
  Se  Se185  1  0.91923854  0.74689962  0.43451849  1
  Se  Se186  1  0.91155615  0.75516088  0.94107131  1
  Se  Se187  1  0.25201251  0.25836849  0.30302349  1
  Se  Se188  1  0.24756288  0.24530599  0.80843712  1
  Se  Se189  1  0.24285082  0.58351823  0.30928891  1
  Se  Se190  1  0.24056655  0.57296742  0.80568372  1
  Se  Se191  1  0.25067491  0.92105636  0.30499391  1
  Se  Se192  1  0.24850876  0.91354797  0.80193267  1
  Se  Se193  1  0.57794371  0.24874424  0.29835491  1
  Se  Se194  1  0.58550186  0.24803506  0.80413328  1
  Se  Se195  1  0.58198935  0.58648938  0.30036869  1
  Se  Se196  1  0.59093798  0.58583733  0.80350801  1
  Se  Se197  1  0.58546705  0.91452873  0.30184493  1
  Se  Se198  1  0.58058850  0.90798330  0.81391812  1
  Se  Se199  1  0.90729700  0.25093039  0.29805341  1
  Se  Se200  1  0.91389713  0.24347760  0.81403038  1
  Se  Se201  1  0.91622007  0.58563602  0.30395890  1
  Se  Se202  1  0.92059037  0.58622707  0.79984282  1
  Se  Se203  1  0.91910641  0.91347441  0.30246211  1
  Se  Se204  1  0.91434844  0.91968847  0.80063042  1
  Se  Se205  1  0.08466645  0.08551562  0.30536958  1
  Se  Se206  1  0.08191264  0.08180577  0.80682738  1
  Se  Se207  1  0.07840123  0.41823000  0.30424461  1
  Se  Se208  1  0.09053211  0.42154602  0.80822594  1
  Se  Se209  1  0.08271977  0.75169994  0.30409887  1
  Se  Se210  1  0.07804538  0.74962543  0.80090849  1
  Se  Se211  1  0.41323417  0.07996694  0.30109796  1
  Se  Se212  1  0.41807307  0.07621203  0.79966012  1
  Se  Se213  1  0.41138541  0.42096366  0.29740458  1
  Se  Se214  1  0.42376095  0.41591902  0.80876680  1
  Se  Se215  1  0.42020463  0.75533180  0.30783277  1
  Se  Se216  1  0.42121990  0.75060730  0.81408349  1
  Se  Se217  1  0.73761952  0.06736347  0.29827916  1
  Se  Se218  1  0.75835568  0.09000166  0.80934750  1
  Se  Se219  1  0.74579250  0.41754546  0.30682018  1
  Se  Se220  1  0.75593777  0.42002694  0.80483522  1
  Se  Se221  1  0.74540155  0.74368401  0.30423124  1
  Se  Se222  1  0.74602599  0.75413814  0.80170992  1
  Se  Se223  1  0.24676745  0.08437159  0.20006299  1
  Se  Se224  1  0.25539982  0.07591670  0.69969359  1
  Se  Se225  1  0.24469984  0.41937961  0.19629300  1
  Se  Se226  1  0.23979088  0.42293634  0.69097414  1
  Se  Se227  1  0.24105909  0.76028914  0.18683315  1
  Se  Se228  1  0.23968147  0.75436843  0.68591217  1
  Se  Se229  1  0.58164149  0.07811586  0.19936478  1
  Se  Se230  1  0.58147513  0.08574333  0.68710541  1
  Se  Se231  1  0.58364830  0.41509775  0.19720487  1
  Se  Se232  1  0.59192920  0.41157325  0.70017189  1
  Se  Se233  1  0.59025524  0.74964076  0.19555180  1
  Se  Se234  1  0.58345628  0.74750227  0.69833771  1
  Se  Se235  1  0.90243578  0.09064562  0.20244852  1
  Se  Se236  1  0.91287207  0.08673665  0.69942690  1
  Se  Se237  1  0.91909084  0.41577130  0.20312201  1
  Se  Se238  1  0.91194437  0.42480365  0.68464210  1
  Se  Se239  1  0.91873099  0.74612283  0.20089200  1
  Se  Se240  1  0.91880201  0.75116499  0.69527829  1
  Se  Se241  1  0.08120586  0.25245923  0.19956322  1
  Se  Se242  1  0.09134889  0.24109426  0.69264178  1
  Se  Se243  1  0.07850001  0.59015666  0.20147057  1
  Se  Se244  1  0.08198958  0.58043744  0.69508812  1
  Se  Se245  1  0.08177337  0.92017505  0.20062379  1
  Se  Se246  1  0.07814476  0.92130930  0.69785892  1
  Se  Se247  1  0.41287331  0.25183613  0.19608526  1
  Se  Se248  1  0.42925964  0.23751446  0.68367318  1
  Se  Se249  1  0.42569049  0.58344796  0.18316328  1
  Se  Se250  1  0.42567880  0.57325423  0.69448817  1
  Se  Se251  1  0.41329546  0.91658547  0.20021409  1
  Se  Se252  1  0.41631866  0.91278866  0.69819106  1
  Se  Se253  1  0.74669404  0.25173435  0.20805869  1
  Se  Se254  1  0.75427815  0.25914790  0.69888597  1
  Se  Se255  1  0.75018751  0.57939958  0.19708844  1
  Se  Se256  1  0.74930972  0.58933064  0.69578877  1
  Se  Se257  1  0.75365922  0.91085608  0.19560869  1
  Se  Se258  1  0.75547308  0.91178641  0.68440601  1
