# generated using pymatgen
data_In86Cu29Se144
_symmetry_space_group_name_H-M   'P 1'
_cell_length_a   17.57593721
_cell_length_b   17.58165009
_cell_length_c   23.43868769
_cell_angle_alpha   90.00094992
_cell_angle_beta   90.01094512
_cell_angle_gamma   90.00744340
_symmetry_Int_Tables_number   1
_chemical_formula_structural   In86Cu29Se144
_chemical_formula_sum   'In86 Cu29 Se144'
_cell_volume   7242.88192985
_cell_formula_units_Z   1
loop_
 _symmetry_equiv_pos_site_id
 _symmetry_equiv_pos_as_xyz
  1  'x, y, z'
loop_
 _atom_site_type_symbol
 _atom_site_label
 _atom_site_symmetry_multiplicity
 _atom_site_fract_x
 _atom_site_fract_y
 _atom_site_fract_z
 _atom_site_occupancy
  In  In0  1  -0.01470107  0.14822256  0.11051216  1
  In  In1  1  0.01655528  0.16145553  0.64999847  1
  In  In2  1  -0.01010665  0.50891782  0.12576306  1
  In  In3  1  0.00105308  0.50348576  0.62746717  1
  In  In4  1  -0.00885303  0.83926102  0.12943993  1
  In  In5  1  -0.00946585  0.84218085  0.63806058  1
  In  In6  1  0.34312208  0.17037467  0.11837571  1
  In  In7  1  0.33596727  0.14004519  0.62527970  1
  In  In8  1  0.32942703  0.49958478  0.13542897  1
  In  In9  1  0.32965428  0.51378785  0.61753241  1
  In  In10  1  0.32202926  0.83135824  0.13349926  1
  In  In11  1  0.34457452  0.83727505  0.61936102  1
  In  In12  1  0.66151505  0.16784607  0.11976898  1
  In  In13  1  0.66873639  0.17836328  0.62631705  1
  In  In14  1  0.68142546  0.50466453  0.12243959  1
  In  In15  1  0.68527613  0.48927647  0.63043475  1
  In  In16  1  0.68178397  0.82256324  0.13118492  1
  In  In17  1  0.66502467  0.82832198  0.62308397  1
  In  In18  1  0.16410780  0.01048168  0.37492424  1
  In  In19  1  0.16452251  0.00134457  0.85982873  1
  In  In20  1  0.17518689  0.32635511  0.37495649  1
  In  In21  1  0.14791562  0.32544762  0.86811257  1
  In  In22  1  0.15108288  0.65505582  0.37115629  1
  In  In23  1  0.13855568  0.67202543  0.87197637  1
  In  In24  1  0.50631025  -0.01646050  0.38978373  1
  In  In25  1  0.50162518  0.01076430  0.87393981  1
  In  In26  1  0.48879704  0.33743862  0.37448001  1
  In  In27  1  0.50216792  0.31865213  0.87523768  1
  In  In28  1  0.51551216  0.67745464  0.36823239  1
  In  In29  1  0.50248585  0.65844236  0.87339826  1
  In  In30  1  0.81809064  -0.01179820  0.36039481  1
  In  In31  1  0.84610010  -0.00938473  0.88281506  1
  In  In32  1  0.84552454  0.33396152  0.37542244  1
  In  In33  1  0.82692162  0.33454015  0.87971469  1
  In  In34  1  0.83267095  0.66673350  0.37659426  1
  In  In35  1  0.83671792  0.67361424  0.87204161  1
  In  In36  1  0.00515928  0.15949620  0.37008410  1
  In  In37  1  -0.00101148  0.16412178  0.87625864  1
  In  In38  1  -0.01564528  0.50540610  0.38576017  1
  In  In39  1  -0.01311345  0.49742426  0.87413630  1
  In  In40  1  -0.01003039  0.82277712  0.37220593  1
  In  In41  1  -0.02186071  0.81533035  0.84005993  1
  In  In42  1  0.33036998  0.17563133  0.37479954  1
  In  In43  1  0.33850355  0.15433428  0.87806202  1
  In  In44  1  0.32353396  0.48918389  0.37138607  1
  In  In45  1  0.33472290  0.50243684  0.87578484  1
  In  In46  1  0.35154664  0.83387119  0.37857024  1
  In  In47  1  0.30352039  0.83791100  0.86609018  1
  In  In48  1  0.66933928  0.14615228  0.37165372  1
  In  In49  1  0.66107672  0.17694818  0.88741200  1
  In  In50  1  0.66767105  0.51541116  0.37417161  1
  In  In51  1  0.68166490  0.51787950  0.86732083  1
  In  In52  1  0.67155790  0.83154099  0.37889847  1
  In  In53  1  0.69667895  0.83340889  0.87152897  1
  In  In54  1  0.15317474  -0.00399182  0.12176652  1
  In  In55  1  0.17131600  -0.00738462  0.64552413  1
  In  In56  1  0.17749591  0.32945675  0.12260401  1
  In  In57  1  0.15165768  0.32795183  0.63059604  1
  In  In58  1  0.15687886  0.67097607  0.13625072  1
  In  In59  1  0.16819579  0.65672461  0.62006859  1
  In  In60  1  0.50361336  0.01684770  0.12348304  1
  In  In61  1  0.49402243  -0.00707943  0.61289226  1
  In  In62  1  0.50023730  0.31967928  0.12549825  1
  In  In63  1  0.51691455  0.33227181  0.62472386  1
  In  In64  1  0.50057672  0.66732159  0.13608206  1
  In  In65  1  0.50115487  0.68066178  0.62045157  1
  In  In66  1  0.83613634  -0.00029288  0.12750382  1
  In  In67  1  0.84449671  -0.00366939  0.62791358  1
  In  In68  1  0.81879640  0.33385952  0.10589315  1
  In  In69  1  0.83692945  0.33306332  0.63385904  1
  In  In70  1  0.83657969  0.66674667  0.12452094  1
  In  In71  1  0.83925626  0.66904496  0.62733220  1
  In  In72  1  0.66384993  0.33549395  0.23843550  1
  In  In73  1  0.33638852  -0.00135460  0.25545065  1
  In  In74  1  0.50203272  0.83931812  -0.00070753  1
  In  In75  1  0.50098716  0.50548375  0.49633284  1
  In  In76  1  0.51140440  0.48871667  0.00644514  1
  In  In77  1  0.33387065  0.67646026  0.74257406  1
  In  In78  1  0.00113496  0.32962773  0.24673964  1
  In  In79  1  0.67306840  0.00258255  0.75354788  1
  In  In80  1  0.16755890  0.83505882  0.50704536  1
  In  In81  1  0.15214493  0.83513004  -0.00388930  1
  In  In82  1  0.16760364  0.16770504  0.50602963  1
  In  In83  1  0.83696724  0.16689000  0.50304968  1
  In  In84  1  0.33559034  0.33420716  0.75166208  1
  In  In85  1  0.16102393  0.49520295  -0.00840773  1
  Cu  Cu86  1  0.50170100  0.16343544  0.75132348  1
  Cu  Cu87  1  -0.00155137  0.33096254  -0.00487286  1
  Cu  Cu88  1  0.67376243  0.66708014  0.50092894  1
  Cu  Cu89  1  0.83856085  0.50496934  0.74997653  1
  Cu  Cu90  1  0.49925767  0.83896651  0.74672673  1
  Cu  Cu91  1  0.00003646  -0.00045365  -0.00441360  1
  Cu  Cu92  1  0.51580604  0.50144504  0.74733599  1
  Cu  Cu93  1  0.16597668  0.50677426  0.74976996  1
  Cu  Cu94  1  0.49314804  0.50416444  0.25497389  1
  Cu  Cu95  1  0.51003763  0.83843425  0.25470033  1
  Cu  Cu96  1  0.33344799  0.32071384  -0.00220495  1
  Cu  Cu97  1  -0.00280458  0.33858062  0.50839557  1
  Cu  Cu98  1  0.83406250  0.83108249  0.25106238  1
  Cu  Cu99  1  0.67188592  0.00303636  0.00029590  1
  Cu  Cu100  1  0.50164089  0.16684095  0.24924168  1
  Cu  Cu101  1  0.83287124  0.50400274  0.25012144  1
  Cu  Cu102  1  0.83109930  0.17435087  0.75875715  1
  Cu  Cu103  1  -0.00019772  -0.00091266  0.50472215  1
  Cu  Cu104  1  0.67012727  0.33081202  0.50400717  1
  Cu  Cu105  1  0.32869709  0.66651699  0.49300353  1
  Cu  Cu106  1  0.33029306  0.00240589  -0.00644356  1
  Cu  Cu107  1  0.16564157  0.16180121  0.24670860  1
  Cu  Cu108  1  0.16416870  0.82532714  0.25307176  1
  Cu  Cu109  1  0.33168674  0.33339744  0.49748912  1
  Cu  Cu110  1  0.16216309  0.49676553  0.25204343  1
  Cu  Cu111  1  0.32725167  0.66603939  0.00711289  1
  Cu  Cu112  1  -0.00697354  0.66382626  0.50094598  1
  Cu  Cu113  1  0.67692890  0.67381778  -0.00238669  1
  Cu  Cu114  1  0.66768455  -0.00777605  0.49847274  1
  Se  Se115  1  0.08801119  0.08155443  0.04653522  1
  Se  Se116  1  0.07908270  0.07647954  0.56606691  1
  Se  Se117  1  0.07583650  0.41003796  0.06029786  1
  Se  Se118  1  0.08661534  0.41842689  0.55857705  1
  Se  Se119  1  0.07171103  0.74235603  0.06040173  1
  Se  Se120  1  0.07238951  0.74575100  0.56117016  1
  Se  Se121  1  0.41679321  0.08085308  0.04826379  1
  Se  Se122  1  0.43076992  0.09702353  0.55039496  1
  Se  Se123  1  0.40332702  0.40946852  0.05915753  1
  Se  Se124  1  0.41418225  0.41242922  0.55910225  1
  Se  Se125  1  0.40980069  0.74841543  0.06169760  1
  Se  Se126  1  0.41285112  0.74735786  0.54720346  1
  Se  Se127  1  0.75256307  0.08373740  0.05811166  1
  Se  Se128  1  0.74404642  0.07463876  0.56139729  1
  Se  Se129  1  0.73356255  0.41910956  0.04379748  1
  Se  Se130  1  0.75835507  0.40799056  0.55602531  1
  Se  Se131  1  0.75959779  0.75527255  0.05273568  1
  Se  Se132  1  0.75466916  0.75011879  0.55658547  1
  Se  Se133  1  0.24732242  0.24093225  0.05094318  1
  Se  Se134  1  0.25787231  0.25792846  0.56594364  1
  Se  Se135  1  0.24491963  0.58369284  0.06213178  1
  Se  Se136  1  0.24533767  0.58161205  0.54315406  1
  Se  Se137  1  0.25529775  0.91866683  0.05528791  1
  Se  Se138  1  0.25416669  0.93355166  0.56079905  1
  Se  Se139  1  0.58988900  0.26168331  0.05246952  1
  Se  Se140  1  0.58360852  0.24558838  0.54994577  1
  Se  Se141  1  0.58867315  0.60000476  0.05679164  1
  Se  Se142  1  0.59310468  0.58517033  0.56185360  1
  Se  Se143  1  0.59282072  0.92195952  0.06300264  1
  Se  Se144  1  0.58384324  0.90858174  0.55170215  1
  Se  Se145  1  0.91444139  0.24944338  0.04950395  1
  Se  Se146  1  0.93113248  0.24535297  0.56813856  1
  Se  Se147  1  0.90176986  0.57221145  0.05376294  1
  Se  Se148  1  0.91351749  0.57882035  0.55660650  1
  Se  Se149  1  0.91828226  0.91916758  0.05423350  1
  Se  Se150  1  0.91810478  0.91198143  0.55538855  1
  Se  Se151  1  0.07247881  0.25572047  0.44442935  1
  Se  Se152  1  0.08470101  0.24648300  0.94741601  1
  Se  Se153  1  0.07973488  0.58018494  0.45043761  1
  Se  Se154  1  0.06483895  0.59236587  0.94770047  1
  Se  Se155  1  0.07832006  0.92081932  0.44108273  1
  Se  Se156  1  0.07171239  0.92057810  0.92914976  1
  Se  Se157  1  0.41625010  0.25094003  0.44615981  1
  Se  Se158  1  0.42047470  0.24106991  0.94570083  1
  Se  Se159  1  0.41264076  0.58993848  0.43167421  1
  Se  Se160  1  0.41248688  0.58651518  0.95051265  1
  Se  Se161  1  0.40861946  0.91835724  0.45569493  1
  Se  Se162  1  0.40439698  0.91541735  0.93444466  1
  Se  Se163  1  0.74550295  0.25162968  0.43807763  1
  Se  Se164  1  0.75346651  0.24934875  0.95221612  1
  Se  Se165  1  0.75389450  0.58024809  0.44844585  1
  Se  Se166  1  0.75866032  0.58864632  0.94527915  1
  Se  Se167  1  0.75807523  0.91633566  0.44556254  1
  Se  Se168  1  0.75478608  0.91575275  0.95144984  1
  Se  Se169  1  0.25863391  0.07829384  0.44540679  1
  Se  Se170  1  0.24151016  0.07690968  0.93898590  1
  Se  Se171  1  0.24424619  0.41480176  0.44753003  1
  Se  Se172  1  0.25673010  0.40255724  0.93618701  1
  Se  Se173  1  0.24645809  0.74839855  0.43559778  1
  Se  Se174  1  0.24801520  0.73804182  0.94165207  1
  Se  Se175  1  0.58702323  0.08147185  0.44844765  1
  Se  Se176  1  0.58133820  0.08114076  0.94979912  1
  Se  Se177  1  0.59304428  0.41097412  0.43971310  1
  Se  Se178  1  0.58980772  0.41953030  0.92894460  1
  Se  Se179  1  0.58654242  0.74879961  0.44858460  1
  Se  Se180  1  0.58997218  0.74874579  0.93817280  1
  Se  Se181  1  0.92148347  0.07575263  0.44032582  1
  Se  Se182  1  0.91404075  0.08790335  0.94890608  1
  Se  Se183  1  0.90934910  0.41465055  0.45393940  1
  Se  Se184  1  0.91328190  0.41811644  0.94847557  1
  Se  Se185  1  0.91232121  0.75031051  0.44851423  1
  Se  Se186  1  0.92344967  0.76267159  0.93314890  1
  Se  Se187  1  0.24805292  0.24670052  0.29933159  1
  Se  Se188  1  0.24964367  0.24376045  0.81108881  1
  Se  Se189  1  0.24566412  0.58036698  0.30577493  1
  Se  Se190  1  0.24702555  0.58711972  0.80986328  1
  Se  Se191  1  0.24354487  0.90673494  0.31376465  1
  Se  Se192  1  0.26000646  0.93256453  0.79118982  1
  Se  Se193  1  0.58113565  0.25000030  0.30964768  1
  Se  Se194  1  0.58671099  0.24460840  0.80368273  1
  Se  Se195  1  0.58653601  0.58523944  0.29881961  1
  Se  Se196  1  0.58908378  0.59318623  0.79960649  1
  Se  Se197  1  0.58896008  0.92037412  0.31129033  1
  Se  Se198  1  0.58218904  0.90899656  0.81336093  1
  Se  Se199  1  0.90866647  0.23745962  0.30423731  1
  Se  Se200  1  0.91615132  0.25592450  0.81179943  1
  Se  Se201  1  0.91669016  0.58288138  0.30663072  1
  Se  Se202  1  0.92167527  0.58956735  0.80269721  1
  Se  Se203  1  0.92106144  0.91518189  0.30239092  1
  Se  Se204  1  0.90442764  0.92608780  0.79507563  1
  Se  Se205  1  0.08262216  0.07744582  0.29793096  1
  Se  Se206  1  0.07281332  0.08583580  0.80031156  1
  Se  Se207  1  0.08192968  0.41843879  0.31482789  1
  Se  Se208  1  0.08368533  0.42760689  0.80630633  1
  Se  Se209  1  0.07570283  0.74394408  0.30311617  1
  Se  Se210  1  0.11112111  0.77837387  0.80173823  1
  Se  Se211  1  0.42735625  0.08672411  0.31503258  1
  Se  Se212  1  0.41580649  0.07953157  0.80015127  1
  Se  Se213  1  0.41105663  0.41361382  0.30042075  1
  Se  Se214  1  0.43058869  0.42781927  0.80839166  1
  Se  Se215  1  0.42160963  0.75368056  0.30239495  1
  Se  Se216  1  0.41994863  0.76068962  0.81216049  1
  Se  Se217  1  0.75555913  0.08881383  0.29606092  1
  Se  Se218  1  0.75453946  0.09102872  0.81957487  1
  Se  Se219  1  0.75334068  0.41917057  0.30814774  1
  Se  Se220  1  0.75530124  0.42094957  0.80420088  1
  Se  Se221  1  0.75009996  0.74891786  0.30680667  1
  Se  Se222  1  0.74187237  0.73622486  0.79914106  1
  Se  Se223  1  0.24957088  0.08184216  0.18767945  1
  Se  Se224  1  0.22918459  0.11137618  0.69462573  1
  Se  Se225  1  0.24511257  0.41223342  0.19930822  1
  Se  Se226  1  0.24933961  0.42921607  0.69071402  1
  Se  Se227  1  0.25170480  0.74284216  0.20331097  1
  Se  Se228  1  0.24229350  0.76221096  0.68247369  1
  Se  Se229  1  0.58774790  0.08676775  0.19713058  1
  Se  Se230  1  0.58075212  0.08371219  0.68847788  1
  Se  Se231  1  0.57071634  0.43149311  0.18531770  1
  Se  Se232  1  0.59380949  0.41155789  0.69718057  1
  Se  Se233  1  0.58768473  0.75141641  0.19895193  1
  Se  Se234  1  0.58079090  0.75209667  0.69635464  1
  Se  Se235  1  0.92883799  0.07534460  0.19419623  1
  Se  Se236  1  0.90623113  0.08997617  0.69983140  1
  Se  Se237  1  0.90229173  0.41432004  0.18920913  1
  Se  Se238  1  0.92188331  0.41882322  0.69815311  1
  Se  Se239  1  0.91716953  0.74745364  0.19701058  1
  Se  Se240  1  0.92984430  0.73693074  0.69925010  1
  Se  Se241  1  0.08600840  0.23955196  0.18388645  1
  Se  Se242  1  0.07961486  0.26479783  0.71197526  1
  Se  Se243  1  0.07694948  0.57800229  0.19882428  1
  Se  Se244  1  0.08439958  0.59002988  0.69591121  1
  Se  Se245  1  0.08718530  0.91140422  0.19677949  1
  Se  Se246  1  0.06597575  0.93188743  0.70464992  1
  Se  Se247  1  0.41384089  0.24735558  0.19766207  1
  Se  Se248  1  0.42416093  0.24571773  0.68894414  1
  Se  Se249  1  0.40994119  0.58814728  0.20043368  1
  Se  Se250  1  0.42797569  0.57784622  0.68971964  1
  Se  Se251  1  0.42784364  0.91299460  0.19036817  1
  Se  Se252  1  0.41815233  0.92141420  0.69260584  1
  Se  Se253  1  0.76034845  0.24605210  0.18741550  1
  Se  Se254  1  0.74821521  0.25260828  0.70054382  1
  Se  Se255  1  0.74993360  0.58825196  0.19697786  1
  Se  Se256  1  0.75265684  0.58630947  0.69589436  1
  Se  Se257  1  0.75200616  0.91704250  0.19798823  1
  Se  Se258  1  0.75595720  0.90858097  0.69305308  1
