# generated using pymatgen
data_In86Cu29Se144
_symmetry_space_group_name_H-M   'P 1'
_cell_length_a   17.58949133
_cell_length_b   17.58294853
_cell_length_c   23.44816109
_cell_angle_alpha   89.97328029
_cell_angle_beta   89.96075968
_cell_angle_gamma   90.00304664
_symmetry_Int_Tables_number   1
_chemical_formula_structural   In86Cu29Se144
_chemical_formula_sum   'In86 Cu29 Se144'
_cell_volume   7251.93035540
_cell_formula_units_Z   1
loop_
 _symmetry_equiv_pos_site_id
 _symmetry_equiv_pos_as_xyz
  1  'x, y, z'
loop_
 _atom_site_type_symbol
 _atom_site_label
 _atom_site_symmetry_multiplicity
 _atom_site_fract_x
 _atom_site_fract_y
 _atom_site_fract_z
 _atom_site_occupancy
  In  In0  1  0.00719748  0.17624650  0.11678594  1
  In  In1  1  -0.00603513  0.15044938  0.63327104  1
  In  In2  1  0.00548171  0.50316403  0.11965932  1
  In  In3  1  0.00076972  0.49545378  0.61803769  1
  In  In4  1  -0.00117579  0.82592197  0.12631379  1
  In  In5  1  0.01350579  0.83047478  0.62697198  1
  In  In6  1  0.33013893  0.17846601  0.11860516  1
  In  In7  1  0.33884319  0.18747068  0.62759288  1
  In  In8  1  0.34007887  0.50490106  0.11907285  1
  In  In9  1  0.33590693  0.50322637  0.62596616  1
  In  In10  1  0.31810130  0.82301672  0.12759486  1
  In  In11  1  0.32777723  0.82108805  0.61824011  1
  In  In12  1  0.66971618  0.16128610  0.13364544  1
  In  In13  1  0.67442447  0.17578374  0.62602996  1
  In  In14  1  0.66758963  0.50041527  0.12076206  1
  In  In15  1  0.66571273  0.49678931  0.61811865  1
  In  In16  1  0.67551249  0.82403405  0.13491522  1
  In  In17  1  0.65737445  0.84596440  0.61273645  1
  In  In18  1  0.17178369  -0.00448398  0.38385756  1
  In  In19  1  0.15302082  0.00837706  0.87969339  1
  In  In20  1  0.17291986  0.33119048  0.38303065  1
  In  In21  1  0.17295035  0.33362767  0.88070013  1
  In  In22  1  0.16396248  0.66878110  0.36971990  1
  In  In23  1  0.17684177  0.65453562  0.88339363  1
  In  In24  1  0.49940032  -0.00521591  0.37560125  1
  In  In25  1  0.51234539  0.00024005  0.87429382  1
  In  In26  1  0.51745325  0.33596971  0.37149094  1
  In  In27  1  0.51288092  0.35009585  0.87140950  1
  In  In28  1  0.49857841  0.66551339  0.37390204  1
  In  In29  1  0.48512944  0.65495341  0.86986082  1
  In  In30  1  0.82871295  0.01072880  0.37252085  1
  In  In31  1  0.84077591  -0.00520288  0.88223989  1
  In  In32  1  0.82737143  0.34725452  0.37481745  1
  In  In33  1  0.82217662  0.33557622  0.88221023  1
  In  In34  1  0.82223487  0.65629073  0.36334916  1
  In  In35  1  0.83809981  0.66116592  0.88464620  1
  In  In36  1  0.00607236  0.17326827  0.37695671  1
  In  In37  1  0.00185909  0.16092519  0.87741912  1
  In  In38  1  -0.00937455  0.50807482  0.37802983  1
  In  In39  1  -0.00258254  0.50209923  0.88073895  1
  In  In40  1  0.01601701  0.82635863  0.37387635  1
  In  In41  1  -0.00451767  0.83857691  0.88235146  1
  In  In42  1  0.32947699  0.15690533  0.37821864  1
  In  In43  1  0.31795165  0.17331321  0.87679506  1
  In  In44  1  0.32381486  0.51245077  0.38023147  1
  In  In45  1  0.33238929  0.49839368  0.87561086  1
  In  In46  1  0.33615201  0.82728177  0.37747529  1
  In  In47  1  0.33278080  0.81305287  0.87322448  1
  In  In48  1  0.65717891  0.16908209  0.35580666  1
  In  In49  1  0.66758791  0.18943229  0.87918046  1
  In  In50  1  0.66580321  0.50029552  0.37350824  1
  In  In51  1  0.68275065  0.47305857  0.90209694  1
  In  In52  1  0.66258770  0.83030634  0.37073593  1
  In  In53  1  0.67349280  0.84137377  0.88016216  1
  In  In54  1  0.16356207  -0.00606738  0.11988927  1
  In  In55  1  0.16204398  -0.00746923  0.62404984  1
  In  In56  1  0.18007844  0.33754351  0.10556669  1
  In  In57  1  0.17484694  0.34574877  0.62071013  1
  In  In58  1  0.16652927  0.66588152  0.13329418  1
  In  In59  1  0.17298999  0.67495323  0.61794727  1
  In  In60  1  0.51140832  0.00928213  0.13082844  1
  In  In61  1  0.50799898  -0.00950023  0.61616824  1
  In  In62  1  0.49986672  0.34457371  0.12067501  1
  In  In63  1  0.49115551  0.34371049  0.63361177  1
  In  In64  1  0.50960647  0.65660744  0.13655483  1
  In  In65  1  0.49145982  0.65332113  0.61218645  1
  In  In66  1  0.83123090  -0.00816360  0.12240322  1
  In  In67  1  0.83313002  0.01530484  0.62872897  1
  In  In68  1  0.81748280  0.32430406  0.10529352  1
  In  In69  1  0.82077452  0.33213141  0.63433580  1
  In  In70  1  0.83216915  0.66517121  0.12346015  1
  In  In71  1  0.84543821  0.66227429  0.62133615  1
  In  In72  1  0.00501320  0.66221431  0.76108402  1
  In  In73  1  0.32900974  0.00580015  0.75302791  1
  In  In74  1  0.34091435  0.33717519  0.23982329  1
  In  In75  1  0.66823518  0.00501766  0.74556149  1
  In  In76  1  0.83277113  0.17171729  0.50781325  1
  In  In77  1  0.49633661  0.17131827  0.00088231  1
  In  In78  1  0.66299577  0.66175129  0.74609100  1
  In  In79  1  0.34026068  -0.00446643  0.25617687  1
  In  In80  1  0.83325519  0.82976749  0.49584071  1
  In  In81  1  -0.00326207  -0.00729596  0.24515271  1
  In  In82  1  -0.00156832  0.33345375  0.75613811  1
  In  In83  1  0.49654227  0.16758239  0.49520257  1
  In  In84  1  -0.00387625  0.33854457  0.24478251  1
  In  In85  1  0.50042864  0.82961716  -0.00055961  1
  Cu  Cu86  1  0.00457544  0.66047846  0.49707591  1
  Cu  Cu87  1  0.32990450  0.66240396  0.00211145  1
  Cu  Cu88  1  0.50391459  0.50097065  0.74788714  1
  Cu  Cu89  1  0.50017745  0.50357688  0.25084769  1
  Cu  Cu90  1  0.00333384  0.00029086  0.00315738  1
  Cu  Cu91  1  0.67902677  0.00026768  0.00636780  1
  Cu  Cu92  1  0.33472888  0.66555151  0.49683907  1
  Cu  Cu93  1  0.66029958  0.66667223  0.00813381  1
  Cu  Cu94  1  0.00741969  0.33320241  0.49964219  1
  Cu  Cu95  1  0.49885727  0.83176494  0.25554177  1
  Cu  Cu96  1  0.66734319  0.66217291  0.48989241  1
  Cu  Cu97  1  0.16009266  0.50494683  0.25146289  1
  Cu  Cu98  1  0.16856022  0.16371911  0.24720456  1
  Cu  Cu99  1  0.32749535  -0.00750495  -0.00166101  1
  Cu  Cu100  1  0.50247878  0.17712840  0.75383129  1
  Cu  Cu101  1  0.82868379  0.17076106  0.24331633  1
  Cu  Cu102  1  0.82990471  0.83203565  0.24668778  1
  Cu  Cu103  1  0.32263710  0.00033177  0.50167026  1
  Cu  Cu104  1  0.82509446  0.49872252  0.24428785  1
  Cu  Cu105  1  0.16881621  0.83320970  0.74675869  1
  Cu  Cu106  1  0.16303478  0.17253846  0.75433359  1
  Cu  Cu107  1  0.00237799  0.67182784  0.00422807  1
  Cu  Cu108  1  -0.00137135  0.33200445  -0.00653501  1
  Cu  Cu109  1  0.33629222  0.34309140  0.50430109  1
  Cu  Cu110  1  0.49343700  0.82595215  0.74237602  1
  Cu  Cu111  1  0.17700393  0.50682647  0.74859031  1
  Cu  Cu112  1  0.66832746  0.33648453  0.49882811  1
  Cu  Cu113  1  0.00570585  -0.00405565  0.50515438  1
  Cu  Cu114  1  0.83705123  0.83623473  0.75710432  1
  Se  Se115  1  0.08847430  0.08504539  0.05384786  1
  Se  Se116  1  0.08190401  0.08431091  0.55948213  1
  Se  Se117  1  0.08004561  0.41515678  0.04939393  1
  Se  Se118  1  0.08970181  0.42135439  0.54951668  1
  Se  Se119  1  0.08866218  0.74903606  0.05930701  1
  Se  Se120  1  0.08137872  0.74996576  0.55022683  1
  Se  Se121  1  0.41024057  0.07019745  0.05834365  1
  Se  Se122  1  0.40639146  0.07991325  0.56086690  1
  Se  Se123  1  0.38385817  0.38683910  0.06211613  1
  Se  Se124  1  0.42286929  0.42310909  0.55587110  1
  Se  Se125  1  0.41458113  0.74082313  0.06208937  1
  Se  Se126  1  0.41941691  0.75162510  0.54858848  1
  Se  Se127  1  0.75503751  0.08839723  0.06017058  1
  Se  Se128  1  0.73572908  0.07372562  0.55470047  1
  Se  Se129  1  0.75724892  0.43323335  0.04816894  1
  Se  Se130  1  0.75605433  0.41187447  0.55463233  1
  Se  Se131  1  0.74747812  0.75173294  0.05545289  1
  Se  Se132  1  0.74244964  0.73941546  0.55771795  1
  Se  Se133  1  0.24527476  0.23698981  0.04214698  1
  Se  Se134  1  0.25362695  0.25478242  0.55348434  1
  Se  Se135  1  0.24464556  0.58405660  0.05870304  1
  Se  Se136  1  0.25305712  0.58403338  0.55483509  1
  Se  Se137  1  0.24873402  0.90936762  0.05413824  1
  Se  Se138  1  0.24533214  0.91172004  0.55543913  1
  Se  Se139  1  0.59070222  0.25281928  0.06136253  1
  Se  Se140  1  0.58489417  0.25707942  0.55851219  1
  Se  Se141  1  0.57404905  0.58104953  0.05518877  1
  Se  Se142  1  0.58655386  0.57989625  0.54812798  1
  Se  Se143  1  0.59067542  0.91937189  0.06013011  1
  Se  Se144  1  0.57656516  0.91557009  0.53851634  1
  Se  Se145  1  0.91740901  0.24710458  0.04730127  1
  Se  Se146  1  0.92731609  0.25879999  0.56570736  1
  Se  Se147  1  0.91777308  0.58577291  0.05415204  1
  Se  Se148  1  0.91824254  0.57915766  0.54916315  1
  Se  Se149  1  0.92225263  0.91502433  0.05761090  1
  Se  Se150  1  0.91794641  0.92044508  0.56297814  1
  Se  Se151  1  0.08892961  0.24550335  0.44933495  1
  Se  Se152  1  0.08424234  0.24813876  0.94276886  1
  Se  Se153  1  0.08796911  0.58013859  0.44141682  1
  Se  Se154  1  0.08017584  0.58468180  0.94828333  1
  Se  Se155  1  0.08373258  0.91272208  0.44820076  1
  Se  Se156  1  0.08589746  0.91504261  0.94965469  1
  Se  Se157  1  0.40878637  0.26322477  0.43666197  1
  Se  Se158  1  0.41512917  0.25752366  0.93401272  1
  Se  Se159  1  0.42062452  0.58160734  0.44620897  1
  Se  Se160  1  0.41476962  0.58037001  0.94855131  1
  Se  Se161  1  0.40721344  0.92430671  0.44350203  1
  Se  Se162  1  0.41196524  0.92079559  0.93592092  1
  Se  Se163  1  0.74239737  0.25021230  0.43816294  1
  Se  Se164  1  0.75095845  0.24968115  0.95567671  1
  Se  Se165  1  0.75545372  0.57820446  0.44299968  1
  Se  Se166  1  0.74698541  0.58818661  0.95247116  1
  Se  Se167  1  0.74509529  0.92447153  0.44029559  1
  Se  Se168  1  0.75711448  0.91257745  0.95247689  1
  Se  Se169  1  0.24275247  0.08961026  0.45160152  1
  Se  Se170  1  0.24975445  0.08006357  0.94483132  1
  Se  Se171  1  0.24968480  0.42114535  0.44851261  1
  Se  Se172  1  0.23568618  0.43393914  0.94436678  1
  Se  Se173  1  0.24821837  0.74617385  0.44311571  1
  Se  Se174  1  0.24949976  0.75020383  0.95067736  1
  Se  Se175  1  0.59299649  0.08405137  0.43750926  1
  Se  Se176  1  0.59478143  0.07770739  0.94647964  1
  Se  Se177  1  0.58396453  0.41950943  0.44676913  1
  Se  Se178  1  0.57088155  0.41712108  0.95868601  1
  Se  Se179  1  0.58350839  0.74955993  0.44244016  1
  Se  Se180  1  0.58731571  0.74011424  0.93619832  1
  Se  Se181  1  0.92504826  0.07801060  0.44599431  1
  Se  Se182  1  0.91916492  0.08257126  0.94960431  1
  Se  Se183  1  0.92019123  0.41153075  0.44520586  1
  Se  Se184  1  0.91338268  0.41827551  0.94611571  1
  Se  Se185  1  0.92060592  0.73888031  0.43609303  1
  Se  Se186  1  0.91585109  0.75139263  0.94944168  1
  Se  Se187  1  0.24967250  0.24592880  0.30529815  1
  Se  Se188  1  0.24788984  0.25729359  0.80242037  1
  Se  Se189  1  0.24985606  0.58425163  0.30181097  1
  Se  Se190  1  0.25730383  0.58962413  0.80442674  1
  Se  Se191  1  0.24098540  0.90907980  0.30828130  1
  Se  Se192  1  0.24483619  0.91130057  0.81280894  1
  Se  Se193  1  0.58478242  0.26252857  0.29233885  1
  Se  Se194  1  0.58910058  0.25996122  0.80250259  1
  Se  Se195  1  0.58466218  0.58541027  0.30491272  1
  Se  Se196  1  0.58511576  0.57247387  0.81322712  1
  Se  Se197  1  0.58231975  0.91922919  0.30362559  1
  Se  Se198  1  0.57789295  0.90333364  0.80140739  1
  Se  Se199  1  0.90920740  0.24466358  0.30809966  1
  Se  Se200  1  0.90790644  0.24529929  0.81398310  1
  Se  Se201  1  0.91333965  0.57631096  0.29857190  1
  Se  Se202  1  0.90333103  0.57201789  0.80680079  1
  Se  Se203  1  0.90866296  0.90833782  0.31219985  1
  Se  Se204  1  0.92108805  0.91940756  0.80709999  1
  Se  Se205  1  0.08855369  0.08468600  0.30721601  1
  Se  Se206  1  0.08087631  0.08381397  0.80150811  1
  Se  Se207  1  0.08812393  0.41753852  0.31158338  1
  Se  Se208  1  0.09169627  0.42969287  0.80766983  1
  Se  Se209  1  0.07509815  0.74077915  0.29850629  1
  Se  Se210  1  0.09438043  0.75645616  0.81563230  1
  Se  Se211  1  0.42814140  0.09639510  0.30737191  1
  Se  Se212  1  0.42608669  0.09246803  0.81275646  1
  Se  Se213  1  0.41829330  0.42397371  0.31116501  1
  Se  Se214  1  0.41860556  0.42118085  0.80418219  1
  Se  Se215  1  0.41347543  0.74736918  0.30441755  1
  Se  Se216  1  0.41440741  0.74320397  0.79767570  1
  Se  Se217  1  0.75060197  0.08339255  0.29749917  1
  Se  Se218  1  0.74597015  0.08317049  0.81930083  1
  Se  Se219  1  0.74419558  0.41580855  0.30059471  1
  Se  Se220  1  0.74414998  0.41903874  0.81178012  1
  Se  Se221  1  0.74524960  0.74994285  0.30072576  1
  Se  Se222  1  0.75417907  0.75238212  0.81010779  1
  Se  Se223  1  0.25109791  0.08403528  0.18971144  1
  Se  Se224  1  0.24382000  0.09551692  0.68981482  1
  Se  Se225  1  0.23753094  0.42253958  0.19019573  1
  Se  Se226  1  0.25534735  0.41774936  0.69617534  1
  Se  Se227  1  0.25518516  0.74026206  0.20337468  1
  Se  Se228  1  0.25070490  0.74774399  0.69568961  1
  Se  Se229  1  0.58726049  0.08300101  0.20451629  1
  Se  Se230  1  0.56979832  0.09281422  0.68803216  1
  Se  Se231  1  0.58003677  0.42305824  0.19221460  1
  Se  Se232  1  0.58944851  0.41936747  0.69414271  1
  Se  Se233  1  0.58408601  0.74956019  0.20147906  1
  Se  Se234  1  0.57878545  0.75380274  0.68171346  1
  Se  Se235  1  0.91699433  0.09447866  0.18807284  1
  Se  Se236  1  0.90714158  0.08455245  0.70610705  1
  Se  Se237  1  0.90444126  0.41951411  0.18213876  1
  Se  Se238  1  0.91296956  0.42531700  0.69348169  1
  Se  Se239  1  0.91336650  0.74788488  0.19548856  1
  Se  Se240  1  0.91540732  0.75410405  0.69665449  1
  Se  Se241  1  0.09721632  0.25299313  0.18900477  1
  Se  Se242  1  0.08696799  0.25080670  0.68849212  1
  Se  Se243  1  0.07404514  0.58329734  0.19746916  1
  Se  Se244  1  0.08876580  0.58040524  0.68973614  1
  Se  Se245  1  0.09571597  0.90466456  0.19541267  1
  Se  Se246  1  0.08211518  0.91807167  0.69982420  1
  Se  Se247  1  0.42956809  0.23816731  0.18915967  1
  Se  Se248  1  0.41392581  0.25922708  0.70498945  1
  Se  Se249  1  0.41081490  0.58130853  0.19790598  1
  Se  Se250  1  0.42109190  0.58594975  0.69505025  1
  Se  Se251  1  0.42404161  0.90757398  0.18747214  1
  Se  Se252  1  0.41679574  0.91632469  0.68907481  1
  Se  Se253  1  0.75117497  0.26025662  0.19208926  1
  Se  Se254  1  0.75797699  0.23570518  0.70215525  1
  Se  Se255  1  0.74394619  0.58663255  0.19249377  1
  Se  Se256  1  0.75945222  0.57754236  0.68828180  1
  Se  Se257  1  0.74881367  0.92212314  0.19845014  1
  Se  Se258  1  0.75578030  0.90531321  0.68922338  1
