# generated using pymatgen
data_In86Cu29Se144
_symmetry_space_group_name_H-M   'P 1'
_cell_length_a   17.58232912
_cell_length_b   17.58412866
_cell_length_c   23.44848617
_cell_angle_alpha   89.99632280
_cell_angle_beta   90.00588764
_cell_angle_gamma   89.98551325
_symmetry_Int_Tables_number   1
_chemical_formula_structural   In86Cu29Se144
_chemical_formula_sum   'In86 Cu29 Se144'
_cell_volume   7249.56671659
_cell_formula_units_Z   1
loop_
 _symmetry_equiv_pos_site_id
 _symmetry_equiv_pos_as_xyz
  1  'x, y, z'
loop_
 _atom_site_type_symbol
 _atom_site_label
 _atom_site_symmetry_multiplicity
 _atom_site_fract_x
 _atom_site_fract_y
 _atom_site_fract_z
 _atom_site_occupancy
  In  In0  1  0.00894277  0.17825824  0.12279985  1
  In  In1  1  0.00179109  0.16716453  0.63559182  1
  In  In2  1  0.00217947  0.49329906  0.12481560  1
  In  In3  1  -0.00070664  0.49748738  0.62705724  1
  In  In4  1  0.00912619  0.82070376  0.12102387  1
  In  In5  1  0.00194848  0.82876276  0.63725282  1
  In  In6  1  0.34769692  0.16348859  0.12480446  1
  In  In7  1  0.34280676  0.16331535  0.62913325  1
  In  In8  1  0.33572089  0.49778418  0.12540066  1
  In  In9  1  0.31997366  0.48558887  0.60825789  1
  In  In10  1  0.33258319  0.82177895  0.11255426  1
  In  In11  1  0.34728005  0.83616658  0.62258907  1
  In  In12  1  0.64727545  0.16511012  0.12725230  1
  In  In13  1  0.64428125  0.18496269  0.63429235  1
  In  In14  1  0.66743150  0.50768748  0.12917956  1
  In  In15  1  0.64438999  0.47666354  0.60432530  1
  In  In16  1  0.65333941  0.84723869  0.13652335  1
  In  In17  1  0.66188090  0.84640711  0.62668193  1
  In  In18  1  0.16733344  -0.00024713  0.37561456  1
  In  In19  1  0.16728454  -0.00576567  0.86803570  1
  In  In20  1  0.18817853  0.35303837  0.36664210  1
  In  In21  1  0.18078156  0.34759061  0.85784163  1
  In  In22  1  0.16385365  0.65011295  0.37205312  1
  In  In23  1  0.17019560  0.67012816  0.88166811  1
  In  In24  1  0.50299147  -0.01434503  0.38664740  1
  In  In25  1  0.50226624  0.00258645  0.87110815  1
  In  In26  1  0.47682132  0.35086665  0.40327887  1
  In  In27  1  0.50225466  0.33677455  0.87794222  1
  In  In28  1  0.49895218  0.66699568  0.37077403  1
  In  In29  1  0.48400240  0.66946219  0.89418379  1
  In  In30  1  0.82309025  0.01043657  0.37461367  1
  In  In31  1  0.83454521  0.00223282  0.86647503  1
  In  In32  1  0.84368455  0.33047442  0.37767070  1
  In  In33  1  0.83013153  0.33627008  0.86528617  1
  In  In34  1  0.81543277  0.66995096  0.37039823  1
  In  In35  1  0.83853936  0.65191688  0.87448295  1
  In  In36  1  -0.01317500  0.17564550  0.37784969  1
  In  In37  1  0.00393629  0.17107937  0.86369840  1
  In  In38  1  0.01364461  0.48698193  0.38404588  1
  In  In39  1  0.01572606  0.51314727  0.85413499  1
  In  In40  1  -0.00008947  0.83646799  0.37601664  1
  In  In41  1  0.01245310  0.84069799  0.86772237  1
  In  In42  1  0.33397923  0.18117657  0.38292241  1
  In  In43  1  0.34930962  0.17965666  0.86702716  1
  In  In44  1  0.33067536  0.50274492  0.37629438  1
  In  In45  1  0.33955216  0.49684625  0.88347661  1
  In  In46  1  0.35749343  0.83255931  0.37408634  1
  In  In47  1  0.32879235  0.83631890  0.88116621  1
  In  In48  1  0.66042998  0.16218522  0.37181189  1
  In  In49  1  0.66367664  0.16761482  0.86974033  1
  In  In50  1  0.65065621  0.50659942  0.38642774  1
  In  In51  1  0.65318393  0.48906703  0.87192066  1
  In  In52  1  0.65400799  0.81762630  0.35791251  1
  In  In53  1  0.64960178  0.83409986  0.87610084  1
  In  In54  1  0.18262955  -0.00579129  0.12041420  1
  In  In55  1  0.17297147  -0.00518164  0.63698562  1
  In  In56  1  0.16417932  0.34789120  0.12557782  1
  In  In57  1  0.16617220  0.34341583  0.63562715  1
  In  In58  1  0.18546052  0.67076798  0.10738578  1
  In  In59  1  0.17009896  0.64385518  0.63338997  1
  In  In60  1  0.50626866  0.00785377  0.12049398  1
  In  In61  1  0.49526342  0.00927049  0.62155611  1
  In  In62  1  0.49576089  0.31780841  0.11882399  1
  In  In63  1  0.49651141  0.33379848  0.62381681  1
  In  In64  1  0.49524938  0.66390584  0.12440986  1
  In  In65  1  0.49185972  0.66311078  0.61746598  1
  In  In66  1  0.82147020  -0.00776650  0.12727072  1
  In  In67  1  0.82924950  0.00344030  0.63415334  1
  In  In68  1  0.83735199  0.34722642  0.12836290  1
  In  In69  1  0.81906780  0.34255724  0.62592253  1
  In  In70  1  0.82982696  0.65955040  0.13321166  1
  In  In71  1  0.84179209  0.65740595  0.62774844  1
  In  In72  1  0.17326929  0.17046591  -0.01195377  1
  In  In73  1  0.82830125  0.49831677  0.00432248  1
  In  In74  1  0.33582793  0.00200705  0.25046501  1
  In  In75  1  0.83050097  0.16843999  -0.01488413  1
  In  In76  1  0.17887048  0.82227807  0.51437543  1
  In  In77  1  -0.00659672  0.00399354  0.25679630  1
  In  In78  1  0.82700467  0.16876584  0.50523007  1
  In  In79  1  -0.00234616  0.66206021  0.24541509  1
  In  In80  1  0.83257331  0.82959838  0.00640520  1
  In  In81  1  0.33330274  0.66091330  0.75768573  1
  In  In82  1  0.66191321  0.33313774  0.25490988  1
  In  In83  1  0.66862940  0.66116548  0.75318784  1
  In  In84  1  0.16981645  0.17455336  0.50348962  1
  In  In85  1  0.82813176  0.82722973  0.49642543  1
  Cu  Cu86  1  0.01367602  -0.00728613  -0.00500536  1
  Cu  Cu87  1  0.65895924  -0.00430103  0.50131057  1
  Cu  Cu88  1  0.50291787  0.16688886  0.74906150  1
  Cu  Cu89  1  0.00038216  0.65254636  0.50277547  1
  Cu  Cu90  1  0.49798355  0.49410704  0.74923601  1
  Cu  Cu91  1  0.17084102  0.82895925  0.24045529  1
  Cu  Cu92  1  0.83090823  0.16302165  0.74757153  1
  Cu  Cu93  1  0.00848594  0.66786622  -0.00541059  1
  Cu  Cu94  1  0.66260590  0.67246033  0.49480136  1
  Cu  Cu95  1  0.83475594  0.49953234  0.25574049  1
  Cu  Cu96  1  0.66278688  0.00207397  -0.00279008  1
  Cu  Cu97  1  0.83404564  0.83285170  0.75105866  1
  Cu  Cu98  1  0.17489145  0.49906127  0.24815931  1
  Cu  Cu99  1  0.50185732  0.84149993  0.74767493  1
  Cu  Cu100  1  0.00443777  0.33886683  0.50304418  1
  Cu  Cu101  1  0.83185606  0.16968487  0.25214661  1
  Cu  Cu102  1  0.33655687  0.66780762  0.49620283  1
  Cu  Cu103  1  0.49879161  0.82914748  0.24651632  1
  Cu  Cu104  1  0.17417640  0.16570804  0.75058792  1
  Cu  Cu105  1  0.16397493  0.18410492  0.25018711  1
  Cu  Cu106  1  -0.00391637  0.34261944  -0.00591416  1
  Cu  Cu107  1  0.65745449  0.66547015  0.00597608  1
  Cu  Cu108  1  0.49533996  0.49809024  0.25653040  1
  Cu  Cu109  1  0.00262733  -0.00782333  0.50888362  1
  Cu  Cu110  1  0.17162813  0.82753287  0.75395596  1
  Cu  Cu111  1  0.33554091  0.33318761  -0.00203022  1
  Cu  Cu112  1  0.34218907  -0.00345751  -0.00290878  1
  Cu  Cu113  1  0.82940472  0.49552802  0.74487654  1
  Cu  Cu114  1  0.49657371  0.16912227  0.25271062  1
  Se  Se115  1  0.08541469  0.07983318  0.05591718  1
  Se  Se116  1  0.08246081  0.07667015  0.56354847  1
  Se  Se117  1  0.08174455  0.41948374  0.04968685  1
  Se  Se118  1  0.08779118  0.41827696  0.55862574  1
  Se  Se119  1  0.09124366  0.75331202  0.04617848  1
  Se  Se120  1  0.07500522  0.73714566  0.56392861  1
  Se  Se121  1  0.42050332  0.08497579  0.04960945  1
  Se  Se122  1  0.43003236  0.10525364  0.55068754  1
  Se  Se123  1  0.41765695  0.41158030  0.05637079  1
  Se  Se124  1  0.43668898  0.43587373  0.55552676  1
  Se  Se125  1  0.43141048  0.75460345  0.05069601  1
  Se  Se126  1  0.41825807  0.75350684  0.54807822  1
  Se  Se127  1  0.74742934  0.08146885  0.05493437  1
  Se  Se128  1  0.73891068  0.07468012  0.56172313  1
  Se  Se129  1  0.73605119  0.40546047  0.05925415  1
  Se  Se130  1  0.75423635  0.41746478  0.54582375  1
  Se  Se131  1  0.74027981  0.74311536  0.06602870  1
  Se  Se132  1  0.74142333  0.74292558  0.56369714  1
  Se  Se133  1  0.25494352  0.25214148  0.05980514  1
  Se  Se134  1  0.25623203  0.25983007  0.56641608  1
  Se  Se135  1  0.23494327  0.55406104  0.05512049  1
  Se  Se136  1  0.24826820  0.58904772  0.54902672  1
  Se  Se137  1  0.25367758  0.91423840  0.04651092  1
  Se  Se138  1  0.26136907  0.93093531  0.55836601  1
  Se  Se139  1  0.58520256  0.24443994  0.05001507  1
  Se  Se140  1  0.58147233  0.25445408  0.55245211  1
  Se  Se141  1  0.57975329  0.57620553  0.05729699  1
  Se  Se142  1  0.58092529  0.58840232  0.54911348  1
  Se  Se143  1  0.58509473  0.91736112  0.05372803  1
  Se  Se144  1  0.57420528  0.91470815  0.55494526  1
  Se  Se145  1  0.91805477  0.25869771  0.05266626  1
  Se  Se146  1  0.92562270  0.25397237  0.56126859  1
  Se  Se147  1  0.92437279  0.59487572  0.05757621  1
  Se  Se148  1  0.91222157  0.57393479  0.55396894  1
  Se  Se149  1  0.92810101  0.92534363  0.06023935  1
  Se  Se150  1  0.91658418  0.91375144  0.56319845  1
  Se  Se151  1  0.08018978  0.25930517  0.43906081  1
  Se  Se152  1  0.07734445  0.26114082  0.93629244  1
  Se  Se153  1  0.09140213  0.57720393  0.45067319  1
  Se  Se154  1  0.08147014  0.57733208  0.94058263  1
  Se  Se155  1  0.08466005  0.91463583  0.44999351  1
  Se  Se156  1  0.09608064  0.90977765  0.94356798  1
  Se  Se157  1  0.42236515  0.23557792  0.46080384  1
  Se  Se158  1  0.42094263  0.24898700  0.94763540  1
  Se  Se159  1  0.41990621  0.58489757  0.44239478  1
  Se  Se160  1  0.39763164  0.58965611  0.95819119  1
  Se  Se161  1  0.40165995  0.92341008  0.45139742  1
  Se  Se162  1  0.42519300  0.91553217  0.94178209  1
  Se  Se163  1  0.74258963  0.25408267  0.43950886  1
  Se  Se164  1  0.73817595  0.26659936  0.93951005  1
  Se  Se165  1  0.74869888  0.58782259  0.44582424  1
  Se  Se166  1  0.73775194  0.58924469  0.94319028  1
  Se  Se167  1  0.73913073  0.91937295  0.43867869  1
  Se  Se168  1  0.74881006  0.92153275  0.94144733  1
  Se  Se169  1  0.25410664  0.07738812  0.44392384  1
  Se  Se170  1  0.26438332  0.07733782  0.93379675  1
  Se  Se171  1  0.25566537  0.41751612  0.44877017  1
  Se  Se172  1  0.24693135  0.41004613  0.94455332  1
  Se  Se173  1  0.25303859  0.74548406  0.43482409  1
  Se  Se174  1  0.27059085  0.73309649  0.94629774  1
  Se  Se175  1  0.58353435  0.08272234  0.44512684  1
  Se  Se176  1  0.58440028  0.08625618  0.94146828  1
  Se  Se177  1  0.59361950  0.40674105  0.45378723  1
  Se  Se178  1  0.57019990  0.42964379  0.94880194  1
  Se  Se179  1  0.57982390  0.75511410  0.44043108  1
  Se  Se180  1  0.58073359  0.75269579  0.95136581  1
  Se  Se181  1  0.92349723  0.07271707  0.44819340  1
  Se  Se182  1  0.93192232  0.07414979  0.93845002  1
  Se  Se183  1  0.91617778  0.41687450  0.44931738  1
  Se  Se184  1  0.91661967  0.42235313  0.93417063  1
  Se  Se185  1  0.92618766  0.73683089  0.44094143  1
  Se  Se186  1  0.92140753  0.74670906  0.93886637  1
  Se  Se187  1  0.25795182  0.25263354  0.30408462  1
  Se  Se188  1  0.25955996  0.25276845  0.79772383  1
  Se  Se189  1  0.25494854  0.58572567  0.30077972  1
  Se  Se190  1  0.24158385  0.57048030  0.81230277  1
  Se  Se191  1  0.24478600  0.90671661  0.30749816  1
  Se  Se192  1  0.25719304  0.91308626  0.80275194  1
  Se  Se193  1  0.56588471  0.25459317  0.31671032  1
  Se  Se194  1  0.58087820  0.25436407  0.80432952  1
  Se  Se195  1  0.58457653  0.58101245  0.30458375  1
  Se  Se196  1  0.56434121  0.58592893  0.81197046  1
  Se  Se197  1  0.57376201  0.91862481  0.30288255  1
  Se  Se198  1  0.58848676  0.92110973  0.80062805  1
  Se  Se199  1  0.91821157  0.25396316  0.29992720  1
  Se  Se200  1  0.91217823  0.24919462  0.80005215  1
  Se  Se201  1  0.91786362  0.57752102  0.31635014  1
  Se  Se202  1  0.91176744  0.58413125  0.79447531  1
  Se  Se203  1  0.90277138  0.90930600  0.31063480  1
  Se  Se204  1  0.91971639  0.91644962  0.80265087  1
  Se  Se205  1  0.08978889  0.09867543  0.31076705  1
  Se  Se206  1  0.08765359  0.08217172  0.80128398  1
  Se  Se207  1  0.08664983  0.41926744  0.30206710  1
  Se  Se208  1  0.06267819  0.39343017  0.80298147  1
  Se  Se209  1  0.08851423  0.75664392  0.30537149  1
  Se  Se210  1  0.08815294  0.74354709  0.80598925  1
  Se  Se211  1  0.42018840  0.08772452  0.31605678  1
  Se  Se212  1  0.41807436  0.08237870  0.80085537  1
  Se  Se213  1  0.41799067  0.41322420  0.31310394  1
  Se  Se214  1  0.41523750  0.41715307  0.80876811  1
  Se  Se215  1  0.41430104  0.74487668  0.29751639  1
  Se  Se216  1  0.42722991  0.75679572  0.80926206  1
  Se  Se217  1  0.74528854  0.08571408  0.29984652  1
  Se  Se218  1  0.74651697  0.08269802  0.80212645  1
  Se  Se219  1  0.75213066  0.42181685  0.31568007  1
  Se  Se220  1  0.74234642  0.41982811  0.80083587  1
  Se  Se221  1  0.75408004  0.75329464  0.29448291  1
  Se  Se222  1  0.75579772  0.75533281  0.81511086  1
  Se  Se223  1  0.24032793  0.09519922  0.19317679  1
  Se  Se224  1  0.25811700  0.08212638  0.69847509  1
  Se  Se225  1  0.25704120  0.41157004  0.19736991  1
  Se  Se226  1  0.25384258  0.43062504  0.69653027  1
  Se  Se227  1  0.25351610  0.74667204  0.18820563  1
  Se  Se228  1  0.25080500  0.75258318  0.68874338  1
  Se  Se229  1  0.57817249  0.08153442  0.20166669  1
  Se  Se230  1  0.58371263  0.07911605  0.69601850  1
  Se  Se231  1  0.57330655  0.41935421  0.19148922  1
  Se  Se232  1  0.58379936  0.41592866  0.69417969  1
  Se  Se233  1  0.58228673  0.74377424  0.19481774  1
  Se  Se234  1  0.57662380  0.75057048  0.69139921  1
  Se  Se235  1  0.91187966  0.09327079  0.18659061  1
  Se  Se236  1  0.92045866  0.07857951  0.70028680  1
  Se  Se237  1  0.91999407  0.42107283  0.20053962  1
  Se  Se238  1  0.91392973  0.41138503  0.69335675  1
  Se  Se239  1  0.90946762  0.76284938  0.19256909  1
  Se  Se240  1  0.91297186  0.74504219  0.69935553  1
  Se  Se241  1  0.08040960  0.26260293  0.19433807  1
  Se  Se242  1  0.08829969  0.24958252  0.69952128  1
  Se  Se243  1  0.09496460  0.58097565  0.18682807  1
  Se  Se244  1  0.07419743  0.58169117  0.69999227  1
  Se  Se245  1  0.08721140  0.91763528  0.19132262  1
  Se  Se246  1  0.08595052  0.91339936  0.70242095  1
  Se  Se247  1  0.41465039  0.25130501  0.19810581  1
  Se  Se248  1  0.41879710  0.25275039  0.69763107  1
  Se  Se249  1  0.41708984  0.57994301  0.19636315  1
  Se  Se250  1  0.41813669  0.57590660  0.69033836  1
  Se  Se251  1  0.41902429  0.91244092  0.18579574  1
  Se  Se252  1  0.41728546  0.92283335  0.69426910  1
  Se  Se253  1  0.75250461  0.24684863  0.18824124  1
  Se  Se254  1  0.74946714  0.24909320  0.69491643  1
  Se  Se255  1  0.74882944  0.58098472  0.20417641  1
  Se  Se256  1  0.74277719  0.57060766  0.68455526  1
  Se  Se257  1  0.74743890  0.91936780  0.20212190  1
  Se  Se258  1  0.74828678  0.91499789  0.69970114  1
