# generated using pymatgen
data_In86Cu29Se144
_symmetry_space_group_name_H-M   'P 1'
_cell_length_a   17.57689926
_cell_length_b   17.58001538
_cell_length_c   23.43738985
_cell_angle_alpha   90.01902656
_cell_angle_beta   90.00655931
_cell_angle_gamma   90.00730042
_symmetry_Int_Tables_number   1
_chemical_formula_structural   In86Cu29Se144
_chemical_formula_sum   'In86 Cu29 Se144'
_cell_volume   7242.20356374
_cell_formula_units_Z   1
loop_
 _symmetry_equiv_pos_site_id
 _symmetry_equiv_pos_as_xyz
  1  'x, y, z'
loop_
 _atom_site_type_symbol
 _atom_site_label
 _atom_site_symmetry_multiplicity
 _atom_site_fract_x
 _atom_site_fract_y
 _atom_site_fract_z
 _atom_site_occupancy
  In  In0  1  -0.00954898  0.15666609  0.12358363  1
  In  In1  1  -0.00569909  0.14730786  0.60234869  1
  In  In2  1  0.00849314  0.50664612  0.13195720  1
  In  In3  1  0.01771798  0.50503713  0.61744574  1
  In  In4  1  -0.00169413  0.83257134  0.13348817  1
  In  In5  1  0.00857097  0.82619739  0.62832403  1
  In  In6  1  0.33031398  0.16581169  0.12957288  1
  In  In7  1  0.30667350  0.15483039  0.60675444  1
  In  In8  1  0.34712353  0.48508407  0.13801793  1
  In  In9  1  0.34153476  0.50212429  0.61297678  1
  In  In10  1  0.33251684  0.83741429  0.13543549  1
  In  In11  1  0.31516023  0.84941369  0.62797166  1
  In  In12  1  0.66332338  0.16628899  0.13319256  1
  In  In13  1  0.66388751  0.14870744  0.61824151  1
  In  In14  1  0.64916445  0.51338154  0.13683392  1
  In  In15  1  0.65565578  0.50398472  0.61603359  1
  In  In16  1  0.66484562  0.83257694  0.13197771  1
  In  In17  1  0.67551976  0.84006803  0.62228107  1
  In  In18  1  0.16989318  0.00075314  0.38441980  1
  In  In19  1  0.17294476  0.00597995  0.86796958  1
  In  In20  1  0.18560034  0.32039932  0.38936778  1
  In  In21  1  0.15955591  0.32537573  0.87481539  1
  In  In22  1  0.16807170  0.66879910  0.38077163  1
  In  In23  1  0.17160125  0.66960397  0.86627277  1
  In  In24  1  0.49912750  0.01205194  0.35966131  1
  In  In25  1  0.50362215  0.00191156  0.86946379  1
  In  In26  1  0.50810707  0.33321379  0.36126843  1
  In  In27  1  0.49822926  0.33096621  0.88659008  1
  In  In28  1  0.48502684  0.65493078  0.36696592  1
  In  In29  1  0.49411464  0.66939297  0.88066572  1
  In  In30  1  0.83818383  0.00752423  0.38034915  1
  In  In31  1  0.83781492  0.00557816  0.87187618  1
  In  In32  1  0.81384126  0.32611919  0.36562459  1
  In  In33  1  0.82074122  0.33020541  0.88081809  1
  In  In34  1  0.83374880  0.65638273  0.36034600  1
  In  In35  1  0.84152024  0.66395736  0.87461449  1
  In  In36  1  0.01011939  0.14323174  0.38780675  1
  In  In37  1  0.00479020  0.15842216  0.88093025  1
  In  In38  1  0.00313441  0.51354953  0.37382764  1
  In  In39  1  -0.00532973  0.50983586  0.87141061  1
  In  In40  1  0.01835297  0.84963745  0.37620236  1
  In  In41  1  0.00152135  0.83754537  0.86564912  1
  In  In42  1  0.32866787  0.15636286  0.36058677  1
  In  In43  1  0.33860583  0.16195118  0.88113713  1
  In  In44  1  0.32968237  0.50071042  0.38008309  1
  In  In45  1  0.33737364  0.50942394  0.87521547  1
  In  In46  1  0.32910446  0.83220905  0.37406494  1
  In  In47  1  0.33354460  0.82799268  0.86833079  1
  In  In48  1  0.66352697  0.17021998  0.36625623  1
  In  In49  1  0.67251204  0.15917472  0.88519463  1
  In  In50  1  0.65583741  0.48288189  0.35647778  1
  In  In51  1  0.66414753  0.49391654  0.88119593  1
  In  In52  1  0.67291437  0.83780328  0.36567354  1
  In  In53  1  0.65368274  0.84375754  0.87669567  1
  In  In54  1  0.15520417  0.00539685  0.13356779  1
  In  In55  1  0.16864453  -0.00473030  0.61877944  1
  In  In56  1  0.18118686  0.32677294  0.13302383  1
  In  In57  1  0.16924962  0.32463583  0.60502046  1
  In  In58  1  0.16700279  0.66817991  0.13577645  1
  In  In59  1  0.16980159  0.67257819  0.62265476  1
  In  In60  1  0.48277312  0.02242832  0.14916680  1
  In  In61  1  0.50059396  0.00041857  0.62983976  1
  In  In62  1  0.49446971  0.32729109  0.13291517  1
  In  In63  1  0.48109226  0.33673021  0.61679610  1
  In  In64  1  0.50888512  0.65489229  0.13087990  1
  In  In65  1  0.49368504  0.65140142  0.61708937  1
  In  In66  1  0.82091134  0.01360005  0.13777657  1
  In  In67  1  0.83046885  0.00832671  0.62777830  1
  In  In68  1  0.83285208  0.31483863  0.12615733  1
  In  In69  1  0.84620404  0.32180285  0.62125262  1
  In  In70  1  0.82598020  0.66700362  0.13829188  1
  In  In71  1  0.83462246  0.68554139  0.62289220  1
  In  In72  1  -0.00177555  0.33451200  0.25783897  1
  In  In73  1  0.49605158  0.16794944  0.49356478  1
  In  In74  1  0.83769393  0.83670148  0.49149926  1
  In  In75  1  0.17285234  0.49138059  0.00232862  1
  In  In76  1  0.83028024  0.49524635  0.49194742  1
  In  In77  1  0.49446435  0.83926727  0.49413260  1
  In  In78  1  0.33006229  0.32883772  0.73816237  1
  In  In79  1  0.17114025  0.83666573  -0.00933318  1
  In  In80  1  0.82934772  0.83753414  0.01337526  1
  In  In81  1  0.82834000  0.49348273  0.00239675  1
  In  In82  1  0.66556122  0.67848742  0.75362877  1
  In  In83  1  0.66730627  0.33243964  0.75835009  1
  In  In84  1  0.50411842  0.83678819  0.00343441  1
  In  In85  1  0.00384410  0.33318396  0.74646988  1
  Cu  Cu86  1  0.00041670  0.66893955  0.00231904  1
  Cu  Cu87  1  0.16428600  0.16310627  0.25808789  1
  Cu  Cu88  1  0.49330982  0.50558724  0.25184577  1
  Cu  Cu89  1  0.84051562  0.51765155  0.74418036  1
  Cu  Cu90  1  0.83813832  0.84375127  0.74625817  1
  Cu  Cu91  1  0.84294202  0.82839482  0.25521021  1
  Cu  Cu92  1  0.34318342  0.65294832  0.00756727  1
  Cu  Cu93  1  0.16518325  0.83458223  0.25849071  1
  Cu  Cu94  1  0.16330784  0.16005814  0.74152418  1
  Cu  Cu95  1  0.49354199  0.50018994  0.74636495  1
  Cu  Cu96  1  -0.00390796  0.32773351  0.49271975  1
  Cu  Cu97  1  0.16728056  0.50600995  0.25759154  1
  Cu  Cu98  1  0.33047207  0.67034174  0.49825175  1
  Cu  Cu99  1  0.33856131  0.32550424  0.00847272  1
  Cu  Cu100  1  -0.00077889  0.67061304  0.49782201  1
  Cu  Cu101  1  0.33422088  0.00491862  0.00445630  1
  Cu  Cu102  1  0.83486863  0.16368156  0.74827870  1
  Cu  Cu103  1  0.17222233  0.51119675  0.74201974  1
  Cu  Cu104  1  0.66199174  0.33307324  0.48965464  1
  Cu  Cu105  1  0.49691463  0.15767134  0.74988551  1
  Cu  Cu106  1  0.16737679  0.83328922  0.74592149  1
  Cu  Cu107  1  0.49593933  0.83230834  0.25272836  1
  Cu  Cu108  1  0.00463424  0.32285105  0.00165239  1
  Cu  Cu109  1  0.66276392  0.00499250  0.00955874  1
  Cu  Cu110  1  -0.00198694  0.01171441  0.00284444  1
  Cu  Cu111  1  0.83744948  0.15838918  0.25464644  1
  Cu  Cu112  1  0.49603106  0.83129541  0.74614060  1
  Cu  Cu113  1  0.65642151  0.66216082  0.48778720  1
  Cu  Cu114  1  0.65795894  0.33126935  0.00861180  1
  Se  Se115  1  0.08811010  0.08765374  0.05590619  1
  Se  Se116  1  0.12063882  0.10982977  0.55577606  1
  Se  Se117  1  0.07869105  0.40587929  0.06303552  1
  Se  Se118  1  0.07828089  0.41198713  0.54609299  1
  Se  Se119  1  0.08394750  0.74934529  0.05840282  1
  Se  Se120  1  0.08360225  0.75105843  0.55172368  1
  Se  Se121  1  0.41749034  0.08292683  0.06098310  1
  Se  Se122  1  0.41209559  0.07205934  0.55429279  1
  Se  Se123  1  0.41872771  0.41392462  0.05838167  1
  Se  Se124  1  0.42187914  0.42238685  0.54150920  1
  Se  Se125  1  0.41139721  0.74815896  0.06303104  1
  Se  Se126  1  0.40998609  0.75101463  0.56024720  1
  Se  Se127  1  0.74968337  0.08840921  0.05929371  1
  Se  Se128  1  0.76031014  0.08842720  0.55071170  1
  Se  Se129  1  0.74172399  0.41010007  0.06779576  1
  Se  Se130  1  0.74310561  0.40633262  0.55764320  1
  Se  Se131  1  0.73922108  0.73747357  0.06077638  1
  Se  Se132  1  0.73770502  0.74153330  0.54709301  1
  Se  Se133  1  0.24773310  0.24575415  0.05594437  1
  Se  Se134  1  0.29247746  0.28282565  0.55404324  1
  Se  Se135  1  0.25534503  0.58168566  0.06687404  1
  Se  Se136  1  0.24832434  0.58608693  0.55334842  1
  Se  Se137  1  0.25217522  0.92202117  0.06036592  1
  Se  Se138  1  0.24500591  0.91224329  0.54520141  1
  Se  Se139  1  0.57896158  0.24572896  0.06286384  1
  Se  Se140  1  0.58726203  0.25673283  0.55838588  1
  Se  Se141  1  0.58128038  0.57996561  0.05396379  1
  Se  Se142  1  0.57594203  0.57814887  0.54241510  1
  Se  Se143  1  0.58078403  0.92840115  0.06975478  1
  Se  Se144  1  0.58964601  0.92461897  0.55550431  1
  Se  Se145  1  0.91515764  0.24343933  0.05171983  1
  Se  Se146  1  0.91206983  0.24332683  0.54360586  1
  Se  Se147  1  0.92039529  0.58810070  0.06013792  1
  Se  Se148  1  0.91431950  0.59071059  0.55597959  1
  Se  Se149  1  0.92359523  0.93018146  0.06597401  1
  Se  Se150  1  0.91896887  0.91517974  0.56399755  1
  Se  Se151  1  0.08559800  0.24401285  0.44693567  1
  Se  Se152  1  0.08960963  0.24234333  0.94836313  1
  Se  Se153  1  0.08373914  0.58398222  0.44979605  1
  Se  Se154  1  0.08321810  0.58874958  0.94382807  1
  Se  Se155  1  0.08769852  0.91971249  0.45595990  1
  Se  Se156  1  0.07250881  0.92802297  0.94102749  1
  Se  Se157  1  0.41407032  0.25272338  0.42733196  1
  Se  Se158  1  0.42014331  0.24185491  0.95213840  1
  Se  Se159  1  0.41573848  0.58585063  0.44886858  1
  Se  Se160  1  0.42521015  0.57493956  0.94969530  1
  Se  Se161  1  0.41160119  0.93332533  0.43387472  1
  Se  Se162  1  0.40708068  0.91913238  0.94176133  1
  Se  Se163  1  0.74546431  0.24552177  0.44244693  1
  Se  Se164  1  0.74515210  0.25151935  0.95357391  1
  Se  Se165  1  0.73934011  0.58160473  0.43167164  1
  Se  Se166  1  0.74606046  0.59277370  0.94280843  1
  Se  Se167  1  0.73698226  0.92473033  0.44361510  1
  Se  Se168  1  0.74196931  0.92510650  0.94758165  1
  Se  Se169  1  0.24886728  0.09955178  0.44296022  1
  Se  Se170  1  0.24844604  0.08055744  0.94578304  1
  Se  Se171  1  0.23605935  0.43257718  0.44934132  1
  Se  Se172  1  0.26347944  0.40266863  0.93948277  1
  Se  Se173  1  0.24877198  0.75657996  0.44849985  1
  Se  Se174  1  0.26410266  0.73232342  0.94503245  1
  Se  Se175  1  0.58845375  0.07734904  0.43835165  1
  Se  Se176  1  0.57915859  0.07768834  0.94657924  1
  Se  Se177  1  0.58048487  0.41679153  0.43770826  1
  Se  Se178  1  0.58165185  0.41733550  0.95141534  1
  Se  Se179  1  0.58117286  0.74902536  0.43117670  1
  Se  Se180  1  0.59507717  0.74178396  0.94609540  1
  Se  Se181  1  0.92027848  0.07253464  0.45776581  1
  Se  Se182  1  0.90919235  0.08737912  0.94789408  1
  Se  Se183  1  0.91844719  0.40622399  0.43063463  1
  Se  Se184  1  0.92848886  0.40800975  0.94119185  1
  Se  Se185  1  0.91902139  0.74048809  0.43217884  1
  Se  Se186  1  0.92304264  0.75395139  0.94520136  1
  Se  Se187  1  0.24700254  0.25504907  0.30156886  1
  Se  Se188  1  0.24222948  0.24185682  0.80371507  1
  Se  Se189  1  0.25208886  0.58894667  0.30981060  1
  Se  Se190  1  0.25698624  0.58416771  0.80158831  1
  Se  Se191  1  0.24881807  0.92148528  0.30830498  1
  Se  Se192  1  0.25021190  0.91315036  0.80371632  1
  Se  Se193  1  0.59794325  0.25934574  0.29365673  1
  Se  Se194  1  0.57304859  0.24008202  0.81225738  1
  Se  Se195  1  0.58352589  0.58887963  0.30038262  1
  Se  Se196  1  0.57903506  0.57522615  0.80711313  1
  Se  Se197  1  0.58239654  0.91683822  0.30071172  1
  Se  Se198  1  0.58084443  0.91511179  0.79866353  1
  Se  Se199  1  0.91894361  0.23459374  0.31759235  1
  Se  Se200  1  0.90984067  0.24962814  0.81012670  1
  Se  Se201  1  0.91839570  0.57163933  0.29637627  1
  Se  Se202  1  0.92515601  0.59686451  0.79863913  1
  Se  Se203  1  0.91523528  0.91514681  0.31341016  1
  Se  Se204  1  0.92097782  0.92623190  0.80158738  1
  Se  Se205  1  0.08392716  0.07434364  0.30789927  1
  Se  Se206  1  0.08104993  0.08557671  0.80298868  1
  Se  Se207  1  0.09430057  0.41742817  0.31660068  1
  Se  Se208  1  0.09475779  0.42985137  0.80604933  1
  Se  Se209  1  0.08218746  0.74883424  0.31025515  1
  Se  Se210  1  0.08423163  0.75038408  0.80161666  1
  Se  Se211  1  0.43481616  0.10888229  0.29188796  1
  Se  Se212  1  0.41022696  0.07996525  0.80549681  1
  Se  Se213  1  0.41293308  0.42270208  0.30724080  1
  Se  Se214  1  0.42013593  0.41384658  0.80722340  1
  Se  Se215  1  0.40991933  0.74989840  0.30359206  1
  Se  Se216  1  0.42130066  0.74450532  0.80343568  1
  Se  Se217  1  0.75089292  0.07717747  0.30701355  1
  Se  Se218  1  0.74916106  0.08753346  0.80616595  1
  Se  Se219  1  0.76140593  0.42313659  0.29447575  1
  Se  Se220  1  0.76433452  0.43401602  0.80615569  1
  Se  Se221  1  0.74883958  0.74658347  0.29964010  1
  Se  Se222  1  0.76027192  0.76682261  0.81314279  1
  Se  Se223  1  0.24609261  0.08226165  0.19909048  1
  Se  Se224  1  0.25219508  0.07894478  0.69177868  1
  Se  Se225  1  0.24591538  0.41995696  0.20288062  1
  Se  Se226  1  0.23990268  0.42253913  0.68171766  1
  Se  Se227  1  0.24845920  0.75342515  0.20149935  1
  Se  Se228  1  0.25298652  0.74918673  0.69574108  1
  Se  Se229  1  0.60431927  0.06463454  0.20058827  1
  Se  Se230  1  0.58789251  0.08046685  0.69798571  1
  Se  Se231  1  0.57499101  0.41733466  0.19973872  1
  Se  Se232  1  0.57716289  0.41779404  0.69052933  1
  Se  Se233  1  0.57982661  0.74982410  0.19798214  1
  Se  Se234  1  0.57580315  0.75329711  0.68247042  1
  Se  Se235  1  0.92424802  0.07681037  0.20261807  1
  Se  Se236  1  0.92332475  0.09038909  0.69074086  1
  Se  Se237  1  0.91495406  0.41568573  0.18714826  1
  Se  Se238  1  0.91329156  0.42763920  0.68643947  1
  Se  Se239  1  0.92218513  0.74310055  0.20001512  1
  Se  Se240  1  0.91720759  0.75171057  0.69853889  1
  Se  Se241  1  0.08341972  0.24166681  0.19423714  1
  Se  Se242  1  0.08786969  0.24561920  0.68174722  1
  Se  Se243  1  0.08251365  0.58809709  0.20465868  1
  Se  Se244  1  0.08205490  0.59060846  0.69248576  1
  Se  Se245  1  0.08147027  0.91401926  0.20089135  1
  Se  Se246  1  0.08601871  0.91892983  0.69279374  1
  Se  Se247  1  0.40269703  0.25406466  0.20042529  1
  Se  Se248  1  0.42070294  0.23275613  0.68432042  1
  Se  Se249  1  0.40966242  0.59184182  0.19877759  1
  Se  Se250  1  0.41071144  0.58152817  0.69280561  1
  Se  Se251  1  0.40835188  0.92065016  0.20684184  1
  Se  Se252  1  0.41427802  0.91678626  0.69435699  1
  Se  Se253  1  0.75459603  0.24435101  0.20297297  1
  Se  Se254  1  0.75299373  0.24651857  0.69044401  1
  Se  Se255  1  0.75351790  0.57247571  0.20076401  1
  Se  Se256  1  0.74914606  0.58558266  0.68596238  1
  Se  Se257  1  0.75845875  0.90668670  0.19741949  1
  Se  Se258  1  0.74831922  0.92168087  0.69576012  1
