# generated using pymatgen
data_In86Cu29Se144
_symmetry_space_group_name_H-M   'P 1'
_cell_length_a   17.57971509
_cell_length_b   17.58093672
_cell_length_c   23.43743036
_cell_angle_alpha   90.02197277
_cell_angle_beta   89.98934469
_cell_angle_gamma   89.96907783
_symmetry_Int_Tables_number   1
_chemical_formula_structural   In86Cu29Se144
_chemical_formula_sum   'In86 Cu29 Se144'
_cell_volume   7243.75469948
_cell_formula_units_Z   1
loop_
 _symmetry_equiv_pos_site_id
 _symmetry_equiv_pos_as_xyz
  1  'x, y, z'
loop_
 _atom_site_type_symbol
 _atom_site_label
 _atom_site_symmetry_multiplicity
 _atom_site_fract_x
 _atom_site_fract_y
 _atom_site_fract_z
 _atom_site_occupancy
  In  In0  1  0.00218197  0.16818544  0.13001366  1
  In  In1  1  0.00430285  0.15599809  0.62934227  1
  In  In2  1  -0.00050148  0.48573230  0.12612507  1
  In  In3  1  -0.01574761  0.52020531  0.63993772  1
  In  In4  1  -0.00639892  0.84365026  0.13633090  1
  In  In5  1  -0.00317337  0.83188064  0.61887298  1
  In  In6  1  0.32432613  0.16009986  0.12862836  1
  In  In7  1  0.32442216  0.15190680  0.61766764  1
  In  In8  1  0.33900267  0.51396507  0.12084437  1
  In  In9  1  0.32963836  0.49894460  0.62659517  1
  In  In10  1  0.32840078  0.83216662  0.15744989  1
  In  In11  1  0.34617427  0.84771755  0.61128385  1
  In  In12  1  0.67340333  0.15458634  0.12019613  1
  In  In13  1  0.65846947  0.17400913  0.62441305  1
  In  In14  1  0.66181024  0.51343797  0.12023231  1
  In  In15  1  0.68317818  0.48610888  0.63102940  1
  In  In16  1  0.67158105  0.82509832  0.12474478  1
  In  In17  1  0.67003928  0.83290835  0.62116648  1
  In  In18  1  0.16731096  -0.00245772  0.37469494  1
  In  In19  1  0.16551299  -0.00224737  0.86477879  1
  In  In20  1  0.15212117  0.33998646  0.37700011  1
  In  In21  1  0.16624544  0.34983195  0.87331244  1
  In  In22  1  0.17425904  0.68479910  0.35339696  1
  In  In23  1  0.15679025  0.66695385  0.87244777  1
  In  In24  1  0.49760464  -0.00375894  0.38478682  1
  In  In25  1  0.49975838  -0.00046514  0.86186788  1
  In  In26  1  0.49047793  0.32907900  0.38142429  1
  In  In27  1  0.51274808  0.34030977  0.86982442  1
  In  In28  1  0.50035565  0.69237078  0.37660689  1
  In  In29  1  0.50281052  0.65637107  0.87231401  1
  In  In30  1  0.83643297  -0.01294375  0.38221779  1
  In  In31  1  0.83836788  -0.00175869  0.87116621  1
  In  In32  1  0.84889001  0.33609977  0.37574822  1
  In  In33  1  0.82843091  0.32485243  0.86757147  1
  In  In34  1  0.83655930  0.66492144  0.38650724  1
  In  In35  1  0.84173265  0.67825682  0.86825430  1
  In  In36  1  0.00917512  0.17749671  0.37443719  1
  In  In37  1  -0.00998202  0.15851677  0.86559131  1
  In  In38  1  -0.00735825  0.50735020  0.36900776  1
  In  In39  1  0.00933363  0.50508108  0.86533390  1
  In  In40  1  -0.00022589  0.83256778  0.37439601  1
  In  In41  1  -0.00456647  0.82442391  0.86691359  1
  In  In42  1  0.34429977  0.14969690  0.38534868  1
  In  In43  1  0.34227066  0.16169527  0.87226609  1
  In  In44  1  0.31918336  0.50255610  0.37125659  1
  In  In45  1  0.33346677  0.50978411  0.88345897  1
  In  In46  1  0.32566266  0.83229486  0.36898329  1
  In  In47  1  0.32494186  0.83907258  0.87098095  1
  In  In48  1  0.66609623  0.15111086  0.39130022  1
  In  In49  1  0.67820260  0.17415225  0.86535851  1
  In  In50  1  0.68222408  0.51012354  0.38442303  1
  In  In51  1  0.66159772  0.49561912  0.86756361  1
  In  In52  1  0.66799578  0.83159671  0.40686742  1
  In  In53  1  0.67983164  0.84666749  0.86035571  1
  In  In54  1  0.16702131  -0.00773857  0.14369015  1
  In  In55  1  0.16482164  -0.00176083  0.62049828  1
  In  In56  1  0.15012999  0.33379557  0.12387364  1
  In  In57  1  0.16509294  0.32600475  0.62654594  1
  In  In58  1  0.16946012  0.66350587  0.13011118  1
  In  In59  1  0.14863300  0.67098980  0.62573887  1
  In  In60  1  0.49154511  -0.00534127  0.12857203  1
  In  In61  1  0.50452530  -0.00379839  0.62139244  1
  In  In62  1  0.48955733  0.34049424  0.12583706  1
  In  In63  1  0.52525619  0.32658303  0.62204929  1
  In  In64  1  0.50489041  0.66745724  0.12734045  1
  In  In65  1  0.50568776  0.68609053  0.61616683  1
  In  In66  1  0.84040690  0.00737298  0.11806778  1
  In  In67  1  0.84096150  -0.01123441  0.62703457  1
  In  In68  1  0.85153406  0.32895297  0.12219680  1
  In  In69  1  0.82226920  0.34450065  0.62985754  1
  In  In70  1  0.82365816  0.67577265  0.12396697  1
  In  In71  1  0.83258474  0.66933634  0.61917992  1
  In  In72  1  0.66655017  -0.00721539  0.26781365  1
  In  In73  1  0.33285508  0.67385533  0.75074133  1
  In  In74  1  0.51056921  0.17438443  -0.01253315  1
  In  In75  1  0.32583797  0.32915029  0.25153519  1
  In  In76  1  0.50159286  0.82836478  0.00466283  1
  In  In77  1  0.33117009  0.32881243  0.74692916  1
  In  In78  1  0.16360572  0.16811473  0.00493964  1
  In  In79  1  0.15931761  0.50240049  0.49892620  1
  In  In80  1  0.67210132  0.66930650  0.25574169  1
  In  In81  1  0.83083160  0.17048407  0.50811634  1
  In  In82  1  0.67345558  0.33147911  0.26204159  1
  In  In83  1  0.16682803  0.83294053  0.01069122  1
  In  In84  1  0.50154283  0.49783517  0.50007482  1
  In  In85  1  0.83175807  0.49794545  -0.00311695  1
  Cu  Cu86  1  0.49660790  0.16031158  0.74452976  1
  Cu  Cu87  1  0.84333630  0.16725414  0.24946678  1
  Cu  Cu88  1  -0.00189947  0.32921234  -0.00131650  1
  Cu  Cu89  1  0.68000663  -0.00340008  -0.00557365  1
  Cu  Cu90  1  0.32681455  0.67166004  0.49157653  1
  Cu  Cu91  1  0.50504536  0.83819769  0.73907656  1
  Cu  Cu92  1  0.00405150  0.00154219  0.50101783  1
  Cu  Cu93  1  0.49898463  0.15416340  0.25893233  1
  Cu  Cu94  1  0.66720201  0.33545273  -0.00798316  1
  Cu  Cu95  1  0.50440555  0.50291556  0.74520914  1
  Cu  Cu96  1  -0.00258147  0.66519715  -0.00547521  1
  Cu  Cu97  1  -0.00180884  0.34014816  0.50112645  1
  Cu  Cu98  1  0.16166955  0.16158487  0.74549035  1
  Cu  Cu99  1  0.83634145  0.82838060  0.74287955  1
  Cu  Cu100  1  0.16876104  0.16054951  0.25568084  1
  Cu  Cu101  1  0.50400093  0.50656803  0.24812485  1
  Cu  Cu102  1  0.33406456  -0.00099165  0.00463383  1
  Cu  Cu103  1  0.32856423  -0.00659765  0.49781250  1
  Cu  Cu104  1  0.83363929  0.50255422  0.75279120  1
  Cu  Cu105  1  0.83132344  0.83594405  0.25579961  1
  Cu  Cu106  1  0.33430023  0.35045332  0.00086444  1
  Cu  Cu107  1  0.83133685  0.16230085  0.74270156  1
  Cu  Cu108  1  0.16816999  0.84060723  0.74162418  1
  Cu  Cu109  1  0.33347415  0.31982950  0.50586108  1
  Cu  Cu110  1  0.33430418  0.66501580  0.00638786  1
  Cu  Cu111  1  0.15894990  0.50146460  0.24765668  1
  Cu  Cu112  1  -0.00253202  0.67125830  0.49784008  1
  Cu  Cu113  1  -0.00199267  -0.00548365  -0.00074331  1
  Cu  Cu114  1  0.66728860  0.67200009  -0.00272613  1
  Se  Se115  1  0.08312183  0.06731899  0.06256759  1
  Se  Se116  1  0.08560208  0.08782295  0.55202038  1
  Se  Se117  1  0.08081545  0.41638207  0.04836355  1
  Se  Se118  1  0.07436363  0.41952680  0.56614223  1
  Se  Se119  1  0.07034737  0.74327682  0.06251504  1
  Se  Se120  1  0.08446907  0.75312938  0.54837821  1
  Se  Se121  1  0.41867674  0.08741340  0.05394593  1
  Se  Se122  1  0.41461545  0.07500448  0.55209880  1
  Se  Se123  1  0.42261309  0.42776152  0.05376696  1
  Se  Se124  1  0.41127583  0.40543037  0.56284170  1
  Se  Se125  1  0.40284737  0.75284751  0.06799951  1
  Se  Se126  1  0.41500308  0.75075094  0.54408558  1
  Se  Se127  1  0.75752297  0.08669561  0.04625884  1
  Se  Se128  1  0.74584691  0.07580968  0.56486183  1
  Se  Se129  1  0.74358558  0.40899823  0.06105760  1
  Se  Se130  1  0.74995742  0.41339319  0.54969135  1
  Se  Se131  1  0.75150208  0.75590020  0.04777595  1
  Se  Se132  1  0.76340228  0.76377803  0.55190220  1
  Se  Se133  1  0.26047279  0.26245469  0.05946105  1
  Se  Se134  1  0.24170793  0.24354007  0.55507801  1
  Se  Se135  1  0.24317975  0.58383816  0.05396237  1
  Se  Se136  1  0.25453965  0.59197073  0.55766495  1
  Se  Se137  1  0.26208733  0.92019654  0.06915409  1
  Se  Se138  1  0.24142385  0.91163053  0.54939948  1
  Se  Se139  1  0.59011071  0.25958231  0.06113309  1
  Se  Se140  1  0.58655716  0.24615397  0.54381009  1
  Se  Se141  1  0.58042924  0.59170114  0.04962830  1
  Se  Se142  1  0.58701103  0.57716595  0.56822775  1
  Se  Se143  1  0.59364186  0.92764298  0.05832415  1
  Se  Se144  1  0.56393801  0.89209052  0.55698097  1
  Se  Se145  1  0.92217365  0.23985804  0.05189240  1
  Se  Se146  1  0.92436045  0.25936019  0.56542923  1
  Se  Se147  1  0.91737381  0.58860277  0.05874373  1
  Se  Se148  1  0.92045151  0.58311047  0.55282014  1
  Se  Se149  1  0.91746384  0.91156464  0.05536077  1
  Se  Se150  1  0.91694392  0.91708742  0.54836136  1
  Se  Se151  1  0.08355421  0.25531755  0.45174077  1
  Se  Se152  1  0.07930716  0.25079991  0.93652219  1
  Se  Se153  1  0.08198573  0.59563819  0.43509515  1
  Se  Se154  1  0.08216392  0.58238460  0.94394980  1
  Se  Se155  1  0.08203859  0.91610496  0.44377638  1
  Se  Se156  1  0.08330204  0.91797598  0.94069325  1
  Se  Se157  1  0.42029858  0.24160912  0.45213633  1
  Se  Se158  1  0.40826622  0.26646144  0.93881367  1
  Se  Se159  1  0.40832825  0.58492833  0.43772256  1
  Se  Se160  1  0.42120325  0.58928568  0.94994325  1
  Se  Se161  1  0.40893359  0.90728058  0.44391708  1
  Se  Se162  1  0.41413492  0.92258059  0.94172380  1
  Se  Se163  1  0.74878902  0.25923810  0.44005359  1
  Se  Se164  1  0.75109793  0.24869211  0.94452541  1
  Se  Se165  1  0.74733883  0.59487821  0.45771237  1
  Se  Se166  1  0.74558906  0.59012976  0.93594220  1
  Se  Se167  1  0.73678750  0.94352958  0.45445922  1
  Se  Se168  1  0.75843736  0.91052242  0.94098069  1
  Se  Se169  1  0.24449692  0.08149555  0.44823801  1
  Se  Se170  1  0.25449926  0.07743133  0.94312249  1
  Se  Se171  1  0.25771319  0.40650989  0.44631274  1
  Se  Se172  1  0.24558538  0.42582088  0.94718502  1
  Se  Se173  1  0.23909619  0.75041858  0.43934269  1
  Se  Se174  1  0.25659784  0.74579192  0.94388491  1
  Se  Se175  1  0.57945136  0.07435783  0.45602359  1
  Se  Se176  1  0.59414614  0.07265870  0.93485690  1
  Se  Se177  1  0.59176616  0.40973036  0.43872139  1
  Se  Se178  1  0.58254719  0.42247215  0.94547897  1
  Se  Se179  1  0.59690742  0.71983723  0.45489408  1
  Se  Se180  1  0.59007884  0.75262318  0.93417702  1
  Se  Se181  1  0.92282409  0.08639163  0.44283060  1
  Se  Se182  1  0.92027808  0.08004981  0.94357282  1
  Se  Se183  1  0.92038279  0.42539613  0.44608043  1
  Se  Se184  1  0.92100042  0.40997486  0.93578188  1
  Se  Se185  1  0.91395094  0.76005691  0.44902040  1
  Se  Se186  1  0.91724105  0.75388795  0.94522789  1
  Se  Se187  1  0.24519541  0.24212935  0.31887949  1
  Se  Se188  1  0.24086264  0.23938898  0.81017906  1
  Se  Se189  1  0.24953207  0.58188241  0.29556238  1
  Se  Se190  1  0.24584002  0.57793103  0.80668705  1
  Se  Se191  1  0.23988416  0.91324289  0.30172069  1
  Se  Se192  1  0.25396216  0.92006199  0.79672403  1
  Se  Se193  1  0.57832094  0.23756480  0.31524012  1
  Se  Se194  1  0.57648749  0.24351432  0.80256717  1
  Se  Se195  1  0.57984552  0.57887074  0.31549483  1
  Se  Se196  1  0.58737045  0.58710867  0.79833829  1
  Se  Se197  1  0.58180575  0.89683514  0.32331482  1
  Se  Se198  1  0.58694588  0.92197081  0.79507417  1
  Se  Se199  1  0.92288642  0.25400239  0.30246897  1
  Se  Se200  1  0.91376652  0.24716930  0.79765084  1
  Se  Se201  1  0.91785473  0.60377829  0.30556805  1
  Se  Se202  1  0.91930048  0.58729037  0.80269462  1
  Se  Se203  1  0.91749175  0.92026398  0.30517597  1
  Se  Se204  1  0.91714496  0.91263531  0.80024891  1
  Se  Se205  1  0.07986012  0.08265111  0.30787034  1
  Se  Se206  1  0.07869784  0.07775294  0.79974226  1
  Se  Se207  1  0.07826683  0.41958011  0.30369593  1
  Se  Se208  1  0.07313720  0.40392156  0.80063955  1
  Se  Se209  1  0.04397999  0.71885089  0.30831275  1
  Se  Se210  1  0.09102652  0.75500903  0.79919488  1
  Se  Se211  1  0.41560038  0.07043020  0.30854832  1
  Se  Se212  1  0.40979038  0.07966048  0.79679003  1
  Se  Se213  1  0.42239126  0.42299580  0.30619102  1
  Se  Se214  1  0.41832237  0.42754945  0.80624369  1
  Se  Se215  1  0.40441266  0.73831754  0.30406123  1
  Se  Se216  1  0.42908056  0.76326393  0.80869308  1
  Se  Se217  1  0.76166120  0.09372354  0.31355732  1
  Se  Se218  1  0.75223027  0.07931960  0.80174368  1
  Se  Se219  1  0.76382249  0.43066698  0.30925372  1
  Se  Se220  1  0.74894099  0.41509250  0.80221247  1
  Se  Se221  1  0.75057459  0.76376850  0.31970595  1
  Se  Se222  1  0.75040247  0.74692476  0.79756136  1
  Se  Se223  1  0.25656149  0.07985454  0.20419794  1
  Se  Se224  1  0.24706538  0.07870943  0.69408438  1
  Se  Se225  1  0.24387191  0.42141683  0.18766686  1
  Se  Se226  1  0.23837885  0.42528126  0.69574928  1
  Se  Se227  1  0.22646221  0.75334733  0.20660902  1
  Se  Se228  1  0.25051495  0.75946907  0.68269488  1
  Se  Se229  1  0.58484081  0.08386496  0.19603800  1
  Se  Se230  1  0.58408539  0.08161294  0.69180596  1
  Se  Se231  1  0.58349572  0.42022370  0.19388865  1
  Se  Se232  1  0.58741685  0.41269615  0.69862818  1
  Se  Se233  1  0.57829810  0.76143848  0.19822143  1
  Se  Se234  1  0.58795578  0.74867962  0.69420598  1
  Se  Se235  1  0.91964344  0.07921014  0.19473676  1
  Se  Se236  1  0.91806866  0.07617666  0.69659678  1
  Se  Se237  1  0.91205615  0.41400548  0.19686244  1
  Se  Se238  1  0.91443042  0.41590077  0.69898110  1
  Se  Se239  1  0.90553522  0.75261976  0.19522630  1
  Se  Se240  1  0.92131930  0.74543093  0.69042005  1
  Se  Se241  1  0.08906718  0.24603267  0.19945187  1
  Se  Se242  1  0.07999974  0.24896593  0.69643550  1
  Se  Se243  1  0.07625904  0.57929665  0.19014060  1
  Se  Se244  1  0.09062523  0.58250795  0.70026943  1
  Se  Se245  1  0.08439669  0.90876120  0.20766755  1
  Se  Se246  1  0.07859584  0.91744975  0.68877581  1
  Se  Se247  1  0.42548756  0.23807081  0.19573493  1
  Se  Se248  1  0.42047239  0.24390192  0.68339455  1
  Se  Se249  1  0.41895221  0.58801376  0.19590966  1
  Se  Se250  1  0.42327851  0.58407418  0.68768300  1
  Se  Se251  1  0.42907333  0.91576465  0.20585280  1
  Se  Se252  1  0.41415139  0.91995622  0.69294831  1
  Se  Se253  1  0.75418864  0.24189465  0.19176387  1
  Se  Se254  1  0.74662751  0.24930081  0.69441242  1
  Se  Se255  1  0.75646284  0.57435503  0.19343939  1
  Se  Se256  1  0.75545097  0.58470885  0.69324111  1
  Se  Se257  1  0.75316630  0.91640824  0.19284488  1
  Se  Se258  1  0.74994682  0.91421643  0.69506180  1
