# generated using pymatgen
data_In86Cu29Se144
_symmetry_space_group_name_H-M   'P 1'
_cell_length_a   17.60147446
_cell_length_b   17.60408555
_cell_length_c   23.45716525
_cell_angle_alpha   89.99039658
_cell_angle_beta   89.98779311
_cell_angle_gamma   90.00525497
_symmetry_Int_Tables_number   1
_chemical_formula_structural   In86Cu29Se144
_chemical_formula_sum   'In86 Cu29 Se144'
_cell_volume   7268.38678179
_cell_formula_units_Z   1
loop_
 _symmetry_equiv_pos_site_id
 _symmetry_equiv_pos_as_xyz
  1  'x, y, z'
loop_
 _atom_site_type_symbol
 _atom_site_label
 _atom_site_symmetry_multiplicity
 _atom_site_fract_x
 _atom_site_fract_y
 _atom_site_fract_z
 _atom_site_occupancy
  In  In0  1  -0.00940378  0.18042723  0.12625181  1
  In  In1  1  0.01878732  0.16487106  0.62446442  1
  In  In2  1  0.00839447  0.49266086  0.13017435  1
  In  In3  1  -0.01945516  0.49894453  0.62283564  1
  In  In4  1  -0.01104419  0.82130660  0.11201376  1
  In  In5  1  0.00152893  0.82185808  0.62604270  1
  In  In6  1  0.37608568  0.16652925  0.11920085  1
  In  In7  1  0.33223004  0.17855366  0.63482827  1
  In  In8  1  0.32467570  0.50122799  0.12561319  1
  In  In9  1  0.34862661  0.49376747  0.63529751  1
  In  In10  1  0.34421901  0.84461205  0.10555072  1
  In  In11  1  0.35112474  0.81544176  0.64218685  1
  In  In12  1  0.66243443  0.16622903  0.12346185  1
  In  In13  1  0.65550495  0.16298866  0.62824842  1
  In  In14  1  0.65739571  0.49793338  0.14315653  1
  In  In15  1  0.67900413  0.50760624  0.61659431  1
  In  In16  1  0.65337411  0.83472812  0.11928979  1
  In  In17  1  0.66032596  0.84471477  0.63494320  1
  In  In18  1  0.18696934  0.00192117  0.37590491  1
  In  In19  1  0.17072689  -0.01213198  0.87911261  1
  In  In20  1  0.15944320  0.33295421  0.37165257  1
  In  In21  1  0.17716995  0.34467025  0.87166534  1
  In  In22  1  0.16262019  0.67515151  0.37069704  1
  In  In23  1  0.16828777  0.65178149  0.88218353  1
  In  In24  1  0.49809026  -0.00746012  0.37631945  1
  In  In25  1  0.49631343  -0.00586271  0.88227998  1
  In  In26  1  0.52426284  0.36034410  0.34423633  1
  In  In27  1  0.48518587  0.33110713  0.87452190  1
  In  In28  1  0.51758784  0.65672396  0.39077822  1
  In  In29  1  0.51097152  0.66814745  0.86055814  1
  In  In30  1  0.82503104  0.01550426  0.36987168  1
  In  In31  1  0.82357606  0.00174373  0.88877137  1
  In  In32  1  0.84352094  0.33790434  0.36691165  1
  In  In33  1  0.83057386  0.31846247  0.87670704  1
  In  In34  1  0.82936319  0.66211327  0.36807160  1
  In  In35  1  0.83210526  0.67973964  0.88030773  1
  In  In36  1  0.00226211  0.18044641  0.37269713  1
  In  In37  1  -0.01129685  0.16690033  0.87681349  1
  In  In38  1  -0.00845767  0.49704561  0.37071030  1
  In  In39  1  0.01643972  0.50553075  0.87529314  1
  In  In40  1  0.00164216  0.82709599  0.36220454  1
  In  In41  1  -0.00579361  0.82404723  0.89130618  1
  In  In42  1  0.33090815  0.17174239  0.37783150  1
  In  In43  1  0.33889781  0.17297673  0.87580088  1
  In  In44  1  0.35880027  0.50362921  0.37348711  1
  In  In45  1  0.33232279  0.48904927  0.86557183  1
  In  In46  1  0.34299299  0.84482923  0.37601468  1
  In  In47  1  0.33893256  0.83580353  0.87630841  1
  In  In48  1  0.66120245  0.17148394  0.35890094  1
  In  In49  1  0.67255934  0.14952234  0.89395270  1
  In  In50  1  0.66970681  0.50914450  0.37187921  1
  In  In51  1  0.64833662  0.50969121  0.86987462  1
  In  In52  1  0.66028371  0.82536339  0.36642147  1
  In  In53  1  0.66454018  0.83495513  0.88310739  1
  In  In54  1  0.18196576  -0.00667115  0.11838720  1
  In  In55  1  0.17286317  0.01476189  0.62881792  1
  In  In56  1  0.15863428  0.33381873  0.13138020  1
  In  In57  1  0.17797754  0.32740091  0.62874485  1
  In  In58  1  0.16073748  0.66311909  0.11258699  1
  In  In59  1  0.16942344  0.67502298  0.62673495  1
  In  In60  1  0.53008095  0.02365769  0.07092674  1
  In  In61  1  0.50720048  -0.00860759  0.63710467  1
  In  In62  1  0.51198422  0.31801932  0.15191524  1
  In  In63  1  0.49209046  0.33049775  0.62551056  1
  In  In64  1  0.49876291  0.67058387  0.12731152  1
  In  In65  1  0.50344491  0.66814274  0.62535196  1
  In  In66  1  0.80068410  -0.01736060  0.10326531  1
  In  In67  1  0.83137691  -0.01208130  0.62960880  1
  In  In68  1  0.83390466  0.32922217  0.12979262  1
  In  In69  1  0.82560587  0.34718463  0.62466234  1
  In  In70  1  0.82439570  0.67033069  0.13066094  1
  In  In71  1  0.83466038  0.65290963  0.62437225  1
  In  In72  1  0.33503138  0.66824030  0.24676392  1
  In  In73  1  -0.00013099  0.00122052  0.75882174  1
  In  In74  1  0.34297279  0.00329442  0.23738506  1
  In  In75  1  0.16581930  0.16851447  0.00233465  1
  In  In76  1  0.49414545  0.17130947  0.49837748  1
  In  In77  1  -0.00718374  0.00390073  0.23862646  1
  In  In78  1  0.16697377  0.49954177  0.49803289  1
  In  In79  1  -0.00069378  0.66393242  0.74987473  1
  In  In80  1  0.83278586  0.82994636  0.49241186  1
  In  In81  1  0.83530647  0.49671645  0.00901747  1
  In  In82  1  0.66056116  0.33127831  0.75195954  1
  In  In83  1  0.83764738  0.17263337  0.49311118  1
  In  In84  1  0.48817825  0.49873108  0.00134199  1
  In  In85  1  0.17487992  0.83639958  0.50793353  1
  Cu  Cu86  1  0.00152176  0.33959780  0.00393884  1
  Cu  Cu87  1  0.65782758  0.32962074  0.00570729  1
  Cu  Cu88  1  0.16867891  0.49417399  0.74972880  1
  Cu  Cu89  1  0.82564175  0.83579569  0.23723773  1
  Cu  Cu90  1  -0.00692202  0.00572229  0.00092660  1
  Cu  Cu91  1  0.33600590  0.33517955  0.50269857  1
  Cu  Cu92  1  0.83702641  0.50037967  0.24842785  1
  Cu  Cu93  1  0.16754890  0.82688543  0.23912279  1
  Cu  Cu94  1  0.16777514  0.83423777  0.75538921  1
  Cu  Cu95  1  0.66433449  0.00146377  0.50486740  1
  Cu  Cu96  1  0.50412512  0.83127048  0.24896741  1
  Cu  Cu97  1  0.34044247  0.66898691  0.50646374  1
  Cu  Cu98  1  0.32935040  0.66632390  -0.00530022  1
  Cu  Cu99  1  0.33832491  0.00198597  0.50428108  1
  Cu  Cu100  1  0.82351114  0.16371152  0.24302709  1
  Cu  Cu101  1  0.01398478  -0.00372066  0.49987783  1
  Cu  Cu102  1  0.81872390  0.83574623  0.75902500  1
  Cu  Cu103  1  0.50318660  0.83665028  0.75738944  1
  Cu  Cu104  1  0.66849585  0.66618102  0.00161127  1
  Cu  Cu105  1  0.16267966  0.50194888  0.25022288  1
  Cu  Cu106  1  0.17425735  0.17515563  0.75214088  1
  Cu  Cu107  1  0.00120133  0.33480804  0.49534746  1
  Cu  Cu108  1  0.33246414  0.33413041  0.00227628  1
  Cu  Cu109  1  0.66643885  0.67388509  0.49956208  1
  Cu  Cu110  1  0.83267877  0.16238242  0.75767541  1
  Cu  Cu111  1  0.66542312  0.34563176  0.49176487  1
  Cu  Cu112  1  0.50481145  0.15746470  0.75785453  1
  Cu  Cu113  1  0.82803543  0.49897993  0.74802995  1
  Cu  Cu114  1  0.16282905  0.16350101  0.25056320  1
  Se  Se115  1  0.07438656  0.08016389  0.06447402  1
  Se  Se116  1  0.09345531  0.08361611  0.55086628  1
  Se  Se117  1  0.08938092  0.41761314  0.05502582  1
  Se  Se118  1  0.07935293  0.41055726  0.56135573  1
  Se  Se119  1  0.09976237  0.76930499  0.05184143  1
  Se  Se120  1  0.07517109  0.73846424  0.55080261  1
  Se  Se121  1  0.38382671  0.04868294  0.05764260  1
  Se  Se122  1  0.41700421  0.08141772  0.56731352  1
  Se  Se123  1  0.41516053  0.40492243  0.06824030  1
  Se  Se124  1  0.41946739  0.41850016  0.55510169  1
  Se  Se125  1  0.41774561  0.73814007  0.05098711  1
  Se  Se126  1  0.42203348  0.75688106  0.55629462  1
  Se  Se127  1  0.74777315  0.09690699  0.04875045  1
  Se  Se128  1  0.75083511  0.08109397  0.55906010  1
  Se  Se129  1  0.73432888  0.41356703  0.06505932  1
  Se  Se130  1  0.75532753  0.42068437  0.54565479  1
  Se  Se131  1  0.74667271  0.74951383  0.05757999  1
  Se  Se132  1  0.74636859  0.75157831  0.56316241  1
  Se  Se133  1  0.25739231  0.25147084  0.06568192  1
  Se  Se134  1  0.25581042  0.24834880  0.55484512  1
  Se  Se135  1  0.25141687  0.57972149  0.05002856  1
  Se  Se136  1  0.25511808  0.58780710  0.56102781  1
  Se  Se137  1  0.24079607  0.90766128  0.04228130  1
  Se  Se138  1  0.26466103  0.92137123  0.56984049  1
  Se  Se139  1  0.57102855  0.25577206  0.06188471  1
  Se  Se140  1  0.59446818  0.26060362  0.55469424  1
  Se  Se141  1  0.58941863  0.58117137  0.05981000  1
  Se  Se142  1  0.58638020  0.58760934  0.55404773  1
  Se  Se143  1  0.56061328  0.88592171  0.03948017  1
  Se  Se144  1  0.58265196  0.91901820  0.55824064  1
  Se  Se145  1  0.91293063  0.25722284  0.05161092  1
  Se  Se146  1  0.92370052  0.25542083  0.56120994  1
  Se  Se147  1  0.92219718  0.58756226  0.06695964  1
  Se  Se148  1  0.91922547  0.58835016  0.55028267  1
  Se  Se149  1  0.91155407  0.91620751  0.04970820  1
  Se  Se150  1  0.92816965  0.92047861  0.55647365  1
  Se  Se151  1  0.08633502  0.24948981  0.44736966  1
  Se  Se152  1  0.07928321  0.25939855  0.93989509  1
  Se  Se153  1  0.07858876  0.58884703  0.43786119  1
  Se  Se154  1  0.07403498  0.58864878  0.95258303  1
  Se  Se155  1  0.08586778  0.91593840  0.43490222  1
  Se  Se156  1  0.07526305  0.92314086  0.94705344  1
  Se  Se157  1  0.41856878  0.26668321  0.43587504  1
  Se  Se158  1  0.41683366  0.24984888  0.95163871  1
  Se  Se159  1  0.42111748  0.58253465  0.45413684  1
  Se  Se160  1  0.41194358  0.58837785  0.93312399  1
  Se  Se161  1  0.42088440  0.91739674  0.45240192  1
  Se  Se162  1  0.43240186  0.89598928  0.95165232  1
  Se  Se163  1  0.74092849  0.25662921  0.43480192  1
  Se  Se164  1  0.74732674  0.25241176  0.95299776  1
  Se  Se165  1  0.74943018  0.59107855  0.44479087  1
  Se  Se166  1  0.74271559  0.57913866  0.94295785  1
  Se  Se167  1  0.74353733  0.92724685  0.43922721  1
  Se  Se168  1  0.75725475  0.90362650  0.95253418  1
  Se  Se169  1  0.25624146  0.08459719  0.45036004  1
  Se  Se170  1  0.25483631  0.08018995  0.94228728  1
  Se  Se171  1  0.25921460  0.41392645  0.43777617  1
  Se  Se172  1  0.25571702  0.42004169  0.94664449  1
  Se  Se173  1  0.26111228  0.74541856  0.44221739  1
  Se  Se174  1  0.24902129  0.74963790  0.93963981  1
  Se  Se175  1  0.59117015  0.08436268  0.44110099  1
  Se  Se176  1  0.56779492  0.08475983  0.95616880  1
  Se  Se177  1  0.58076113  0.42144392  0.43540162  1
  Se  Se178  1  0.58545677  0.41057129  0.94221412  1
  Se  Se179  1  0.58509399  0.76284061  0.44984276  1
  Se  Se180  1  0.58180146  0.73777653  0.94223341  1
  Se  Se181  1  0.93051750  0.07421358  0.43967815  1
  Se  Se182  1  0.91083624  0.09104429  0.95012999  1
  Se  Se183  1  0.91493678  0.41583346  0.44471648  1
  Se  Se184  1  0.91954166  0.41303820  0.93920167  1
  Se  Se185  1  0.92742865  0.74344802  0.43672682  1
  Se  Se186  1  0.91866516  0.73470708  0.95703281  1
  Se  Se187  1  0.24326227  0.24518829  0.30747416  1
  Se  Se188  1  0.25851508  0.25686839  0.80638173  1
  Se  Se189  1  0.24671610  0.57777817  0.31176193  1
  Se  Se190  1  0.24606273  0.58061870  0.80490329  1
  Se  Se191  1  0.24833479  0.90779666  0.29916619  1
  Se  Se192  1  0.25329800  0.91765573  0.80511762  1
  Se  Se193  1  0.56947604  0.23974838  0.29235252  1
  Se  Se194  1  0.58423185  0.23792018  0.81890894  1
  Se  Se195  1  0.58226863  0.59275500  0.30704492  1
  Se  Se196  1  0.57459068  0.57353026  0.79021488  1
  Se  Se197  1  0.58199797  0.91966778  0.30355665  1
  Se  Se198  1  0.58613185  0.91925445  0.81160456  1
  Se  Se199  1  0.91145714  0.24123794  0.29910227  1
  Se  Se200  1  0.91742989  0.25073613  0.80212588  1
  Se  Se201  1  0.92012688  0.58680315  0.30008376  1
  Se  Se202  1  0.90774757  0.57737343  0.81205535  1
  Se  Se203  1  0.90322943  0.91397889  0.30363485  1
  Se  Se204  1  0.91107200  0.90827049  0.81588295  1
  Se  Se205  1  0.08728594  0.07925355  0.30982266  1
  Se  Se206  1  0.09439268  0.09399864  0.81312679  1
  Se  Se207  1  0.07924750  0.41737548  0.30349790  1
  Se  Se208  1  0.08225493  0.41497870  0.80327975  1
  Se  Se209  1  0.08408544  0.74628683  0.29341784  1
  Se  Se210  1  0.08366762  0.75487195  0.81259379  1
  Se  Se211  1  0.42097449  0.08734251  0.31033625  1
  Se  Se212  1  0.41706975  0.08022874  0.81151944  1
  Se  Se213  1  0.39754178  0.40532215  0.29913356  1
  Se  Se214  1  0.43222045  0.42388983  0.80080714  1
  Se  Se215  1  0.42439690  0.75355755  0.31142304  1
  Se  Se216  1  0.41487690  0.75140615  0.80362095  1
  Se  Se217  1  0.74044536  0.07903100  0.29469277  1
  Se  Se218  1  0.75076660  0.08170766  0.81289090  1
  Se  Se219  1  0.75329148  0.42035996  0.30545509  1
  Se  Se220  1  0.75221615  0.42080382  0.81325666  1
  Se  Se221  1  0.75229054  0.75210980  0.30056888  1
  Se  Se222  1  0.74107163  0.74652715  0.81008756  1
  Se  Se223  1  0.24564537  0.09507704  0.18610668  1
  Se  Se224  1  0.25547108  0.08652121  0.70186960  1
  Se  Se225  1  0.24446960  0.41939578  0.19607150  1
  Se  Se226  1  0.25598973  0.41306331  0.69741186  1
  Se  Se227  1  0.25511431  0.75625158  0.17938833  1
  Se  Se228  1  0.24665626  0.74692997  0.70249936  1
  Se  Se229  1  0.56100416  0.07809993  0.17033389  1
  Se  Se230  1  0.59031611  0.07890454  0.70311163  1
  Se  Se231  1  0.57776820  0.41959471  0.21395080  1
  Se  Se232  1  0.58585342  0.42019140  0.68305325  1
  Se  Se233  1  0.58597593  0.74639711  0.19570323  1
  Se  Se234  1  0.58160828  0.75356186  0.69793889  1
  Se  Se235  1  0.89637431  0.08301688  0.17811995  1
  Se  Se236  1  0.91372578  0.08854345  0.69104370  1
  Se  Se237  1  0.91830808  0.41383493  0.19578969  1
  Se  Se238  1  0.91324765  0.41445749  0.69862284  1
  Se  Se239  1  0.91745501  0.75263876  0.19409687  1
  Se  Se240  1  0.90204163  0.75909188  0.69671280  1
  Se  Se241  1  0.07712381  0.24788973  0.19991725  1
  Se  Se242  1  0.08628617  0.25166930  0.69726826  1
  Se  Se243  1  0.08879929  0.58767684  0.19208489  1
  Se  Se244  1  0.08809996  0.57259485  0.68752003  1
  Se  Se245  1  0.08701517  0.91282823  0.18446239  1
  Se  Se246  1  0.08687264  0.91133806  0.69230231  1
  Se  Se247  1  0.39554274  0.25760042  0.20224952  1
  Se  Se248  1  0.42784296  0.24688098  0.70266051  1
  Se  Se249  1  0.42463080  0.57204030  0.19352828  1
  Se  Se250  1  0.39910987  0.60825506  0.69027377  1
  Se  Se251  1  0.42975444  0.90853598  0.18420671  1
  Se  Se252  1  0.41529761  0.91912250  0.70487978  1
  Se  Se253  1  0.74122066  0.25265550  0.19447142  1
  Se  Se254  1  0.75626572  0.24156777  0.69173720  1
  Se  Se255  1  0.74875534  0.58416260  0.20086017  1
  Se  Se256  1  0.74730480  0.58534860  0.69722991  1
  Se  Se257  1  0.73689071  0.91806721  0.18970590  1
  Se  Se258  1  0.74502423  0.92552648  0.70458320  1
