# generated using pymatgen
data_In86Cu29Se144
_symmetry_space_group_name_H-M   'P 1'
_cell_length_a   17.59986894
_cell_length_b   17.59436864
_cell_length_c   23.45961736
_cell_angle_alpha   89.97156469
_cell_angle_beta   89.97283336
_cell_angle_gamma   89.98490452
_symmetry_Int_Tables_number   1
_chemical_formula_structural   In86Cu29Se144
_chemical_formula_sum   'In86 Cu29 Se144'
_cell_volume   7264.46988676
_cell_formula_units_Z   1
loop_
 _symmetry_equiv_pos_site_id
 _symmetry_equiv_pos_as_xyz
  1  'x, y, z'
loop_
 _atom_site_type_symbol
 _atom_site_label
 _atom_site_symmetry_multiplicity
 _atom_site_fract_x
 _atom_site_fract_y
 _atom_site_fract_z
 _atom_site_occupancy
  In  In0  1  -0.00009105  0.17709745  0.12499170  1
  In  In1  1  -0.00153718  0.16655911  0.62018823  1
  In  In2  1  0.01449042  0.50245945  0.11666307  1
  In  In3  1  -0.00562426  0.50227926  0.63547136  1
  In  In4  1  -0.01163968  0.82114268  0.11593774  1
  In  In5  1  -0.00802231  0.83443746  0.64330124  1
  In  In6  1  0.32240391  0.14225348  0.12802772  1
  In  In7  1  0.32413358  0.18006048  0.63632907  1
  In  In8  1  0.33844350  0.52775701  0.11748279  1
  In  In9  1  0.33453979  0.49908412  0.62759320  1
  In  In10  1  0.33301526  0.82733113  0.12039378  1
  In  In11  1  0.34008808  0.82619189  0.63377894  1
  In  In12  1  0.66436613  0.14927565  0.12587850  1
  In  In13  1  0.67410268  0.15515405  0.62063528  1
  In  In14  1  0.68156138  0.50674448  0.12407539  1
  In  In15  1  0.67648096  0.51299365  0.62173232  1
  In  In16  1  0.66687099  0.83345741  0.12473574  1
  In  In17  1  0.66078569  0.83150258  0.62420553  1
  In  In18  1  0.17149660  0.00053544  0.37762165  1
  In  In19  1  0.16237130  -0.00897374  0.87198630  1
  In  In20  1  0.15326240  0.32529579  0.38014973  1
  In  In21  1  0.17097706  0.34263955  0.86788060  1
  In  In22  1  0.16831207  0.66550349  0.36396932  1
  In  In23  1  0.17045376  0.66968865  0.87864329  1
  In  In24  1  0.49140196  -0.01437062  0.37137544  1
  In  In25  1  0.48498757  -0.00807945  0.86889353  1
  In  In26  1  0.51109958  0.33469701  0.38245778  1
  In  In27  1  0.49695913  0.34200184  0.86713913  1
  In  In28  1  0.50032017  0.67039570  0.37849735  1
  In  In29  1  0.50289225  0.67620887  0.87452461  1
  In  In30  1  0.82763769  0.01326660  0.37453715  1
  In  In31  1  0.84481765  -0.01500032  0.87969568  1
  In  In32  1  0.84976547  0.32910562  0.39340460  1
  In  In33  1  0.83685481  0.32401068  0.87092917  1
  In  In34  1  0.82973723  0.66299072  0.37181596  1
  In  In35  1  0.87147815  0.70422549  0.82986543  1
  In  In36  1  0.00236852  0.15772362  0.39926626  1
  In  In37  1  -0.00846116  0.15227624  0.86628483  1
  In  In38  1  -0.00810945  0.49666658  0.37913616  1
  In  In39  1  0.01316349  0.52168230  0.85377425  1
  In  In40  1  0.01216996  0.82947021  0.37298049  1
  In  In41  1  0.00821262  0.83898106  0.87612202  1
  In  In42  1  0.33040130  0.15121693  0.37547578  1
  In  In43  1  0.32813306  0.16190881  0.86014544  1
  In  In44  1  0.33222067  0.51781500  0.37543922  1
  In  In45  1  0.32748220  0.49902638  0.87104429  1
  In  In46  1  0.33637996  0.84283232  0.37125111  1
  In  In47  1  0.32979531  0.82854370  0.87830733  1
  In  In48  1  0.67705018  0.16707275  0.37356261  1
  In  In49  1  0.67738719  0.17209590  0.87396842  1
  In  In50  1  0.66360762  0.50859652  0.38438965  1
  In  In51  1  0.66750295  0.51257729  0.86924875  1
  In  In52  1  0.65553596  0.81907565  0.36668394  1
  In  In53  1  0.68075920  0.81525289  0.88511634  1
  In  In54  1  0.18330534  -0.00342355  0.13127731  1
  In  In55  1  0.15593084  0.01445699  0.63137366  1
  In  In56  1  0.15798599  0.33604848  0.12183489  1
  In  In57  1  0.16902349  0.32782429  0.62859528  1
  In  In58  1  0.16544858  0.66615558  0.11846517  1
  In  In59  1  0.16454006  0.67006869  0.63649524  1
  In  In60  1  0.50361051  -0.01766573  0.13009482  1
  In  In61  1  0.50426216  -0.01165634  0.62585606  1
  In  In62  1  0.49864233  0.33668967  0.12631396  1
  In  In63  1  0.48032408  0.33554022  0.62530368  1
  In  In64  1  0.48794766  0.68557765  0.13529349  1
  In  In65  1  0.49983814  0.66785396  0.62488991  1
  In  In66  1  0.83006065  -0.01021927  0.11634334  1
  In  In67  1  0.83712963  0.00764362  0.62178734  1
  In  In68  1  0.84791031  0.33137898  0.12100899  1
  In  In69  1  0.84902934  0.34693311  0.61212296  1
  In  In70  1  0.82506325  0.67082691  0.13289506  1
  In  In71  1  0.84299803  0.65057278  0.64820186  1
  In  In72  1  0.66804935  -0.00523402  0.74360606  1
  In  In73  1  0.16538217  0.16242517  0.00289831  1
  In  In74  1  0.33342850  0.33743752  0.25305809  1
  In  In75  1  0.84129867  0.50904590  -0.01760155  1
  In  In76  1  0.66095637  0.33220841  0.74350518  1
  In  In77  1  0.83031751  0.83428798  0.50609347  1
  In  In78  1  0.67196361  0.33626755  0.26177160  1
  In  In79  1  0.16659738  0.50016519  0.50413229  1
  In  In80  1  0.50306970  0.50674918  -0.00996603  1
  In  In81  1  0.16617665  0.83998008  0.50087095  1
  In  In82  1  0.00085020  0.00036138  0.25690122  1
  In  In83  1  0.50493551  0.16260708  -0.01060688  1
  In  In84  1  0.49883862  0.16721208  0.50433259  1
  In  In85  1  -0.00039436  0.33473190  0.25342082  1
  Cu  Cu86  1  0.33100325  0.00079314  0.50142105  1
  Cu  Cu87  1  0.16602339  0.49898105  0.74866040  1
  Cu  Cu88  1  0.16347330  0.82814355  0.24440841  1
  Cu  Cu89  1  0.67576987  0.32697996  -0.00122390  1
  Cu  Cu90  1  0.33597727  -0.00927740  -0.00087527  1
  Cu  Cu91  1  0.16204645  0.16646595  0.74881637  1
  Cu  Cu92  1  0.66807691  0.34101425  0.50188395  1
  Cu  Cu93  1  0.49089426  0.15389600  0.24827719  1
  Cu  Cu94  1  0.48926555  0.50438319  0.74804788  1
  Cu  Cu95  1  0.17125703  0.50894407  0.24257605  1
  Cu  Cu96  1  0.00062040  0.32646566  -0.00566199  1
  Cu  Cu97  1  0.66444571  0.67318823  0.00332789  1
  Cu  Cu98  1  0.67145507  -0.00380125  0.00280317  1
  Cu  Cu99  1  0.49848599  0.83200266  0.75095958  1
  Cu  Cu100  1  0.32929561  0.33659014  -0.00512771  1
  Cu  Cu101  1  0.84000976  0.16374679  0.74535023  1
  Cu  Cu102  1  -0.00408198  0.67087850  -0.01066714  1
  Cu  Cu103  1  0.82982928  0.83535508  0.24394323  1
  Cu  Cu104  1  0.66691106  0.66789651  0.50102208  1
  Cu  Cu105  1  0.83428824  0.50798741  0.25610106  1
  Cu  Cu106  1  0.83094102  0.16737706  0.25004127  1
  Cu  Cu107  1  0.17487949  0.83480488  0.75567864  1
  Cu  Cu108  1  -0.00291124  0.66676738  0.50875618  1
  Cu  Cu109  1  0.34194496  0.67438060  0.50085135  1
  Cu  Cu110  1  0.50868461  0.50906284  0.25416140  1
  Cu  Cu111  1  0.49818624  0.83281226  0.24932264  1
  Cu  Cu112  1  -0.00024343  -0.00230509  -0.00359200  1
  Cu  Cu113  1  0.66073477  -0.00699093  0.49752436  1
  Cu  Cu114  1  0.32693271  0.33425883  0.50623718  1
  Se  Se115  1  0.07636501  0.07234066  0.06423534  1
  Se  Se116  1  0.08630828  0.08605309  0.55264058  1
  Se  Se117  1  0.08345084  0.41169066  0.04589851  1
  Se  Se118  1  0.07706016  0.41446170  0.56394911  1
  Se  Se119  1  0.07955835  0.74767728  0.04887529  1
  Se  Se120  1  0.07649091  0.75063121  0.56462366  1
  Se  Se121  1  0.41709037  0.07549674  0.05583673  1
  Se  Se122  1  0.40956945  0.07970107  0.56488982  1
  Se  Se123  1  0.41363576  0.41397104  0.05418040  1
  Se  Se124  1  0.41187648  0.42185701  0.55130142  1
  Se  Se125  1  0.41695955  0.74492903  0.05259192  1
  Se  Se126  1  0.42085323  0.75777251  0.55607546  1
  Se  Se127  1  0.75220195  0.08544795  0.05242084  1
  Se  Se128  1  0.74804052  0.07420062  0.54753807  1
  Se  Se129  1  0.75469454  0.41438263  0.05301085  1
  Se  Se130  1  0.75209744  0.42510389  0.55260209  1
  Se  Se131  1  0.75365491  0.75060625  0.05701611  1
  Se  Se132  1  0.75161197  0.73633548  0.56610431  1
  Se  Se133  1  0.26116376  0.25261788  0.06113031  1
  Se  Se134  1  0.24734965  0.24622532  0.55543482  1
  Se  Se135  1  0.23439876  0.57096719  0.05026593  1
  Se  Se136  1  0.25432676  0.59855077  0.55910919  1
  Se  Se137  1  0.24812715  0.91507248  0.05406379  1
  Se  Se138  1  0.25521034  0.92139079  0.56614592  1
  Se  Se139  1  0.58830246  0.25493436  0.05761195  1
  Se  Se140  1  0.58957142  0.25971382  0.56331115  1
  Se  Se141  1  0.58773123  0.58741312  0.06097288  1
  Se  Se142  1  0.58201804  0.58481088  0.55469910  1
  Se  Se143  1  0.58417039  0.91446028  0.05332144  1
  Se  Se144  1  0.58012798  0.91007922  0.55123471  1
  Se  Se145  1  0.91780345  0.24517822  0.04831097  1
  Se  Se146  1  0.89444511  0.23021149  0.55661500  1
  Se  Se147  1  0.91998343  0.59135949  0.05643292  1
  Se  Se148  1  0.91531167  0.58646826  0.56398741  1
  Se  Se149  1  0.91460903  0.91190676  0.04751613  1
  Se  Se150  1  0.92991994  0.91757074  0.56081905  1
  Se  Se151  1  0.07043309  0.26299209  0.45530830  1
  Se  Se152  1  0.08275894  0.24656943  0.93424403  1
  Se  Se153  1  0.08135794  0.59548197  0.44390747  1
  Se  Se154  1  0.07860815  0.58233445  0.94085047  1
  Se  Se155  1  0.07044273  0.92870025  0.44453916  1
  Se  Se156  1  0.08998868  0.91617169  0.95023693  1
  Se  Se157  1  0.40679612  0.25529482  0.44162953  1
  Se  Se158  1  0.40902407  0.25561580  0.93681943  1
  Se  Se159  1  0.41891280  0.58442322  0.44835142  1
  Se  Se160  1  0.40512823  0.59391542  0.93941234  1
  Se  Se161  1  0.41340002  0.91523582  0.44945373  1
  Se  Se162  1  0.42023135  0.90992737  0.94618793  1
  Se  Se163  1  0.74435713  0.25291161  0.44706079  1
  Se  Se164  1  0.76010708  0.24541937  0.94671015  1
  Se  Se165  1  0.75556369  0.58694289  0.44908680  1
  Se  Se166  1  0.74431785  0.60211918  0.93694608  1
  Se  Se167  1  0.74218012  0.91424056  0.43652900  1
  Se  Se168  1  0.75378677  0.91243804  0.94813707  1
  Se  Se169  1  0.24595013  0.08423841  0.45104125  1
  Se  Se170  1  0.25908475  0.07832647  0.94159682  1
  Se  Se171  1  0.25497242  0.41268606  0.43792975  1
  Se  Se172  1  0.24599290  0.41964380  0.94405020  1
  Se  Se173  1  0.25205325  0.74486695  0.44036000  1
  Se  Se174  1  0.23903458  0.76039261  0.94922170  1
  Se  Se175  1  0.58389273  0.07929823  0.43823043  1
  Se  Se176  1  0.59560520  0.06946357  0.93398484  1
  Se  Se177  1  0.58105402  0.42291241  0.45180184  1
  Se  Se178  1  0.59662137  0.40752953  0.93877923  1
  Se  Se179  1  0.58356963  0.75233325  0.44899573  1
  Se  Se180  1  0.57761512  0.75412403  0.95082388  1
  Se  Se181  1  0.90293733  0.07986385  0.45266019  1
  Se  Se182  1  0.91608397  0.08263470  0.94595628  1
  Se  Se183  1  0.92395013  0.42186677  0.45702577  1
  Se  Se184  1  0.93135289  0.41230340  0.93092998  1
  Se  Se185  1  0.92389055  0.74718940  0.44367316  1
  Se  Se186  1  0.91286426  0.74798565  0.93140020  1
  Se  Se187  1  0.24469351  0.24667892  0.31174635  1
  Se  Se188  1  0.24621954  0.25296376  0.79939790  1
  Se  Se189  1  0.25763557  0.58827936  0.29652903  1
  Se  Se190  1  0.24543554  0.58413169  0.80437315  1
  Se  Se191  1  0.23879351  0.91153300  0.30512772  1
  Se  Se192  1  0.25867113  0.92042096  0.80675205  1
  Se  Se193  1  0.57077115  0.23822035  0.30648934  1
  Se  Se194  1  0.57685527  0.24021546  0.80762870  1
  Se  Se195  1  0.58947289  0.58961340  0.31035421  1
  Se  Se196  1  0.57281157  0.58327666  0.80438124  1
  Se  Se197  1  0.58356556  0.91623689  0.30210452  1
  Se  Se198  1  0.58487658  0.90763599  0.81083447  1
  Se  Se199  1  0.91324418  0.24064669  0.31271269  1
  Se  Se200  1  0.92093265  0.24826861  0.79973155  1
  Se  Se201  1  0.92464402  0.58579193  0.30724272  1
  Se  Se202  1  0.89211345  0.56410542  0.80235175  1
  Se  Se203  1  0.90629415  0.90809416  0.31280230  1
  Se  Se204  1  0.92780895  0.92090288  0.80451168  1
  Se  Se205  1  0.08480141  0.09613279  0.31505147  1
  Se  Se206  1  0.08530532  0.07736986  0.80258470  1
  Se  Se207  1  0.09566936  0.42900190  0.30755432  1
  Se  Se208  1  0.08007545  0.41287815  0.79752267  1
  Se  Se209  1  0.07983120  0.74594967  0.29809892  1
  Se  Se210  1  0.08902307  0.75181146  0.80744451  1
  Se  Se211  1  0.40973680  0.07273646  0.30406745  1
  Se  Se212  1  0.42490933  0.08789672  0.80086103  1
  Se  Se213  1  0.42950126  0.42441558  0.31217483  1
  Se  Se214  1  0.40923813  0.41690073  0.79981098  1
  Se  Se215  1  0.41687066  0.75155735  0.30792152  1
  Se  Se216  1  0.41365241  0.75071509  0.80532304  1
  Se  Se217  1  0.74467842  0.08215111  0.29822170  1
  Se  Se218  1  0.75918438  0.08357922  0.80617088  1
  Se  Se219  1  0.76585258  0.42173564  0.31977728  1
  Se  Se220  1  0.74991210  0.41605691  0.80773365  1
  Se  Se221  1  0.75308741  0.74917525  0.30218024  1
  Se  Se222  1  0.73711617  0.74758854  0.79840023  1
  Se  Se223  1  0.24270280  0.08361267  0.20727304  1
  Se  Se224  1  0.25072299  0.08290085  0.69968720  1
  Se  Se225  1  0.24970170  0.42377629  0.18499660  1
  Se  Se226  1  0.24953151  0.41677815  0.69398014  1
  Se  Se227  1  0.24731224  0.74691617  0.18989002  1
  Se  Se228  1  0.25398282  0.74751721  0.70206084  1
  Se  Se229  1  0.57960833  0.07599620  0.19588040  1
  Se  Se230  1  0.57614577  0.09153094  0.69102261  1
  Se  Se231  1  0.58361031  0.42353021  0.19430384  1
  Se  Se232  1  0.57246090  0.42719599  0.68646642  1
  Se  Se233  1  0.58817818  0.75193101  0.19849890  1
  Se  Se234  1  0.58160800  0.75094817  0.69562023  1
  Se  Se235  1  0.91304315  0.08761537  0.19032094  1
  Se  Se236  1  0.92301612  0.07854549  0.69394064  1
  Se  Se237  1  0.91241833  0.42894686  0.19217524  1
  Se  Se238  1  0.91325520  0.41022696  0.69760705  1
  Se  Se239  1  0.91701876  0.75001769  0.19710446  1
  Se  Se240  1  0.91944665  0.74488727  0.71127064  1
  Se  Se241  1  0.09516587  0.24287295  0.19731418  1
  Se  Se242  1  0.07947582  0.24741503  0.69321737  1
  Se  Se243  1  0.08063679  0.58636055  0.19165233  1
  Se  Se244  1  0.07980245  0.58628713  0.70126901  1
  Se  Se245  1  0.07995883  0.91070742  0.18791020  1
  Se  Se246  1  0.09171258  0.91368519  0.69810855  1
  Se  Se247  1  0.41803693  0.24068597  0.18924326  1
  Se  Se248  1  0.42002487  0.25071348  0.70100518  1
  Se  Se249  1  0.42000552  0.58397261  0.19882511  1
  Se  Se250  1  0.41008496  0.59051292  0.69380636  1
  Se  Se251  1  0.40879520  0.91106270  0.19538046  1
  Se  Se252  1  0.41795352  0.91921356  0.69919818  1
  Se  Se253  1  0.75391738  0.25105948  0.18954753  1
  Se  Se254  1  0.75582970  0.24279530  0.68789505  1
  Se  Se255  1  0.74606155  0.58518412  0.20292914  1
  Se  Se256  1  0.73367101  0.58891371  0.70493545  1
  Se  Se257  1  0.74880650  0.92132090  0.19295031  1
  Se  Se258  1  0.76282693  0.90665576  0.68749945  1
