# generated using pymatgen
data_In86Cu29Se144
_symmetry_space_group_name_H-M   'P 1'
_cell_length_a   17.58733402
_cell_length_b   17.58190444
_cell_length_c   23.44371860
_cell_angle_alpha   89.99941812
_cell_angle_beta   90.00888710
_cell_angle_gamma   90.03152283
_symmetry_Int_Tables_number   1
_chemical_formula_structural   In86Cu29Se144
_chemical_formula_sum   'In86 Cu29 Se144'
_cell_volume   7249.23795990
_cell_formula_units_Z   1
loop_
 _symmetry_equiv_pos_site_id
 _symmetry_equiv_pos_as_xyz
  1  'x, y, z'
loop_
 _atom_site_type_symbol
 _atom_site_label
 _atom_site_symmetry_multiplicity
 _atom_site_fract_x
 _atom_site_fract_y
 _atom_site_fract_z
 _atom_site_occupancy
  In  In0  1  -0.00108510  0.16132627  0.13605727  1
  In  In1  1  -0.00870391  0.17799489  0.62792199  1
  In  In2  1  -0.00295365  0.50216315  0.13079981  1
  In  In3  1  -0.00466041  0.50383201  0.62441216  1
  In  In4  1  0.00212964  0.83268141  0.12542284  1
  In  In5  1  -0.00202698  0.82702625  0.62700110  1
  In  In6  1  0.33446742  0.15229418  0.12352326  1
  In  In7  1  0.34463317  0.15341630  0.61552628  1
  In  In8  1  0.34088828  0.50332567  0.12465174  1
  In  In9  1  0.34087045  0.50926788  0.61650952  1
  In  In10  1  0.31600490  0.84317040  0.14079377  1
  In  In11  1  0.31130493  0.83229182  0.61996554  1
  In  In12  1  0.67075764  0.18059532  0.12460161  1
  In  In13  1  0.66524840  0.16257151  0.61928433  1
  In  In14  1  0.65791370  0.49738906  0.12617989  1
  In  In15  1  0.67756968  0.51084652  0.61710022  1
  In  In16  1  0.67683650  0.82070556  0.12121763  1
  In  In17  1  0.67755266  0.81709878  0.63380569  1
  In  In18  1  0.15831264  -0.01335059  0.36325961  1
  In  In19  1  0.15125594  -0.00180321  0.87552740  1
  In  In20  1  0.16603062  0.35239607  0.37962234  1
  In  In21  1  0.16329099  0.34224257  0.87215863  1
  In  In22  1  0.16084732  0.67229573  0.37430885  1
  In  In23  1  0.17151722  0.67083671  0.87344286  1
  In  In24  1  0.49485145  0.01131785  0.37572660  1
  In  In25  1  0.49753446  0.00347896  0.88171570  1
  In  In26  1  0.50739481  0.32753073  0.37986860  1
  In  In27  1  0.50800280  0.33642935  0.87893698  1
  In  In28  1  0.48700183  0.66754171  0.37833660  1
  In  In29  1  0.49249394  0.66044574  0.86924663  1
  In  In30  1  0.84931855  -0.01362481  0.38921022  1
  In  In31  1  0.84004598  -0.01652581  0.87376377  1
  In  In32  1  0.83162371  0.33540590  0.37737611  1
  In  In33  1  0.84143627  0.33824230  0.86611449  1
  In  In34  1  0.84622259  0.65460317  0.38650667  1
  In  In35  1  0.87165784  0.70496909  0.82035476  1
  In  In36  1  -0.01045592  0.15845570  0.37545025  1
  In  In37  1  0.00085730  0.16155387  0.86470444  1
  In  In38  1  -0.00005604  0.50558702  0.37601410  1
  In  In39  1  0.00169240  0.51633703  0.85957518  1
  In  In40  1  0.00728802  0.82678937  0.37331987  1
  In  In41  1  0.00210810  0.83210523  0.87544142  1
  In  In42  1  0.34381440  0.16403408  0.37467048  1
  In  In43  1  0.33765307  0.17074383  0.87917847  1
  In  In44  1  0.32074960  0.51215220  0.38863636  1
  In  In45  1  0.33561388  0.51493255  0.87542455  1
  In  In46  1  0.31436762  0.82241661  0.35893967  1
  In  In47  1  0.33365868  0.81908826  0.87793833  1
  In  In48  1  0.65689256  0.17369463  0.38155308  1
  In  In49  1  0.66220202  0.16499696  0.87444515  1
  In  In50  1  0.67761457  0.48954355  0.38449341  1
  In  In51  1  0.66236735  0.50282290  0.87317227  1
  In  In52  1  0.67713390  0.84005459  0.37889641  1
  In  In53  1  0.68808236  0.82901239  0.87119250  1
  In  In54  1  0.17693459  -0.02027550  0.14992809  1
  In  In55  1  0.16644576  -0.02967455  0.61326930  1
  In  In56  1  0.15990303  0.32474256  0.13143763  1
  In  In57  1  0.14683206  0.33368865  0.62037298  1
  In  In58  1  0.14141474  0.69716111  0.15273431  1
  In  In59  1  0.16356860  0.66784130  0.62526567  1
  In  In60  1  0.48160451  0.00117932  0.11943796  1
  In  In61  1  0.49491304  0.00792807  0.61863009  1
  In  In62  1  0.50925549  0.34123931  0.12264396  1
  In  In63  1  0.49540992  0.32833587  0.61933934  1
  In  In64  1  0.50079364  0.65106511  0.12439216  1
  In  In65  1  0.50772928  0.65709558  0.63304588  1
  In  In66  1  0.84890035  -0.01086079  0.12978121  1
  In  In67  1  0.83922517  0.00220779  0.62075434  1
  In  In68  1  0.83440550  0.32893997  0.13781978  1
  In  In69  1  0.84675652  0.34693114  0.61530076  1
  In  In70  1  0.83890419  0.67808750  0.11962571  1
  In  In71  1  0.83736568  0.66413372  0.62848492  1
  In  In72  1  0.33145622  0.33599934  0.25487526  1
  In  In73  1  0.66784793  0.33480513  0.74936558  1
  In  In74  1  0.49779746  0.83306932  0.00162064  1
  In  In75  1  0.32940304  -0.00194919  0.74616766  1
  In  In76  1  0.16875557  0.50762156  -0.00385860  1
  In  In77  1  0.66564271  0.00784951  0.25562933  1
  In  In78  1  0.66800234  0.65987921  0.24910962  1
  In  In79  1  0.50058557  0.83823467  0.49947996  1
  In  In80  1  0.16950558  0.15942921  0.00716763  1
  In  In81  1  0.82853180  0.16434865  -0.00426528  1
  In  In82  1  0.67019470  -0.00820006  0.74409940  1
  In  In83  1  0.83243694  0.50931168  -0.00517685  1
  In  In84  1  0.32520731  0.33409767  0.73816817  1
  In  In85  1  0.16694663  0.16504271  0.49603103  1
  Cu  Cu86  1  0.50018228  0.17032007  0.25193115  1
  Cu  Cu87  1  0.67061045  0.66665195  -0.00477302  1
  Cu  Cu88  1  0.33091489  0.66690776  0.00364134  1
  Cu  Cu89  1  0.84055056  0.82836099  0.25383754  1
  Cu  Cu90  1  -0.00785196  0.34153266  0.49914186  1
  Cu  Cu91  1  0.82937867  0.16768242  0.25915741  1
  Cu  Cu92  1  0.66188381  0.34202977  0.00102971  1
  Cu  Cu93  1  0.00282925  -0.01289239  0.00407464  1
  Cu  Cu94  1  0.00464768  0.67108364  0.50266794  1
  Cu  Cu95  1  0.49261252  0.83292527  0.25037170  1
  Cu  Cu96  1  0.16453923  0.16098991  0.74388128  1
  Cu  Cu97  1  0.16178242  0.82834572  0.74753242  1
  Cu  Cu98  1  0.66758173  0.00249292  -0.00333571  1
  Cu  Cu99  1  0.49508761  0.83350498  0.75337455  1
  Cu  Cu100  1  0.66862407  0.66542345  0.50859703  1
  Cu  Cu101  1  0.49505996  0.49659050  0.74697302  1
  Cu  Cu102  1  0.83754114  0.49860311  0.25703204  1
  Cu  Cu103  1  -0.00094926  0.33035587  -0.00108883  1
  Cu  Cu104  1  0.66395765  0.33174897  0.50243807  1
  Cu  Cu105  1  0.15751375  0.50388111  0.74927779  1
  Cu  Cu106  1  0.50157226  0.49412143  0.25258999  1
  Cu  Cu107  1  0.16344294  0.50549647  0.25834452  1
  Cu  Cu108  1  0.34878415  0.33452706  0.00173087  1
  Cu  Cu109  1  0.83420766  0.16682841  0.74578995  1
  Cu  Cu110  1  0.00409313  -0.00344189  0.49955681  1
  Cu  Cu111  1  0.33100302  0.67209803  0.50005779  1
  Cu  Cu112  1  0.33508446  0.33437864  0.49772165  1
  Cu  Cu113  1  0.15674412  0.16881815  0.25369613  1
  Cu  Cu114  1  0.67339165  -0.00141044  0.50049881  1
  Se  Se115  1  0.07509787  0.07392597  0.06445529  1
  Se  Se116  1  0.08023638  0.07948968  0.56204784  1
  Se  Se117  1  0.08040905  0.41074096  0.05746958  1
  Se  Se118  1  0.07846996  0.42353710  0.55049894  1
  Se  Se119  1  0.08958051  0.75127176  0.05972186  1
  Se  Se120  1  0.08798586  0.75590485  0.55504999  1
  Se  Se121  1  0.41824247  0.08993175  0.04724851  1
  Se  Se122  1  0.41785932  0.07602736  0.54114948  1
  Se  Se123  1  0.42440070  0.42374494  0.05525529  1
  Se  Se124  1  0.41844057  0.41678059  0.55218441  1
  Se  Se125  1  0.41286536  0.74507204  0.06540759  1
  Se  Se126  1  0.41580066  0.74632071  0.56257250  1
  Se  Se127  1  0.74782810  0.07445461  0.06370502  1
  Se  Se128  1  0.75422743  0.08472407  0.55329308  1
  Se  Se129  1  0.75260704  0.41091747  0.06027560  1
  Se  Se130  1  0.75013196  0.41789356  0.55054644  1
  Se  Se131  1  0.75571589  0.75057341  0.04527935  1
  Se  Se132  1  0.75587447  0.74922604  0.55612405  1
  Se  Se133  1  0.25984987  0.26156600  0.06021111  1
  Se  Se134  1  0.25513592  0.25560134  0.56070589  1
  Se  Se135  1  0.24864559  0.59141186  0.06551293  1
  Se  Se136  1  0.24766851  0.58763868  0.55365854  1
  Se  Se137  1  0.24742563  0.92195189  0.06424977  1
  Se  Se138  1  0.27424645  0.93246319  0.54535505  1
  Se  Se139  1  0.58440540  0.25157810  0.05269962  1
  Se  Se140  1  0.58009950  0.24526211  0.55283638  1
  Se  Se141  1  0.59072618  0.58427698  0.05176293  1
  Se  Se142  1  0.57755639  0.58199504  0.55327116  1
  Se  Se143  1  0.59241438  0.92194258  0.06243033  1
  Se  Se144  1  0.59620133  0.91831756  0.56507629  1
  Se  Se145  1  0.91911507  0.25176482  0.05909225  1
  Se  Se146  1  0.91487366  0.24831692  0.54895563  1
  Se  Se147  1  0.92983560  0.59140611  0.05481436  1
  Se  Se148  1  0.91711766  0.58745045  0.55299190  1
  Se  Se149  1  0.91160102  0.90682067  0.05222276  1
  Se  Se150  1  0.92085395  0.91393770  0.55548655  1
  Se  Se151  1  0.07490419  0.25913514  0.44038888  1
  Se  Se152  1  0.08115681  0.24981008  0.94111990  1
  Se  Se153  1  0.08435898  0.58650125  0.44552502  1
  Se  Se154  1  0.07224979  0.59357550  0.94037751  1
  Se  Se155  1  0.08605172  0.91499696  0.44399167  1
  Se  Se156  1  0.08756156  0.90891836  0.94880278  1
  Se  Se157  1  0.41712823  0.24849332  0.44629414  1
  Se  Se158  1  0.42501253  0.25007000  0.94505095  1
  Se  Se159  1  0.41800320  0.58476948  0.45355426  1
  Se  Se160  1  0.41771717  0.58704659  0.94955557  1
  Se  Se161  1  0.41140290  0.90917781  0.42854331  1
  Se  Se162  1  0.40325162  0.92189886  0.94451294  1
  Se  Se163  1  0.74823108  0.25148221  0.44647061  1
  Se  Se164  1  0.74364395  0.26541499  0.93818046  1
  Se  Se165  1  0.74994221  0.58344139  0.45109414  1
  Se  Se166  1  0.75114201  0.59633072  0.93025167  1
  Se  Se167  1  0.75689352  0.90904113  0.45500502  1
  Se  Se168  1  0.75122187  0.91713791  0.94704887  1
  Se  Se169  1  0.24912681  0.07602017  0.43233108  1
  Se  Se170  1  0.25379228  0.07504936  0.93949572  1
  Se  Se171  1  0.24548064  0.42136732  0.45647235  1
  Se  Se172  1  0.26252937  0.40935315  0.94201348  1
  Se  Se173  1  0.24897870  0.75312615  0.44380158  1
  Se  Se174  1  0.24708728  0.74862742  0.95015411  1
  Se  Se175  1  0.58529306  0.07740443  0.44761436  1
  Se  Se176  1  0.58389951  0.08654908  0.94737112  1
  Se  Se177  1  0.58108027  0.41714463  0.44919685  1
  Se  Se178  1  0.58147007  0.42671717  0.94726336  1
  Se  Se179  1  0.59270512  0.74292323  0.44154137  1
  Se  Se180  1  0.58602533  0.74804407  0.93654433  1
  Se  Se181  1  0.91716233  0.08524781  0.45500867  1
  Se  Se182  1  0.92844044  0.07605209  0.94426105  1
  Se  Se183  1  0.91169377  0.42512465  0.44368347  1
  Se  Se184  1  0.92826999  0.41623467  0.93814420  1
  Se  Se185  1  0.92126485  0.75306372  0.44680540  1
  Se  Se186  1  0.90138592  0.74517067  0.92446745  1
  Se  Se187  1  0.23945798  0.24669019  0.31482808  1
  Se  Se188  1  0.24186213  0.24144451  0.80608093  1
  Se  Se189  1  0.25051962  0.58540418  0.30953026  1
  Se  Se190  1  0.24625773  0.58060961  0.80363467  1
  Se  Se191  1  0.25115672  0.92155291  0.29269288  1
  Se  Se192  1  0.24342141  0.90827557  0.80949700  1
  Se  Se193  1  0.58496059  0.25201452  0.30356797  1
  Se  Se194  1  0.57364657  0.24238829  0.80362349  1
  Se  Se195  1  0.57968085  0.57635251  0.31464428  1
  Se  Se196  1  0.57758270  0.57895148  0.80176118  1
  Se  Se197  1  0.57646740  0.90860876  0.31045212  1
  Se  Se198  1  0.57670015  0.91191361  0.81284983  1
  Se  Se199  1  0.91599373  0.25196648  0.30884080  1
  Se  Se200  1  0.91825988  0.24913404  0.80027980  1
  Se  Se201  1  0.91884506  0.58878318  0.30407386  1
  Se  Se202  1  0.90507623  0.56834954  0.78825777  1
  Se  Se203  1  0.91860518  0.91456499  0.30850743  1
  Se  Se204  1  0.93200189  0.92380901  0.80372884  1
  Se  Se205  1  0.07534621  0.08273161  0.30530190  1
  Se  Se206  1  0.08271245  0.07695628  0.79750404  1
  Se  Se207  1  0.07935010  0.41780373  0.30562272  1
  Se  Se208  1  0.07936132  0.41461563  0.80145568  1
  Se  Se209  1  0.09315185  0.75778948  0.29920158  1
  Se  Se210  1  0.08298912  0.74602941  0.80482722  1
  Se  Se211  1  0.41583558  0.08340476  0.29865043  1
  Se  Se212  1  0.42046568  0.08753554  0.80626042  1
  Se  Se213  1  0.41748940  0.42431346  0.31801031  1
  Se  Se214  1  0.41545721  0.41599464  0.80713714  1
  Se  Se215  1  0.41505711  0.74339793  0.30152133  1
  Se  Se216  1  0.41044891  0.74663892  0.80174013  1
  Se  Se217  1  0.75772234  0.08361450  0.32250488  1
  Se  Se218  1  0.75671951  0.08722384  0.80855331  1
  Se  Se219  1  0.74862099  0.41633182  0.30468238  1
  Se  Se220  1  0.75835273  0.42930879  0.80255431  1
  Se  Se221  1  0.75695342  0.74857321  0.31140565  1
  Se  Se222  1  0.73399446  0.74201489  0.79158052  1
  Se  Se223  1  0.24624116  0.09318512  0.19960377  1
  Se  Se224  1  0.24077982  0.08369968  0.68082996  1
  Se  Se225  1  0.24051221  0.42570210  0.19359907  1
  Se  Se226  1  0.23612797  0.42833042  0.68339634  1
  Se  Se227  1  0.27154655  0.72608912  0.19703711  1
  Se  Se228  1  0.24995540  0.74739991  0.69680482  1
  Se  Se229  1  0.57768842  0.08981702  0.18804248  1
  Se  Se230  1  0.57656343  0.08728196  0.69431929  1
  Se  Se231  1  0.58730904  0.41335875  0.20053648  1
  Se  Se232  1  0.57759009  0.42066479  0.68605245  1
  Se  Se233  1  0.57668662  0.75552693  0.19141983  1
  Se  Se234  1  0.57946880  0.75145474  0.69979210  1
  Se  Se235  1  0.90767727  0.08426233  0.20165988  1
  Se  Se236  1  0.91796905  0.08293946  0.69353644  1
  Se  Se237  1  0.91979151  0.41540578  0.19989671  1
  Se  Se238  1  0.92347816  0.41135697  0.69370592  1
  Se  Se239  1  0.91890057  0.74676055  0.19577172  1
  Se  Se240  1  0.92296367  0.74244648  0.69977269  1
  Se  Se241  1  0.07385054  0.25422900  0.20271623  1
  Se  Se242  1  0.08163241  0.25169120  0.69759395  1
  Se  Se243  1  0.07661040  0.58221304  0.20258335  1
  Se  Se244  1  0.07787120  0.58804378  0.69390841  1
  Se  Se245  1  0.05169359  0.93770336  0.19449240  1
  Se  Se246  1  0.08357711  0.91500821  0.69363996  1
  Se  Se247  1  0.41927194  0.24985593  0.18981297  1
  Se  Se248  1  0.42030773  0.23704934  0.69243027  1
  Se  Se249  1  0.42020542  0.57872016  0.20017405  1
  Se  Se250  1  0.41037027  0.58288127  0.69737497  1
  Se  Se251  1  0.41643893  0.92246448  0.19825919  1
  Se  Se252  1  0.42093185  0.90837849  0.68626119  1
  Se  Se253  1  0.74626514  0.24915232  0.20420691  1
  Se  Se254  1  0.75573124  0.24738459  0.68567043  1
  Se  Se255  1  0.76223470  0.57453592  0.18761391  1
  Se  Se256  1  0.73849947  0.59422523  0.69366930  1
  Se  Se257  1  0.75177898  0.90726640  0.19801401  1
  Se  Se258  1  0.77051778  0.90504693  0.69515685  1
