# generated using pymatgen
data_In86Cu29Se144
_symmetry_space_group_name_H-M   'P 1'
_cell_length_a   17.58251626
_cell_length_b   17.57814160
_cell_length_c   23.43693942
_cell_angle_alpha   90.01762279
_cell_angle_beta   89.97909759
_cell_angle_gamma   89.99261603
_symmetry_Int_Tables_number   1
_chemical_formula_structural   In86Cu29Se144
_chemical_formula_sum   'In86 Cu29 Se144'
_cell_volume   7243.60617984
_cell_formula_units_Z   1
loop_
 _symmetry_equiv_pos_site_id
 _symmetry_equiv_pos_as_xyz
  1  'x, y, z'
loop_
 _atom_site_type_symbol
 _atom_site_label
 _atom_site_symmetry_multiplicity
 _atom_site_fract_x
 _atom_site_fract_y
 _atom_site_fract_z
 _atom_site_occupancy
  In  In0  1  0.00458091  0.17153313  0.11973352  1
  In  In1  1  0.00511109  0.17725636  0.62377124  1
  In  In2  1  0.00159330  0.49705279  0.13171630  1
  In  In3  1  -0.00179614  0.49846113  0.62724546  1
  In  In4  1  -0.00320370  0.82686984  0.12030578  1
  In  In5  1  -0.00856392  0.82793727  0.62823424  1
  In  In6  1  0.33643969  0.15970169  0.12740308  1
  In  In7  1  0.33847539  0.15866193  0.62663982  1
  In  In8  1  0.33778245  0.49240878  0.13028961  1
  In  In9  1  0.34475824  0.50595844  0.62262648  1
  In  In10  1  0.32932249  0.83546101  0.12682141  1
  In  In11  1  0.33553592  0.82725516  0.62878717  1
  In  In12  1  0.66743154  0.16356852  0.12698097  1
  In  In13  1  0.66048816  0.16670873  0.61087203  1
  In  In14  1  0.65776794  0.50638173  0.13479418  1
  In  In15  1  0.65876309  0.49706390  0.61582568  1
  In  In16  1  0.67041140  0.82929463  0.13188503  1
  In  In17  1  0.66182302  0.84470214  0.62040969  1
  In  In18  1  0.16747458  -0.00345612  0.37001472  1
  In  In19  1  0.17926594  -0.01225124  0.88474281  1
  In  In20  1  0.16527849  0.32663615  0.35617863  1
  In  In21  1  0.15478275  0.33750997  0.87730571  1
  In  In22  1  0.16237861  0.66342017  0.36561582  1
  In  In23  1  0.17781816  0.67775788  0.87063357  1
  In  In24  1  0.50199025  -0.00088103  0.37032247  1
  In  In25  1  0.49201126  0.02147716  0.87705512  1
  In  In26  1  0.50241585  0.33350030  0.37725378  1
  In  In27  1  0.49941809  0.33102682  0.88688823  1
  In  In28  1  0.49728686  0.66822803  0.37274482  1
  In  In29  1  0.48193573  0.67127330  0.88183571  1
  In  In30  1  0.83133758  0.02375530  0.37775009  1
  In  In31  1  0.82505048  0.00232303  0.89365281  1
  In  In32  1  0.81781110  0.32082685  0.36501056  1
  In  In33  1  0.83520805  0.32280265  0.87904851  1
  In  In34  1  0.83447134  0.67326532  0.36708971  1
  In  In35  1  0.84709827  0.66297422  0.87828597  1
  In  In36  1  -0.01607448  0.16473579  0.37338106  1
  In  In37  1  -0.00373965  0.17149477  0.88275469  1
  In  In38  1  0.00213421  0.50255900  0.36928480  1
  In  In39  1  0.00306333  0.50164192  0.86698693  1
  In  In40  1  0.00637721  0.83294321  0.37251123  1
  In  In41  1  0.00905531  0.82856848  0.88299702  1
  In  In42  1  0.34596319  0.18101440  0.35686270  1
  In  In43  1  0.34370345  0.15435986  0.88268432  1
  In  In44  1  0.34394429  0.51001615  0.36552245  1
  In  In45  1  0.33309934  0.51276830  0.88175826  1
  In  In46  1  0.34238524  0.84646464  0.36370770  1
  In  In47  1  0.32424714  0.82603932  0.87133056  1
  In  In48  1  0.66687206  0.17004388  0.37301707  1
  In  In49  1  0.66015417  0.16656557  0.88779066  1
  In  In50  1  0.64824393  0.48701586  0.36673390  1
  In  In51  1  0.66011600  0.48840331  0.88124467  1
  In  In52  1  0.65488099  0.82185849  0.36438174  1
  In  In53  1  0.66758108  0.85269515  0.88366455  1
  In  In54  1  0.17972151  0.01104926  0.11892788  1
  In  In55  1  0.17790882  0.01338685  0.62782434  1
  In  In56  1  0.18539981  0.30745209  0.14615670  1
  In  In57  1  0.15603510  0.32333638  0.62801700  1
  In  In58  1  0.16589756  0.66897268  0.12693798  1
  In  In59  1  0.16457578  0.67136680  0.63114258  1
  In  In60  1  0.49434571  0.00643419  0.13104335  1
  In  In61  1  0.49802339  -0.00207084  0.61752842  1
  In  In62  1  0.50130365  0.32907293  0.12892204  1
  In  In63  1  0.49645420  0.33184608  0.60967822  1
  In  In64  1  0.50062985  0.66157087  0.12897811  1
  In  In65  1  0.49015569  0.66171887  0.61836756  1
  In  In66  1  0.82213019  -0.00563626  0.11508576  1
  In  In67  1  0.82153590  0.00008374  0.62247876  1
  In  In68  1  0.84263419  0.31958788  0.13429109  1
  In  In69  1  0.83763688  0.33413088  0.62202379  1
  In  In70  1  0.83142484  0.66957638  0.13271209  1
  In  In71  1  0.84044743  0.67414954  0.62738736  1
  In  In72  1  0.00193953  0.00256572  0.25015333  1
  In  In73  1  0.66473399  0.32890341  0.75468795  1
  In  In74  1  0.66383532  0.00449374  0.75048870  1
  In  In75  1  0.50131749  0.83784510  0.00788508  1
  In  In76  1  0.16845170  0.49574234  0.00495947  1
  In  In77  1  0.00354699  -0.00254684  0.75286284  1
  In  In78  1  0.82742368  0.49784956  0.49942728  1
  In  In79  1  0.16787794  0.83538581  0.49468473  1
  In  In80  1  0.17111663  0.16506994  0.49931754  1
  In  In81  1  0.66788479  0.66430667  0.74720793  1
  In  In82  1  0.17187217  0.50209364  0.48699024  1
  In  In83  1  0.33007682  0.33618966  0.74532515  1
  In  In84  1  0.82910492  0.49901001  0.00778919  1
  In  In85  1  0.82845929  0.83748563  0.49973654  1
  Cu  Cu86  1  0.83855052  0.16969712  0.75381009  1
  Cu  Cu87  1  0.49588720  0.50302888  0.74930807  1
  Cu  Cu88  1  0.49039136  0.83542547  0.74801604  1
  Cu  Cu89  1  0.33293931  -0.00053397  0.00355191  1
  Cu  Cu90  1  0.50220263  0.16640331  0.25028015  1
  Cu  Cu91  1  0.00357689  0.33271152  0.00545358  1
  Cu  Cu92  1  0.00716568  0.67345017  -0.00105825  1
  Cu  Cu93  1  0.66197143  0.00207805  0.49344107  1
  Cu  Cu94  1  0.83382718  0.83755644  0.24513416  1
  Cu  Cu95  1  0.82937290  0.16711822  0.24733777  1
  Cu  Cu96  1  0.33795936  0.33494221  0.49236185  1
  Cu  Cu97  1  0.00067170  0.00085996  0.00438816  1
  Cu  Cu98  1  0.34278973  0.00337058  0.49427010  1
  Cu  Cu99  1  0.16322011  0.50482029  0.75241378  1
  Cu  Cu100  1  0.33788508  0.67296838  0.49603439  1
  Cu  Cu101  1  0.49818546  0.83163380  0.24607626  1
  Cu  Cu102  1  0.33613671  0.32553829  0.01087059  1
  Cu  Cu103  1  0.16888207  0.83185354  0.75627052  1
  Cu  Cu104  1  0.83099352  0.50382876  0.25314557  1
  Cu  Cu105  1  0.16607901  0.50229904  0.24649736  1
  Cu  Cu106  1  0.84060428  0.82591397  0.75905058  1
  Cu  Cu107  1  0.16696016  0.83197878  0.24748422  1
  Cu  Cu108  1  0.16920656  0.16599045  0.75488104  1
  Cu  Cu109  1  -0.00526388  0.33254154  0.49679359  1
  Cu  Cu110  1  0.84397420  0.49584549  0.74672593  1
  Cu  Cu111  1  0.66594353  0.66944635  0.01078198  1
  Cu  Cu112  1  0.66091741  0.33116062  0.00814932  1
  Cu  Cu113  1  0.49858520  0.49751661  0.25152230  1
  Cu  Cu114  1  0.65981370  0.66232740  0.49182140  1
  Se  Se115  1  0.08604344  0.08577164  0.05304745  1
  Se  Se116  1  0.07822939  0.07543625  0.55864837  1
  Se  Se117  1  0.08595591  0.40485652  0.06798952  1
  Se  Se118  1  0.08115282  0.41244924  0.55269694  1
  Se  Se119  1  0.09114071  0.75290686  0.05371191  1
  Se  Se120  1  0.07763026  0.74650935  0.55635609  1
  Se  Se121  1  0.41935220  0.08237109  0.05361034  1
  Se  Se122  1  0.41988423  0.08942594  0.55057995  1
  Se  Se123  1  0.41875836  0.41321479  0.05868443  1
  Se  Se124  1  0.41362057  0.42303330  0.54791504  1
  Se  Se125  1  0.41065739  0.74228413  0.05886862  1
  Se  Se126  1  0.41698114  0.75671681  0.55248187  1
  Se  Se127  1  0.76232781  0.10161102  0.05517353  1
  Se  Se128  1  0.74842686  0.08012698  0.54910754  1
  Se  Se129  1  0.74316606  0.40877421  0.06862571  1
  Se  Se130  1  0.73758040  0.40058797  0.55289192  1
  Se  Se131  1  0.75344848  0.75007722  0.05970448  1
  Se  Se132  1  0.73828914  0.73914750  0.55772098  1
  Se  Se133  1  0.24853915  0.24297210  0.05910235  1
  Se  Se134  1  0.25946999  0.26098764  0.55907754  1
  Se  Se135  1  0.25910667  0.58604413  0.06055095  1
  Se  Se136  1  0.25371803  0.59371272  0.55474763  1
  Se  Se137  1  0.24924296  0.91315995  0.05299995  1
  Se  Se138  1  0.25792408  0.92684657  0.55505071  1
  Se  Se139  1  0.57868123  0.24322280  0.05781226  1
  Se  Se140  1  0.58187891  0.25189596  0.54511921  1
  Se  Se141  1  0.58273807  0.58146019  0.05692926  1
  Se  Se142  1  0.57808112  0.58298738  0.55073443  1
  Se  Se143  1  0.59187369  0.92583224  0.06528645  1
  Se  Se144  1  0.58066626  0.91610917  0.54694248  1
  Se  Se145  1  0.91327386  0.24999473  0.05219426  1
  Se  Se146  1  0.91667771  0.24831295  0.55307494  1
  Se  Se147  1  0.92712789  0.59093715  0.05843633  1
  Se  Se148  1  0.92159080  0.58967888  0.55527100  1
  Se  Se149  1  0.91697590  0.91449801  0.05367693  1
  Se  Se150  1  0.92339984  0.92474555  0.55965228  1
  Se  Se151  1  0.08232062  0.25662265  0.43863202  1
  Se  Se152  1  0.08618546  0.25048449  0.94997271  1
  Se  Se153  1  0.07252004  0.59620075  0.44321710  1
  Se  Se154  1  0.08169728  0.58602239  0.94027158  1
  Se  Se155  1  0.07278606  0.93047511  0.44363678  1
  Se  Se156  1  0.08485950  0.91640892  0.95098604  1
  Se  Se157  1  0.41556558  0.24443222  0.44176640  1
  Se  Se158  1  0.41789040  0.24412393  0.95202281  1
  Se  Se159  1  0.41705197  0.58355149  0.44435044  1
  Se  Se160  1  0.42837238  0.57240373  0.95108748  1
  Se  Se161  1  0.42099928  0.91432353  0.44209367  1
  Se  Se162  1  0.41204654  0.92000494  0.93982287  1
  Se  Se163  1  0.76217062  0.23583572  0.44308840  1
  Se  Se164  1  0.74552424  0.25495556  0.94954555  1
  Se  Se165  1  0.74406255  0.58687124  0.43352803  1
  Se  Se166  1  0.74149255  0.58981200  0.94360681  1
  Se  Se167  1  0.74147662  0.91999622  0.43328029  1
  Se  Se168  1  0.75647212  0.90717255  0.95902649  1
  Se  Se169  1  0.26032491  0.08161744  0.43456762  1
  Se  Se170  1  0.24897331  0.08496423  0.95049078  1
  Se  Se171  1  0.25580848  0.40625458  0.42928458  1
  Se  Se172  1  0.26036479  0.40457102  0.94406570  1
  Se  Se173  1  0.25611734  0.74631557  0.43314572  1
  Se  Se174  1  0.25516666  0.74613398  0.94729210  1
  Se  Se175  1  0.57966568  0.08563043  0.43996037  1
  Se  Se176  1  0.60132574  0.05659489  0.94452970  1
  Se  Se177  1  0.58095865  0.41771656  0.44777998  1
  Se  Se178  1  0.57940614  0.41697781  0.95527599  1
  Se  Se179  1  0.57887214  0.75242516  0.44379230  1
  Se  Se180  1  0.58987256  0.74597911  0.94291397  1
  Se  Se181  1  0.92221505  0.08286691  0.45084102  1
  Se  Se182  1  0.91764442  0.08666476  0.95178156  1
  Se  Se183  1  0.91708680  0.41179707  0.43550735  1
  Se  Se184  1  0.92506314  0.41594733  0.94447559  1
  Se  Se185  1  0.92149300  0.74725088  0.44322248  1
  Se  Se186  1  0.91555959  0.75171267  0.94899918  1
  Se  Se187  1  0.24552449  0.24166417  0.29102759  1
  Se  Se188  1  0.24795164  0.24987752  0.81370730  1
  Se  Se189  1  0.25081807  0.58539333  0.29984778  1
  Se  Se190  1  0.25171255  0.58145046  0.80531092  1
  Se  Se191  1  0.24816079  0.92013309  0.29795505  1
  Se  Se192  1  0.25298446  0.92008511  0.80301852  1
  Se  Se193  1  0.58255970  0.25201966  0.30470653  1
  Se  Se194  1  0.57262627  0.24023306  0.81196023  1
  Se  Se195  1  0.58094528  0.58681099  0.30250277  1
  Se  Se196  1  0.57887988  0.57838675  0.81131641  1
  Se  Se197  1  0.58270160  0.91623001  0.29855025  1
  Se  Se198  1  0.57192406  0.91251750  0.80857984  1
  Se  Se199  1  0.91571733  0.25020553  0.29919755  1
  Se  Se200  1  0.92163882  0.25242337  0.80636451  1
  Se  Se201  1  0.91875466  0.58696647  0.30251487  1
  Se  Se202  1  0.91836387  0.58575737  0.80073104  1
  Se  Se203  1  0.90744602  0.91624568  0.31209511  1
  Se  Se204  1  0.91009719  0.91687346  0.81726550  1
  Se  Se205  1  0.08915814  0.09627859  0.30828174  1
  Se  Se206  1  0.09057776  0.08487145  0.81616820  1
  Se  Se207  1  0.08003420  0.41953812  0.29860055  1
  Se  Se208  1  0.08240349  0.41410133  0.79978654  1
  Se  Se209  1  0.08009906  0.75107902  0.29990841  1
  Se  Se210  1  0.08070180  0.74969911  0.80549645  1
  Se  Se211  1  0.41727006  0.07738405  0.29884666  1
  Se  Se212  1  0.41243743  0.08643980  0.79981589  1
  Se  Se213  1  0.41702725  0.41107156  0.30460933  1
  Se  Se214  1  0.42113552  0.41948554  0.81138662  1
  Se  Se215  1  0.41480604  0.74849166  0.30098269  1
  Se  Se216  1  0.41362256  0.74758663  0.80256326  1
  Se  Se217  1  0.74593114  0.08376059  0.30053334  1
  Se  Se218  1  0.75731276  0.09035317  0.81289416  1
  Se  Se219  1  0.74540769  0.41712870  0.30116578  1
  Se  Se220  1  0.76015898  0.42375155  0.80947056  1
  Se  Se221  1  0.75022649  0.75135854  0.29769801  1
  Se  Se222  1  0.74935080  0.75363675  0.81559658  1
  Se  Se223  1  0.24937443  0.08341356  0.19771837  1
  Se  Se224  1  0.25613914  0.08689347  0.70241447  1
  Se  Se225  1  0.25369637  0.41513434  0.20165560  1
  Se  Se226  1  0.23896022  0.42835516  0.68467512  1
  Se  Se227  1  0.25205446  0.74771125  0.19658206  1
  Se  Se228  1  0.25098774  0.74915529  0.69881664  1
  Se  Se229  1  0.58558001  0.08165263  0.19837517  1
  Se  Se230  1  0.57737596  0.09198071  0.68823814  1
  Se  Se231  1  0.58261375  0.41294358  0.19972362  1
  Se  Se232  1  0.57529070  0.41960217  0.69176324  1
  Se  Se233  1  0.58326198  0.74621115  0.19639549  1
  Se  Se234  1  0.57780031  0.75819540  0.68991156  1
  Se  Se235  1  0.91010191  0.08566865  0.18731199  1
  Se  Se236  1  0.91121294  0.08532980  0.69110425  1
  Se  Se237  1  0.91161016  0.42012172  0.19761047  1
  Se  Se238  1  0.92199533  0.40768267  0.69427028  1
  Se  Se239  1  0.92033553  0.75226786  0.19765791  1
  Se  Se240  1  0.92179180  0.74469795  0.70339091  1
  Se  Se241  1  0.06353976  0.26059491  0.19569705  1
  Se  Se242  1  0.08128120  0.24642618  0.70352256  1
  Se  Se243  1  0.08180536  0.58712491  0.19572391  1
  Se  Se244  1  0.08011146  0.58378045  0.69418757  1
  Se  Se245  1  0.08876322  0.91442837  0.18648688  1
  Se  Se246  1  0.09430774  0.91003819  0.68882905  1
  Se  Se247  1  0.41620113  0.24716386  0.19671748  1
  Se  Se248  1  0.42719639  0.24973237  0.69056587  1
  Se  Se249  1  0.41556931  0.58178235  0.19839098  1
  Se  Se250  1  0.41460613  0.58923560  0.69767036  1
  Se  Se251  1  0.41341146  0.91645004  0.19547434  1
  Se  Se252  1  0.41532071  0.92168425  0.69068045  1
  Se  Se253  1  0.74253130  0.25270102  0.19873388  1
  Se  Se254  1  0.75311574  0.24110215  0.69089222  1
  Se  Se255  1  0.74751963  0.58697593  0.19944200  1
  Se  Se256  1  0.75797428  0.57004370  0.68636241  1
  Se  Se257  1  0.74990798  0.92272414  0.19593431  1
  Se  Se258  1  0.75873790  0.90403963  0.69806421  1
