# generated using pymatgen
data_In86Cu29Se144
_symmetry_space_group_name_H-M   'P 1'
_cell_length_a   17.58143372
_cell_length_b   17.57648428
_cell_length_c   23.44416578
_cell_angle_alpha   89.99947292
_cell_angle_beta   90.00110953
_cell_angle_gamma   90.01308672
_symmetry_Int_Tables_number   1
_chemical_formula_structural   In86Cu29Se144
_chemical_formula_sum   'In86 Cu29 Se144'
_cell_volume   7244.71107427
_cell_formula_units_Z   1
loop_
 _symmetry_equiv_pos_site_id
 _symmetry_equiv_pos_as_xyz
  1  'x, y, z'
loop_
 _atom_site_type_symbol
 _atom_site_label
 _atom_site_symmetry_multiplicity
 _atom_site_fract_x
 _atom_site_fract_y
 _atom_site_fract_z
 _atom_site_occupancy
  In  In0  1  0.00090322  0.16908064  0.12079589  1
  In  In1  1  -0.00138281  0.17009913  0.62898972  1
  In  In2  1  0.00717861  0.47439187  0.12823075  1
  In  In3  1  -0.02195086  0.47697833  0.60328002  1
  In  In4  1  0.00018919  0.84099131  0.12202579  1
  In  In5  1  0.00151246  0.84717013  0.62699574  1
  In  In6  1  0.32612278  0.17672354  0.13382911  1
  In  In7  1  0.33225150  0.16267802  0.62500304  1
  In  In8  1  0.32259843  0.50383354  0.13142266  1
  In  In9  1  0.32073708  0.50044899  0.62129786  1
  In  In10  1  0.31712812  0.84381985  0.13059571  1
  In  In11  1  0.34287162  0.83361169  0.61563399  1
  In  In12  1  0.67098251  0.13729200  0.13241432  1
  In  In13  1  0.66779642  0.16918319  0.62256729  1
  In  In14  1  0.67272194  0.50474037  0.12657171  1
  In  In15  1  0.67482183  0.48029530  0.63054173  1
  In  In16  1  0.67976411  0.84201910  0.12543540  1
  In  In17  1  0.67146187  0.85057579  0.62219501  1
  In  In18  1  0.16379530  0.01941581  0.37427496  1
  In  In19  1  0.16923733  0.00120902  0.87846196  1
  In  In20  1  0.16814858  0.32826945  0.37614680  1
  In  In21  1  0.16812714  0.33269842  0.87415209  1
  In  In22  1  0.16260081  0.64942706  0.37289055  1
  In  In23  1  0.15690246  0.66756115  0.88512412  1
  In  In24  1  0.50683681  -0.00762378  0.38311735  1
  In  In25  1  0.50707837  0.01495006  0.86466829  1
  In  In26  1  0.48228770  0.33204871  0.37741211  1
  In  In27  1  0.49456895  0.31885234  0.86438644  1
  In  In28  1  0.50134676  0.68026238  0.37467539  1
  In  In29  1  0.49651383  0.66661350  0.87251398  1
  In  In30  1  0.84644457  0.01035505  0.35985563  1
  In  In31  1  0.83742509  0.00580056  0.87163448  1
  In  In32  1  0.84674312  0.31582006  0.38319370  1
  In  In33  1  0.82427348  0.31022948  0.84739153  1
  In  In34  1  0.83079422  0.67085756  0.38174732  1
  In  In35  1  0.85312510  0.66565387  0.87794114  1
  In  In36  1  0.00144346  0.16429167  0.37207934  1
  In  In37  1  0.00320354  0.16946843  0.86859225  1
  In  In38  1  0.02043082  0.48782969  0.39378460  1
  In  In39  1  0.00712184  0.49584291  0.87392493  1
  In  In40  1  -0.00900736  0.85316985  0.37038411  1
  In  In41  1  -0.00711838  0.84008979  0.88660995  1
  In  In42  1  0.32073925  0.17774059  0.38400154  1
  In  In43  1  0.32483508  0.15884164  0.86809535  1
  In  In44  1  0.31974674  0.48614788  0.36727612  1
  In  In45  1  0.32568836  0.48528821  0.87177663  1
  In  In46  1  0.35274916  0.83666364  0.36659146  1
  In  In47  1  0.31994939  0.83332299  0.88038987  1
  In  In48  1  0.67516529  0.15661629  0.38436536  1
  In  In49  1  0.67864960  0.16853818  0.86236221  1
  In  In50  1  0.67560357  0.50869034  0.38254872  1
  In  In51  1  0.68531291  0.47969204  0.87441428  1
  In  In52  1  0.65645228  0.84014342  0.37216987  1
  In  In53  1  0.67336179  0.85667049  0.86988515  1
  In  In54  1  0.16019051  -0.00367119  0.11957739  1
  In  In55  1  0.15047461  0.01695089  0.63478102  1
  In  In56  1  0.16294389  0.33126851  0.11988123  1
  In  In57  1  0.16665737  0.33342051  0.62632036  1
  In  In58  1  0.17141502  0.67162163  0.12612744  1
  In  In59  1  0.16994305  0.66476142  0.61622809  1
  In  In60  1  0.51318262  0.00811677  0.13639800  1
  In  In61  1  0.49853034  0.00139381  0.61768439  1
  In  In62  1  0.48982767  0.31078787  0.13051256  1
  In  In63  1  0.51135024  0.31640524  0.62723615  1
  In  In64  1  0.49610899  0.65476267  0.13056913  1
  In  In65  1  0.48705899  0.66806549  0.61505975  1
  In  In66  1  0.83693779  0.00435577  0.12301506  1
  In  In67  1  0.81452669  0.02728831  0.65260087  1
  In  In68  1  0.85217278  0.33145698  0.12548280  1
  In  In69  1  0.83468416  0.33058681  0.63073521  1
  In  In70  1  0.82281558  0.67498318  0.12510929  1
  In  In71  1  0.84337443  0.64938200  0.62435906  1
  In  In72  1  0.66256901  0.67442270  0.25771376  1
  In  In73  1  0.83444612  0.84025266  0.49892136  1
  In  In74  1  0.32810519  0.67106237  0.74397134  1
  In  In75  1  0.84923422  0.49700758  -0.00295330  1
  In  In76  1  0.33583378  0.00772888  0.24907648  1
  In  In77  1  0.49331689  0.83584886  0.00581990  1
  In  In78  1  0.49835507  0.16464929  0.00839880  1
  In  In79  1  0.50300312  0.49831227  0.49912882  1
  In  In80  1  0.17057851  0.83338273  0.49842403  1
  In  In81  1  0.49542920  0.49953223  -0.00243698  1
  In  In82  1  0.66126240  0.66913149  0.74403785  1
  In  In83  1  0.66398798  0.33301787  0.25524263  1
  In  In84  1  0.00442948  0.65847357  0.75218251  1
  In  In85  1  -0.00067659  0.67103353  0.24932331  1
  Cu  Cu86  1  0.17124326  0.83336971  0.24837457  1
  Cu  Cu87  1  0.17046193  0.17090004  0.75017071  1
  Cu  Cu88  1  0.32433686  0.33413435  0.00155184  1
  Cu  Cu89  1  0.33011559  -0.00020434  0.00067249  1
  Cu  Cu90  1  0.49064224  0.49279975  0.25079016  1
  Cu  Cu91  1  0.32981084  0.33058513  0.50213609  1
  Cu  Cu92  1  0.00318058  0.32613263  0.50079627  1
  Cu  Cu93  1  0.83738447  0.16808372  0.24908673  1
  Cu  Cu94  1  0.67503630  0.32809449  0.50438812  1
  Cu  Cu95  1  0.16385621  0.49514099  0.74727662  1
  Cu  Cu96  1  0.67191203  0.68161485  -0.00337596  1
  Cu  Cu97  1  0.16662759  0.84494248  0.75367318  1
  Cu  Cu98  1  0.31706891  0.66441821  0.00675058  1
  Cu  Cu99  1  0.00149349  0.66632215  0.00763307  1
  Cu  Cu100  1  0.67554969  0.32534026  -0.00556090  1
  Cu  Cu101  1  0.67187044  0.66535789  0.50100949  1
  Cu  Cu102  1  0.68381150  0.00566363  -0.00335558  1
  Cu  Cu103  1  0.84382398  0.49995920  0.26042357  1
  Cu  Cu104  1  0.66956462  0.00348558  0.50383276  1
  Cu  Cu105  1  0.33359260  0.66641270  0.49151542  1
  Cu  Cu106  1  -0.00681298  0.01092600  0.50295605  1
  Cu  Cu107  1  0.16873340  0.48914254  0.25217242  1
  Cu  Cu108  1  0.49682899  0.84681435  0.74385168  1
  Cu  Cu109  1  -0.00052993  0.00660117  -0.00163685  1
  Cu  Cu110  1  0.49893697  0.16349955  0.74110567  1
  Cu  Cu111  1  0.50229460  0.49327617  0.75130228  1
  Cu  Cu112  1  0.00160793  0.32390885  -0.00606115  1
  Cu  Cu113  1  0.83785615  0.83209064  0.75501558  1
  Cu  Cu114  1  0.33083596  0.00320334  0.49822703  1
  Se  Se115  1  0.08515143  0.08606869  0.05181077  1
  Se  Se116  1  0.08142704  0.09038892  0.55462212  1
  Se  Se117  1  0.08187202  0.41243316  0.04573776  1
  Se  Se118  1  0.08968752  0.41299614  0.55016659  1
  Se  Se119  1  0.08366417  0.75084449  0.05941512  1
  Se  Se120  1  0.07317845  0.75108527  0.55776596  1
  Se  Se121  1  0.40770565  0.07255152  0.06719426  1
  Se  Se122  1  0.41514208  0.08674439  0.55121364  1
  Se  Se123  1  0.41327190  0.40757304  0.06146071  1
  Se  Se124  1  0.41490749  0.41068150  0.56155715  1
  Se  Se125  1  0.40485254  0.74079275  0.06389443  1
  Se  Se126  1  0.41751767  0.75204644  0.54122004  1
  Se  Se127  1  0.75889045  0.09312379  0.05125671  1
  Se  Se128  1  0.75603574  0.08039632  0.55951350  1
  Se  Se129  1  0.74802715  0.41224708  0.05666040  1
  Se  Se130  1  0.75692240  0.41486363  0.55443322  1
  Se  Se131  1  0.75549088  0.76138404  0.05099468  1
  Se  Se132  1  0.75008506  0.74445410  0.56424125  1
  Se  Se133  1  0.24894970  0.24395735  0.05440358  1
  Se  Se134  1  0.24815543  0.24822391  0.55782876  1
  Se  Se135  1  0.23889376  0.57456059  0.05688550  1
  Se  Se136  1  0.25210822  0.58426376  0.54615146  1
  Se  Se137  1  0.24554987  0.91356355  0.05030063  1
  Se  Se138  1  0.24759798  0.92844499  0.56236207  1
  Se  Se139  1  0.59700486  0.25340252  0.06290036  1
  Se  Se140  1  0.58372812  0.24476875  0.54804330  1
  Se  Se141  1  0.59423209  0.59421570  0.05363052  1
  Se  Se142  1  0.59392256  0.58547072  0.56353578  1
  Se  Se143  1  0.59025127  0.93256183  0.05398315  1
  Se  Se144  1  0.58228673  0.91460116  0.54938102  1
  Se  Se145  1  0.91368041  0.24718772  0.04812400  1
  Se  Se146  1  0.91720293  0.25079264  0.55772570  1
  Se  Se147  1  0.92345340  0.58598088  0.07078644  1
  Se  Se148  1  0.92667188  0.59219384  0.54680872  1
  Se  Se149  1  0.91749059  0.92134231  0.05213961  1
  Se  Se150  1  0.91285802  0.93290974  0.56368886  1
  Se  Se151  1  0.08314805  0.24485732  0.44352512  1
  Se  Se152  1  0.08934703  0.24443891  0.94161461  1
  Se  Se153  1  0.08616535  0.59075433  0.45439218  1
  Se  Se154  1  0.07579191  0.57933047  0.94994873  1
  Se  Se155  1  0.07548810  0.92864575  0.44601916  1
  Se  Se156  1  0.08507005  0.92000177  0.94845567  1
  Se  Se157  1  0.41648194  0.24775293  0.45281704  1
  Se  Se158  1  0.40950302  0.25297874  0.94384072  1
  Se  Se159  1  0.41371210  0.58116512  0.43376137  1
  Se  Se160  1  0.40032768  0.59232651  0.94124975  1
  Se  Se161  1  0.41258341  0.91532339  0.44857641  1
  Se  Se162  1  0.41633172  0.92858007  0.93805343  1
  Se  Se163  1  0.75709805  0.24200604  0.45149284  1
  Se  Se164  1  0.75706794  0.24821731  0.93567888  1
  Se  Se165  1  0.75996236  0.58240954  0.45388223  1
  Se  Se166  1  0.74753321  0.58789761  0.94156523  1
  Se  Se167  1  0.74728564  0.92840722  0.43662217  1
  Se  Se168  1  0.76121901  0.91701519  0.94503731  1
  Se  Se169  1  0.24285887  0.08739492  0.45202221  1
  Se  Se170  1  0.25167664  0.08731129  0.94779181  1
  Se  Se171  1  0.24894543  0.41434280  0.44740046  1
  Se  Se172  1  0.24404875  0.42001297  0.94827129  1
  Se  Se173  1  0.25665973  0.74828253  0.43065562  1
  Se  Se174  1  0.24123281  0.75235318  0.95100744  1
  Se  Se175  1  0.58202528  0.08285560  0.45117400  1
  Se  Se176  1  0.59221961  0.08450832  0.94231662  1
  Se  Se177  1  0.59419342  0.40587638  0.44054369  1
  Se  Se178  1  0.58651981  0.40427879  0.94040937  1
  Se  Se179  1  0.59213885  0.74793738  0.44546875  1
  Se  Se180  1  0.58491047  0.75444616  0.93787677  1
  Se  Se181  1  0.91113388  0.08567634  0.44173036  1
  Se  Se182  1  0.92023827  0.08785072  0.94025049  1
  Se  Se183  1  0.91665919  0.41266051  0.44938935  1
  Se  Se184  1  0.91697450  0.39884111  0.93093933  1
  Se  Se185  1  0.93022524  0.75254396  0.44214729  1
  Se  Se186  1  0.91732993  0.74833900  0.95447281  1
  Se  Se187  1  0.24682072  0.24611126  0.30487371  1
  Se  Se188  1  0.25466852  0.25566623  0.80304106  1
  Se  Se189  1  0.24933715  0.58156890  0.29972449  1
  Se  Se190  1  0.23891598  0.58332699  0.80835170  1
  Se  Se191  1  0.24521847  0.91644130  0.31123916  1
  Se  Se192  1  0.25582051  0.92102977  0.80676209  1
  Se  Se193  1  0.58137861  0.24714993  0.32090640  1
  Se  Se194  1  0.58330150  0.24435473  0.79790126  1
  Se  Se195  1  0.57550593  0.57048450  0.31022713  1
  Se  Se196  1  0.58137485  0.57380932  0.81163397  1
  Se  Se197  1  0.57338922  0.91537973  0.30284936  1
  Se  Se198  1  0.58390818  0.92375815  0.79841564  1
  Se  Se199  1  0.92052249  0.25113670  0.30167566  1
  Se  Se200  1  0.92189369  0.23618867  0.78977316  1
  Se  Se201  1  0.92115609  0.58215182  0.31895210  1
  Se  Se202  1  0.90720054  0.56698427  0.80476143  1
  Se  Se203  1  0.91248830  0.91472818  0.29231123  1
  Se  Se204  1  0.92189243  0.91420387  0.80759501  1
  Se  Se205  1  0.06257143  0.06361053  0.30344426  1
  Se  Se206  1  0.09304284  0.08392213  0.80584660  1
  Se  Se207  1  0.08215467  0.41600198  0.31000094  1
  Se  Se208  1  0.08317510  0.41312578  0.80273254  1
  Se  Se209  1  0.08999954  0.75927433  0.31261940  1
  Se  Se210  1  0.08792808  0.75857154  0.81063349  1
  Se  Se211  1  0.41373910  0.08493806  0.32348805  1
  Se  Se212  1  0.41360518  0.08461249  0.79824846  1
  Se  Se213  1  0.40781444  0.40646594  0.30015709  1
  Se  Se214  1  0.41414359  0.41312976  0.80291616  1
  Se  Se215  1  0.42296468  0.74699411  0.29756556  1
  Se  Se216  1  0.42108915  0.76136410  0.80421857  1
  Se  Se217  1  0.74805586  0.09036409  0.30120048  1
  Se  Se218  1  0.74319834  0.06756656  0.79940417  1
  Se  Se219  1  0.75819996  0.41972588  0.31622568  1
  Se  Se220  1  0.74380219  0.40913327  0.79131852  1
  Se  Se221  1  0.76093140  0.76268219  0.30951214  1
  Se  Se222  1  0.75551333  0.74862515  0.81236442  1
  Se  Se223  1  0.23319569  0.08835157  0.19399362  1
  Se  Se224  1  0.25192166  0.08274103  0.69851966  1
  Se  Se225  1  0.24856935  0.40733537  0.19384310  1
  Se  Se226  1  0.25339162  0.41663969  0.69600822  1
  Se  Se227  1  0.25386611  0.74626535  0.19997038  1
  Se  Se228  1  0.23841274  0.76515760  0.68725524  1
  Se  Se229  1  0.56181286  0.11338972  0.20303008  1
  Se  Se230  1  0.58215821  0.08103145  0.68782897  1
  Se  Se231  1  0.57578123  0.42214327  0.18819887  1
  Se  Se232  1  0.58180032  0.40968630  0.69665012  1
  Se  Se233  1  0.58075365  0.75523412  0.18547771  1
  Se  Se234  1  0.56988813  0.75911605  0.68431416  1
  Se  Se235  1  0.91991516  0.08646333  0.19257483  1
  Se  Se236  1  0.93650795  0.07272966  0.69980610  1
  Se  Se237  1  0.91817843  0.41343578  0.20361647  1
  Se  Se238  1  0.91996257  0.42181562  0.69272809  1
  Se  Se239  1  0.90632143  0.76041034  0.19275850  1
  Se  Se240  1  0.91297489  0.75261694  0.69220874  1
  Se  Se241  1  0.05992459  0.27322590  0.18592372  1
  Se  Se242  1  0.08558051  0.25281100  0.69722339  1
  Se  Se243  1  0.08787784  0.57304976  0.19276655  1
  Se  Se244  1  0.09028588  0.57666717  0.68475161  1
  Se  Se245  1  0.08715415  0.91306912  0.19405083  1
  Se  Se246  1  0.07731890  0.92271591  0.70226129  1
  Se  Se247  1  0.41865789  0.23659477  0.20706123  1
  Se  Se248  1  0.41334849  0.25023209  0.69342461  1
  Se  Se249  1  0.41040499  0.58148637  0.20038062  1
  Se  Se250  1  0.42393969  0.57528128  0.69180837  1
  Se  Se251  1  0.42447548  0.90972811  0.19260579  1
  Se  Se252  1  0.41031640  0.92161879  0.68807035  1
  Se  Se253  1  0.75337682  0.24829031  0.18850684  1
  Se  Se254  1  0.74811782  0.24684732  0.69483141  1
  Se  Se255  1  0.75982979  0.57843670  0.20197169  1
  Se  Se256  1  0.75717103  0.57414993  0.69681845  1
  Se  Se257  1  0.73293103  0.94506742  0.19031552  1
  Se  Se258  1  0.74902498  0.91165500  0.70339993  1
