# generated using pymatgen
data_In86Cu29Se144
_symmetry_space_group_name_H-M   'P 1'
_cell_length_a   17.57628160
_cell_length_b   17.57475360
_cell_length_c   23.43183091
_cell_angle_alpha   90.00659693
_cell_angle_beta   90.00934318
_cell_angle_gamma   89.97820549
_symmetry_Int_Tables_number   1
_chemical_formula_structural   In86Cu29Se144
_chemical_formula_sum   'In86 Cu29 Se144'
_cell_volume   7238.06421140
_cell_formula_units_Z   1
loop_
 _symmetry_equiv_pos_site_id
 _symmetry_equiv_pos_as_xyz
  1  'x, y, z'
loop_
 _atom_site_type_symbol
 _atom_site_label
 _atom_site_symmetry_multiplicity
 _atom_site_fract_x
 _atom_site_fract_y
 _atom_site_fract_z
 _atom_site_occupancy
  In  In0  1  -0.01304672  0.16017087  0.12772023  1
  In  In1  1  0.01853105  0.16428932  0.62672740  1
  In  In2  1  0.00961492  0.51851378  0.11674457  1
  In  In3  1  -0.00563874  0.51200966  0.63027536  1
  In  In4  1  -0.00649926  0.83406436  0.12376724  1
  In  In5  1  -0.00235233  0.82312273  0.61770706  1
  In  In6  1  0.33695275  0.14577492  0.12904054  1
  In  In7  1  0.32726096  0.15693277  0.61913443  1
  In  In8  1  0.33399311  0.52950379  0.12031199  1
  In  In9  1  0.33395894  0.48725986  0.61966476  1
  In  In10  1  0.33670869  0.83142376  0.12260374  1
  In  In11  1  0.33275387  0.85187645  0.62851939  1
  In  In12  1  0.65994471  0.17702280  0.13154852  1
  In  In13  1  0.66094467  0.17111707  0.61820193  1
  In  In14  1  0.67515068  0.49365924  0.12956277  1
  In  In15  1  0.67181020  0.49807840  0.61046196  1
  In  In16  1  0.66854609  0.83473803  0.12488918  1
  In  In17  1  0.67453183  0.82139447  0.62099196  1
  In  In18  1  0.16465389  -0.00343490  0.37398370  1
  In  In19  1  0.16374049  -0.01422827  0.87684163  1
  In  In20  1  0.14519880  0.32738969  0.38441443  1
  In  In21  1  0.16495085  0.34668277  0.87522084  1
  In  In22  1  0.17508106  0.67960460  0.36567658  1
  In  In23  1  0.15565293  0.68421223  0.88809629  1
  In  In24  1  0.50105945  0.00425746  0.36681345  1
  In  In25  1  0.49625665  0.00643859  0.89066005  1
  In  In26  1  0.50705782  0.32703346  0.37640500  1
  In  In27  1  0.48765653  0.32604521  0.87433149  1
  In  In28  1  0.49722505  0.66167565  0.36488764  1
  In  In29  1  0.50465660  0.67803827  0.88383944  1
  In  In30  1  0.82192647  -0.01309831  0.36729714  1
  In  In31  1  0.83425713  -0.00986751  0.88580456  1
  In  In32  1  0.83628823  0.35111551  0.37793079  1
  In  In33  1  0.84616225  0.33415424  0.87243597  1
  In  In34  1  0.83551489  0.66572462  0.36834186  1
  In  In35  1  0.83350817  0.66407066  0.88714141  1
  In  In36  1  0.01261047  0.16770528  0.38122258  1
  In  In37  1  -0.00525406  0.16965006  0.86807903  1
  In  In38  1  -0.01550650  0.49938531  0.37556630  1
  In  In39  1  -0.00757915  0.50827394  0.87477668  1
  In  In40  1  -0.00007303  0.83101317  0.37023806  1
  In  In41  1  0.01259529  0.83291668  0.88566569  1
  In  In42  1  0.33571951  0.15811110  0.37777167  1
  In  In43  1  0.35256306  0.16128957  0.87544632  1
  In  In44  1  0.33229716  0.51907215  0.37233337  1
  In  In45  1  0.32784474  0.48783990  0.87784096  1
  In  In46  1  0.32521163  0.82700648  0.36469885  1
  In  In47  1  0.31835275  0.84429222  0.88842815  1
  In  In48  1  0.65521356  0.15622785  0.36711052  1
  In  In49  1  0.64832908  0.15861476  0.88010809  1
  In  In50  1  0.67087455  0.50070301  0.36793330  1
  In  In51  1  0.67142408  0.51792414  0.88370226  1
  In  In52  1  0.67227226  0.83675218  0.36340676  1
  In  In53  1  0.66919733  0.83713925  0.90792215  1
  In  In54  1  0.16917180  -0.01181937  0.12990802  1
  In  In55  1  0.17857686  0.00903548  0.61948092  1
  In  In56  1  0.15594679  0.34199400  0.12479733  1
  In  In57  1  0.16463330  0.31888713  0.62419506  1
  In  In58  1  0.16849818  0.67162296  0.12332862  1
  In  In59  1  0.15051854  0.66205959  0.62333836  1
  In  In60  1  0.50460300  -0.00596981  0.12152938  1
  In  In61  1  0.48470447  0.00284618  0.62812861  1
  In  In62  1  0.51390078  0.33634523  0.12471927  1
  In  In63  1  0.49225371  0.32827820  0.61125846  1
  In  In64  1  0.49197781  0.68060915  0.12838253  1
  In  In65  1  0.51498356  0.66447079  0.62032939  1
  In  In66  1  0.84220525  -0.01294058  0.13234935  1
  In  In67  1  0.84658190  -0.00960329  0.61960750  1
  In  In68  1  0.82089414  0.33162910  0.12574010  1
  In  In69  1  0.83342180  0.34980871  0.62323986  1
  In  In70  1  0.83149842  0.67276873  0.12294394  1
  In  In71  1  0.84188556  0.67033095  0.61471111  1
  In  In72  1  0.50195133  0.83358714  0.49701563  1
  In  In73  1  0.82875320  0.16260312  -0.00186868  1
  In  In74  1  0.33136401  0.33510063  0.25802432  1
  In  In75  1  0.67086541  0.67064873  0.76016120  1
  In  In76  1  0.32858019  0.66630618  0.75569145  1
  In  In77  1  0.83570030  0.16602350  0.49987739  1
  In  In78  1  0.50072750  0.50363914  0.00403692  1
  In  In79  1  0.16868124  0.16518288  0.00412559  1
  In  In80  1  0.32338852  0.32157897  0.73977223  1
  In  In81  1  -0.00652050  0.33134098  0.25548834  1
  In  In82  1  0.66712481  0.00047241  0.75910474  1
  In  In83  1  0.66612057  0.33508936  0.75600602  1
  In  In84  1  0.16941696  0.49931857  0.50047910  1
  In  In85  1  0.01123579  0.00297651  0.75100423  1
  Cu  Cu86  1  0.16895917  0.50854959  0.24563475  1
  Cu  Cu87  1  0.83666367  0.51203075  0.74880302  1
  Cu  Cu88  1  -0.00011610  -0.01156945  0.49675724  1
  Cu  Cu89  1  0.33407926  0.32794252  0.00038291  1
  Cu  Cu90  1  0.67361700  0.65886563  0.49225583  1
  Cu  Cu91  1  0.15231544  0.50547085  0.75472195  1
  Cu  Cu92  1  0.16474171  0.83168265  0.75430908  1
  Cu  Cu93  1  0.83746798  0.50332771  0.24631963  1
  Cu  Cu94  1  0.66782431  0.33540024  0.49427629  1
  Cu  Cu95  1  0.49656024  0.16483595  0.24963845  1
  Cu  Cu96  1  0.33721352  0.67433543  0.49207008  1
  Cu  Cu97  1  0.66172172  -0.00392141  0.49054377  1
  Cu  Cu98  1  0.16340674  0.15504169  0.25341751  1
  Cu  Cu99  1  0.82718445  0.15980150  0.25068056  1
  Cu  Cu100  1  0.50096210  0.49603929  0.74186829  1
  Cu  Cu101  1  0.34051512  0.33417351  0.49563468  1
  Cu  Cu102  1  0.00029870  0.66591882  0.49437998  1
  Cu  Cu103  1  -0.00298134  0.34620370  -0.00314991  1
  Cu  Cu104  1  0.16094803  0.83548720  0.24578029  1
  Cu  Cu105  1  0.83399699  0.17113329  0.75250408  1
  Cu  Cu106  1  -0.00368923  0.66909751  0.00386300  1
  Cu  Cu107  1  0.33986467  -0.00364823  0.00540275  1
  Cu  Cu108  1  0.49937507  0.83807191  0.24442268  1
  Cu  Cu109  1  0.83811318  0.82909362  0.75077235  1
  Cu  Cu110  1  0.49946391  0.84298757  0.75841045  1
  Cu  Cu111  1  0.83489856  0.82783759  0.24617195  1
  Cu  Cu112  1  0.32928293  0.00102072  0.49828308  1
  Cu  Cu113  1  0.50901147  0.50395035  0.24474732  1
  Cu  Cu114  1  0.66416400  0.33347697  0.00293121  1
  Se  Se115  1  0.07754932  0.07785853  0.06274267  1
  Se  Se116  1  0.07901239  0.07408450  0.55207968  1
  Se  Se117  1  0.08429330  0.42303853  0.05089697  1
  Se  Se118  1  0.08048812  0.41742537  0.56493967  1
  Se  Se119  1  0.08108537  0.75303299  0.05554877  1
  Se  Se120  1  0.08626007  0.74739830  0.54741457  1
  Se  Se121  1  0.42320938  0.08440477  0.05319181  1
  Se  Se122  1  0.41803923  0.08229344  0.54968831  1
  Se  Se123  1  0.40835653  0.41286121  0.06415573  1
  Se  Se124  1  0.42137436  0.42408651  0.54477103  1
  Se  Se125  1  0.39617970  0.73091247  0.05348330  1
  Se  Se126  1  0.41190545  0.74781615  0.56287322  1
  Se  Se127  1  0.75061407  0.08420588  0.07118193  1
  Se  Se128  1  0.74333830  0.06991889  0.55718609  1
  Se  Se129  1  0.75031868  0.41622897  0.05173288  1
  Se  Se130  1  0.75723360  0.41708609  0.54309240  1
  Se  Se131  1  0.77027498  0.77490289  0.05682221  1
  Se  Se132  1  0.75217760  0.74743702  0.54655072  1
  Se  Se133  1  0.25752887  0.25392582  0.06788505  1
  Se  Se134  1  0.25761343  0.25512684  0.55303421  1
  Se  Se135  1  0.22847725  0.57128062  0.05334163  1
  Se  Se136  1  0.26054647  0.59447926  0.55847639  1
  Se  Se137  1  0.25037892  0.91649452  0.05474797  1
  Se  Se138  1  0.24896863  0.91404660  0.55093884  1
  Se  Se139  1  0.58096549  0.24754835  0.05184572  1
  Se  Se140  1  0.58366309  0.24995674  0.54583233  1
  Se  Se141  1  0.58646674  0.58734009  0.06842906  1
  Se  Se142  1  0.58436400  0.58170025  0.54601505  1
  Se  Se143  1  0.56765738  0.89382737  0.05568100  1
  Se  Se144  1  0.58843618  0.92224918  0.56288549  1
  Se  Se145  1  0.92154050  0.25911686  0.05570533  1
  Se  Se146  1  0.92025464  0.25056008  0.56597784  1
  Se  Se147  1  0.90934116  0.58370193  0.05226337  1
  Se  Se148  1  0.91929500  0.57941007  0.54853599  1
  Se  Se149  1  0.91680445  0.92047203  0.05304040  1
  Se  Se150  1  0.91416269  0.90448079  0.54694863  1
  Se  Se151  1  0.08141657  0.24348817  0.45945338  1
  Se  Se152  1  0.07572550  0.25587893  0.94297587  1
  Se  Se153  1  0.08472490  0.58757934  0.43470987  1
  Se  Se154  1  0.07704011  0.58557879  0.94614598  1
  Se  Se155  1  0.08521653  0.90880379  0.44199326  1
  Se  Se156  1  0.08827997  0.91938352  0.95466497  1
  Se  Se157  1  0.41880027  0.24647899  0.44203513  1
  Se  Se158  1  0.42113527  0.24577067  0.95187391  1
  Se  Se159  1  0.42114550  0.58802793  0.44438854  1
  Se  Se160  1  0.40900294  0.58470475  0.93888396  1
  Se  Se161  1  0.40966463  0.92002994  0.43725385  1
  Se  Se162  1  0.42128100  0.90909552  0.95222159  1
  Se  Se163  1  0.74519719  0.24985646  0.43486185  1
  Se  Se164  1  0.74130162  0.25769425  0.93583093  1
  Se  Se165  1  0.75854945  0.57732797  0.43877445  1
  Se  Se166  1  0.74241706  0.59527472  0.95784475  1
  Se  Se167  1  0.74607796  0.90969859  0.44363800  1
  Se  Se168  1  0.76048141  0.92312527  0.96510212  1
  Se  Se169  1  0.24407646  0.08347354  0.44464621  1
  Se  Se170  1  0.25964430  0.07723797  0.94271914  1
  Se  Se171  1  0.25728274  0.41090663  0.43453742  1
  Se  Se172  1  0.24841129  0.41283069  0.95221863  1
  Se  Se173  1  0.24914374  0.75507038  0.44376211  1
  Se  Se174  1  0.26051773  0.74023100  0.95211274  1
  Se  Se175  1  0.57709953  0.08176271  0.44368322  1
  Se  Se176  1  0.60184462  0.06492365  0.95460081  1
  Se  Se177  1  0.58667802  0.41983750  0.43923463  1
  Se  Se178  1  0.58509151  0.41083869  0.93720783  1
  Se  Se179  1  0.59028583  0.74342886  0.43653997  1
  Se  Se180  1  0.59407798  0.73225388  0.95880778  1
  Se  Se181  1  0.91729360  0.07033423  0.43797952  1
  Se  Se182  1  0.93197304  0.07917838  0.94365195  1
  Se  Se183  1  0.94249068  0.39500595  0.44543343  1
  Se  Se184  1  0.90822871  0.42455819  0.94515061  1
  Se  Se185  1  0.91630692  0.74798249  0.43983358  1
  Se  Se186  1  0.91777343  0.75519232  0.94812382  1
  Se  Se187  1  0.23438283  0.24555032  0.31252504  1
  Se  Se188  1  0.24888883  0.24487657  0.81773411  1
  Se  Se189  1  0.25484097  0.59195950  0.29690814  1
  Se  Se190  1  0.23801812  0.57806364  0.81545529  1
  Se  Se191  1  0.24606244  0.91792645  0.30051286  1
  Se  Se192  1  0.25094862  0.91435778  0.80462152  1
  Se  Se193  1  0.58167194  0.24999557  0.29993894  1
  Se  Se194  1  0.57026845  0.23956438  0.80312663  1
  Se  Se195  1  0.59127520  0.58786773  0.29935794  1
  Se  Se196  1  0.57059485  0.57576637  0.80865835  1
  Se  Se197  1  0.58290818  0.91938036  0.30008037  1
  Se  Se198  1  0.58817372  0.90564499  0.82214240  1
  Se  Se199  1  0.90583602  0.23831352  0.31521671  1
  Se  Se200  1  0.92173371  0.25721649  0.79713784  1
  Se  Se201  1  0.92281908  0.58453800  0.29889044  1
  Se  Se202  1  0.91157857  0.59673824  0.80710030  1
  Se  Se203  1  0.91530380  0.91344799  0.30133323  1
  Se  Se204  1  0.91642464  0.91416385  0.80855762  1
  Se  Se205  1  0.07497875  0.07867325  0.30685413  1
  Se  Se206  1  0.10022473  0.09299977  0.81078576  1
  Se  Se207  1  0.09132277  0.42559906  0.30720066  1
  Se  Se208  1  0.07352498  0.41809925  0.80735922  1
  Se  Se209  1  0.08011120  0.74836630  0.29854190  1
  Se  Se210  1  0.07938653  0.75156979  0.80703483  1
  Se  Se211  1  0.40977636  0.08251183  0.30027119  1
  Se  Se212  1  0.43003553  0.07667802  0.80808724  1
  Se  Se213  1  0.42655170  0.42923726  0.30946330  1
  Se  Se214  1  0.41689868  0.41804015  0.79953007  1
  Se  Se215  1  0.41881926  0.75248072  0.29985329  1
  Se  Se216  1  0.41845591  0.75852192  0.81366407  1
  Se  Se217  1  0.74152980  0.07515520  0.30090328  1
  Se  Se218  1  0.76147561  0.09244451  0.81659014  1
  Se  Se219  1  0.75637254  0.41663201  0.29938929  1
  Se  Se220  1  0.75448345  0.43329106  0.80984185  1
  Se  Se221  1  0.74950239  0.74468440  0.29868761  1
  Se  Se222  1  0.75339877  0.76617416  0.81853832  1
  Se  Se223  1  0.24835230  0.07619011  0.19916080  1
  Se  Se224  1  0.25041447  0.08539156  0.69543890  1
  Se  Se225  1  0.24931061  0.42389779  0.18996524  1
  Se  Se226  1  0.23513373  0.42874526  0.69282223  1
  Se  Se227  1  0.24889762  0.75405429  0.19419419  1
  Se  Se228  1  0.24345316  0.75361831  0.68944268  1
  Se  Se229  1  0.57902480  0.08350881  0.19320073  1
  Se  Se230  1  0.58272596  0.08643461  0.69140526  1
  Se  Se231  1  0.59033157  0.41257543  0.19942595  1
  Se  Se232  1  0.58192153  0.41786182  0.68345569  1
  Se  Se233  1  0.58506054  0.75244851  0.19600903  1
  Se  Se234  1  0.57660119  0.76078629  0.69734886  1
  Se  Se235  1  0.91663532  0.07924803  0.20236174  1
  Se  Se236  1  0.91013690  0.08742667  0.69190265  1
  Se  Se237  1  0.91762514  0.42091186  0.18554114  1
  Se  Se238  1  0.91476652  0.42212881  0.69758364  1
  Se  Se239  1  0.92102621  0.74490856  0.19551662  1
  Se  Se240  1  0.91554982  0.74794683  0.69211194  1
  Se  Se241  1  0.08733422  0.24106539  0.19391098  1
  Se  Se242  1  0.08807206  0.24726807  0.70020611  1
  Se  Se243  1  0.08248986  0.59075903  0.19528876  1
  Se  Se244  1  0.07461280  0.59368302  0.70208833  1
  Se  Se245  1  0.07346691  0.91839378  0.19634465  1
  Se  Se246  1  0.08984738  0.90905930  0.68633687  1
  Se  Se247  1  0.41809510  0.24964339  0.19076222  1
  Se  Se248  1  0.42597700  0.23993008  0.68705235  1
  Se  Se249  1  0.41936082  0.58709218  0.19861960  1
  Se  Se250  1  0.41993608  0.58100390  0.68743981  1
  Se  Se251  1  0.41370960  0.91993137  0.19191785  1
  Se  Se252  1  0.41436499  0.92180440  0.70434535  1
  Se  Se253  1  0.74940074  0.25218979  0.20148558  1
  Se  Se254  1  0.75379969  0.24685444  0.69002107  1
  Se  Se255  1  0.75284810  0.58618511  0.19375863  1
  Se  Se256  1  0.74952797  0.58306397  0.68756586  1
  Se  Se257  1  0.74828313  0.91544134  0.19944954  1
  Se  Se258  1  0.75652666  0.91092093  0.69280761  1
