# generated using pymatgen
data_In86Cu29Se144
_symmetry_space_group_name_H-M   'P 1'
_cell_length_a   17.57486157
_cell_length_b   17.57689609
_cell_length_c   23.43537401
_cell_angle_alpha   89.98379683
_cell_angle_beta   90.01333515
_cell_angle_gamma   89.98779877
_symmetry_Int_Tables_number   1
_chemical_formula_structural   In86Cu29Se144
_chemical_formula_sum   'In86 Cu29 Se144'
_cell_volume   7239.45625665
_cell_formula_units_Z   1
loop_
 _symmetry_equiv_pos_site_id
 _symmetry_equiv_pos_as_xyz
  1  'x, y, z'
loop_
 _atom_site_type_symbol
 _atom_site_label
 _atom_site_symmetry_multiplicity
 _atom_site_fract_x
 _atom_site_fract_y
 _atom_site_fract_z
 _atom_site_occupancy
  In  In0  1  0.00124683  0.15562679  0.11750069  1
  In  In1  1  0.00681792  0.15220644  0.63044232  1
  In  In2  1  0.00790193  0.51265377  0.13900944  1
  In  In3  1  0.00265847  0.50758610  0.61032777  1
  In  In4  1  0.01133648  0.82611198  0.13032028  1
  In  In5  1  0.03156771  0.83082259  0.62672952  1
  In  In6  1  0.32050346  0.17552970  0.12809404  1
  In  In7  1  0.32700127  0.17655696  0.62732755  1
  In  In8  1  0.33239844  0.48720418  0.13672598  1
  In  In9  1  0.33236338  0.50114291  0.62206210  1
  In  In10  1  0.33494345  0.83325841  0.12531650  1
  In  In11  1  0.31341454  0.84507903  0.63900525  1
  In  In12  1  0.66735017  0.16233027  0.13181171  1
  In  In13  1  0.68513478  0.17348290  0.62499657  1
  In  In14  1  0.65715848  0.51491755  0.14170413  1
  In  In15  1  0.65477632  0.49235063  0.61136983  1
  In  In16  1  0.66260988  0.83393657  0.13399638  1
  In  In17  1  0.65621533  0.82991418  0.62379115  1
  In  In18  1  0.16476783  -0.00287635  0.37398704  1
  In  In19  1  0.17047117  -0.00173029  0.88282662  1
  In  In20  1  0.17856786  0.32383470  0.38047529  1
  In  In21  1  0.16934673  0.31586235  0.87766245  1
  In  In22  1  0.17556098  0.66659770  0.37949482  1
  In  In23  1  0.18200629  0.66448098  0.87664794  1
  In  In24  1  0.49222809  -0.00639751  0.36119147  1
  In  In25  1  0.48677288  0.00046899  0.88121473  1
  In  In26  1  0.51005707  0.34384736  0.36988019  1
  In  In27  1  0.50367023  0.33538688  0.87158738  1
  In  In28  1  0.47810722  0.64752371  0.36907920  1
  In  In29  1  0.48715428  0.67817190  0.89123686  1
  In  In30  1  0.83711327  -0.00806725  0.35684708  1
  In  In31  1  0.84167956  -0.00312566  0.87529044  1
  In  In32  1  0.83170578  0.35428229  0.36912076  1
  In  In33  1  0.83025889  0.34398298  0.87321600  1
  In  In34  1  0.81873211  0.63920053  0.34228032  1
  In  In35  1  0.83538237  0.66775480  0.87767388  1
  In  In36  1  0.01365074  0.16167055  0.37495805  1
  In  In37  1  0.02643923  0.15956646  0.89322895  1
  In  In38  1  -0.00306229  0.50330138  0.37498398  1
  In  In39  1  -0.00520811  0.49950626  0.87519898  1
  In  In40  1  0.00606690  0.83793368  0.36591440  1
  In  In41  1  0.01436999  0.85209089  0.87186490  1
  In  In42  1  0.32537308  0.15461948  0.36962391  1
  In  In43  1  0.32272929  0.14743485  0.86446364  1
  In  In44  1  0.34031760  0.50541326  0.38128666  1
  In  In45  1  0.34473530  0.51086263  0.86923551  1
  In  In46  1  0.31262042  0.81559695  0.36725573  1
  In  In47  1  0.32808914  0.83513770  0.88409487  1
  In  In48  1  0.66452489  0.16782263  0.36522226  1
  In  In49  1  0.65141871  0.17227875  0.87594008  1
  In  In50  1  0.66241706  0.49853485  0.37149080  1
  In  In51  1  0.65886776  0.48505310  0.87241379  1
  In  In52  1  0.67045340  0.82260298  0.35394459  1
  In  In53  1  0.66450808  0.81856342  0.88017073  1
  In  In54  1  0.16791602  0.00083056  0.12210082  1
  In  In55  1  0.16495024  0.00450210  0.62317724  1
  In  In56  1  0.17440692  0.33961722  0.12320229  1
  In  In57  1  0.17682824  0.34469642  0.61406794  1
  In  In58  1  0.15760414  0.67092191  0.14189278  1
  In  In59  1  0.18726444  0.68085380  0.59556175  1
  In  In60  1  0.50873627  -0.01030651  0.12909962  1
  In  In61  1  0.48821044  -0.01724545  0.62429838  1
  In  In62  1  0.48927927  0.34359282  0.12832394  1
  In  In63  1  0.49270454  0.34473115  0.63142326  1
  In  In64  1  0.49283149  0.66400670  0.12829586  1
  In  In65  1  0.49299352  0.65042074  0.61558816  1
  In  In66  1  0.85006542  -0.02257999  0.14682058  1
  In  In67  1  0.84590712  0.01561763  0.62451961  1
  In  In68  1  0.82515761  0.33139291  0.12942588  1
  In  In69  1  0.82409819  0.33600190  0.62335731  1
  In  In70  1  0.83361427  0.67053498  0.15310075  1
  In  In71  1  0.84562574  0.66875132  0.61438427  1
  In  In72  1  0.84432064  0.17378764  0.49441609  1
  In  In73  1  0.49071556  0.16558067  -0.00128671  1
  In  In74  1  0.83807068  0.83018828  0.01700809  1
  In  In75  1  0.83316075  0.50381435  0.00427462  1
  In  In76  1  0.83078451  0.16601384  0.00740943  1
  In  In77  1  0.49566415  0.17494583  0.50576990  1
  In  In78  1  0.16825347  0.50278125  0.00615724  1
  In  In79  1  0.65781909  0.00582694  0.74708995  1
  In  In80  1  0.48839898  0.82273407  0.49160639  1
  In  In81  1  0.84544960  0.82881755  0.48688898  1
  In  In82  1  0.66084647  0.66160146  0.74392136  1
  In  In83  1  0.00035066  0.33277403  0.25399670  1
  In  In84  1  0.01377673  0.66855298  0.75371633  1
  In  In85  1  0.00160305  0.32901344  0.75589786  1
  Cu  Cu86  1  0.49777596  0.50055692  0.25213227  1
  Cu  Cu87  1  0.67317234  -0.00821005  0.01016419  1
  Cu  Cu88  1  0.83984305  0.84146754  0.74664337  1
  Cu  Cu89  1  0.00007210  0.67209705  0.00814874  1
  Cu  Cu90  1  0.67254973  0.66436991  0.48547646  1
  Cu  Cu91  1  0.34142431  0.33947398  0.49933269  1
  Cu  Cu92  1  0.17378286  0.49656001  0.74378706  1
  Cu  Cu93  1  0.83166713  0.16597963  0.24726993  1
  Cu  Cu94  1  0.00148293  0.33219660  0.49202427  1
  Cu  Cu95  1  0.66873712  0.34490853  0.49656757  1
  Cu  Cu96  1  0.50323375  0.17388547  0.74814143  1
  Cu  Cu97  1  0.33152549  -0.00526559  0.00239922  1
  Cu  Cu98  1  0.33389652  0.33649106  -0.00079369  1
  Cu  Cu99  1  0.65671692  0.33845721  0.00268214  1
  Cu  Cu100  1  0.82620637  0.49398610  0.74253928  1
  Cu  Cu101  1  0.33295815  0.66746428  0.00574926  1
  Cu  Cu102  1  -0.00452504  0.66129832  0.48786264  1
  Cu  Cu103  1  0.49240650  0.16980127  0.24513731  1
  Cu  Cu104  1  0.31939350  -0.00361655  0.49812815  1
  Cu  Cu105  1  0.17538272  0.83799844  0.25011119  1
  Cu  Cu106  1  0.65687412  0.65963374  0.00979050  1
  Cu  Cu107  1  0.66449154  0.00181364  0.48509753  1
  Cu  Cu108  1  0.48315448  0.83246289  0.75938710  1
  Cu  Cu109  1  0.83634269  0.17247697  0.75123191  1
  Cu  Cu110  1  0.49956029  0.50066977  0.74672428  1
  Cu  Cu111  1  0.16828714  0.16342394  0.75143612  1
  Cu  Cu112  1  0.16428583  0.15891018  0.25004206  1
  Cu  Cu113  1  0.00674981  -0.00731507  0.49878183  1
  Cu  Cu114  1  0.50027512  0.83060281  0.24797971  1
  Se  Se115  1  0.09784006  0.09241972  0.05144479  1
  Se  Se116  1  0.08218757  0.08536309  0.55050688  1
  Se  Se117  1  0.06995495  0.41961250  0.06336428  1
  Se  Se118  1  0.08274494  0.41607368  0.54764509  1
  Se  Se119  1  0.09246408  0.74653944  0.05892052  1
  Se  Se120  1  0.07529784  0.74726320  0.54261310  1
  Se  Se121  1  0.41031548  0.07686692  0.06460394  1
  Se  Se122  1  0.40666315  0.07276430  0.55704865  1
  Se  Se123  1  0.41053070  0.42177067  0.05496933  1
  Se  Se124  1  0.42388508  0.42223047  0.55365124  1
  Se  Se125  1  0.41940936  0.75076819  0.05573173  1
  Se  Se126  1  0.40584718  0.75416689  0.56839100  1
  Se  Se127  1  0.75360193  0.06826735  0.06990559  1
  Se  Se128  1  0.74689991  0.07668697  0.54873289  1
  Se  Se129  1  0.73757209  0.41722861  0.06233155  1
  Se  Se130  1  0.75795923  0.42310072  0.54953608  1
  Se  Se131  1  0.74607303  0.73326219  0.06884332  1
  Se  Se132  1  0.74317750  0.74853182  0.55073032  1
  Se  Se133  1  0.24873634  0.25456834  0.05074277  1
  Se  Se134  1  0.25619502  0.25264174  0.54900191  1
  Se  Se135  1  0.25309510  0.59032942  0.06910134  1
  Se  Se136  1  0.23300216  0.55763719  0.55120071  1
  Se  Se137  1  0.24905542  0.91150308  0.05508380  1
  Se  Se138  1  0.24215602  0.91268592  0.55555536  1
  Se  Se139  1  0.58354095  0.25038630  0.06110482  1
  Se  Se140  1  0.59584822  0.26114948  0.56068960  1
  Se  Se141  1  0.57570303  0.57462621  0.06078702  1
  Se  Se142  1  0.58653798  0.58802917  0.54407371  1
  Se  Se143  1  0.58487675  0.90758625  0.05599498  1
  Se  Se144  1  0.58596109  0.92112464  0.54824387  1
  Se  Se145  1  0.92072924  0.26197906  0.06010236  1
  Se  Se146  1  0.92927565  0.25671030  0.56445418  1
  Se  Se147  1  0.91701791  0.59621190  0.06794842  1
  Se  Se148  1  0.90994415  0.57984149  0.54169286  1
  Se  Se149  1  0.93403674  0.92634410  0.06147599  1
  Se  Se150  1  0.92267487  0.91687537  0.56070226  1
  Se  Se151  1  0.08666662  0.24448231  0.44720329  1
  Se  Se152  1  0.07953232  0.26681340  0.95514863  1
  Se  Se153  1  0.08713361  0.57882793  0.44287761  1
  Se  Se154  1  0.07329230  0.59105714  0.94300543  1
  Se  Se155  1  0.08603602  0.90917270  0.44359885  1
  Se  Se156  1  0.08646627  0.91706909  0.95196916  1
  Se  Se157  1  0.41276509  0.25489957  0.43506332  1
  Se  Se158  1  0.40516574  0.25260204  0.93497386  1
  Se  Se159  1  0.41679448  0.58672264  0.45609352  1
  Se  Se160  1  0.41326502  0.57929116  0.95317780  1
  Se  Se161  1  0.40416645  0.92289437  0.43621299  1
  Se  Se162  1  0.41960062  0.91221286  0.95293780  1
  Se  Se163  1  0.74333597  0.25657296  0.43890886  1
  Se  Se164  1  0.74028368  0.25853819  0.94453730  1
  Se  Se165  1  0.75699268  0.58199301  0.43340223  1
  Se  Se166  1  0.73739285  0.58933621  0.94159316  1
  Se  Se167  1  0.74525277  0.91764199  0.43099687  1
  Se  Se168  1  0.74983804  0.91491994  0.94440356  1
  Se  Se169  1  0.24200149  0.08557083  0.44542747  1
  Se  Se170  1  0.25472709  0.08694211  0.95037496  1
  Se  Se171  1  0.25329666  0.41742539  0.44623608  1
  Se  Se172  1  0.25431158  0.41798820  0.93741589  1
  Se  Se173  1  0.25105182  0.75134018  0.45322919  1
  Se  Se174  1  0.24691731  0.74835015  0.95305634  1
  Se  Se175  1  0.57729529  0.08355319  0.43613455  1
  Se  Se176  1  0.59306604  0.07176391  0.94842933  1
  Se  Se177  1  0.57920650  0.42429393  0.44738449  1
  Se  Se178  1  0.57391684  0.41909564  0.94823531  1
  Se  Se179  1  0.58865809  0.74585407  0.43017847  1
  Se  Se180  1  0.58277385  0.75156142  0.95621086  1
  Se  Se181  1  0.92106810  0.06793531  0.43834918  1
  Se  Se182  1  0.92208867  0.07534721  0.94913331  1
  Se  Se183  1  0.91596366  0.41840336  0.44513440  1
  Se  Se184  1  0.92389005  0.40816976  0.94720561  1
  Se  Se185  1  0.91697949  0.73405907  0.42068392  1
  Se  Se186  1  0.92389947  0.75044565  0.94257456  1
  Se  Se187  1  0.24726750  0.24387886  0.30184360  1
  Se  Se188  1  0.25224610  0.24879416  0.80181749  1
  Se  Se189  1  0.27138107  0.59858638  0.31177996  1
  Se  Se190  1  0.25085951  0.58200216  0.80117263  1
  Se  Se191  1  0.25599798  0.92402195  0.30439858  1
  Se  Se192  1  0.26651996  0.93228801  0.81481856  1
  Se  Se193  1  0.57806788  0.24976559  0.30041625  1
  Se  Se194  1  0.58784765  0.25607120  0.79975883  1
  Se  Se195  1  0.58152461  0.58664636  0.30383222  1
  Se  Se196  1  0.57409575  0.58302504  0.81315729  1
  Se  Se197  1  0.58538961  0.91789467  0.29701897  1
  Se  Se198  1  0.57856600  0.90819886  0.81211908  1
  Se  Se199  1  0.90866870  0.24131438  0.31494898  1
  Se  Se200  1  0.91558012  0.24042130  0.82076043  1
  Se  Se201  1  0.93740995  0.58123472  0.29219524  1
  Se  Se202  1  0.90549312  0.57642794  0.80221399  1
  Se  Se203  1  0.92377765  0.91340455  0.29211279  1
  Se  Se204  1  0.92187431  0.92165824  0.80198154  1
  Se  Se205  1  0.07949474  0.07554435  0.30102451  1
  Se  Se206  1  0.08826633  0.08487336  0.81122726  1
  Se  Se207  1  0.09309778  0.41497740  0.31491877  1
  Se  Se208  1  0.09437945  0.42474439  0.81091114  1
  Se  Se209  1  0.09735868  0.75203229  0.30636775  1
  Se  Se210  1  0.10320549  0.76158896  0.80899939  1
  Se  Se211  1  0.41112942  0.08222264  0.29693093  1
  Se  Se212  1  0.42771499  0.08400505  0.80175627  1
  Se  Se213  1  0.41416476  0.41844461  0.30689857  1
  Se  Se214  1  0.41892437  0.41688776  0.80352303  1
  Se  Se215  1  0.41750077  0.75205173  0.30507363  1
  Se  Se216  1  0.40658083  0.74511752  0.81346885  1
  Se  Se217  1  0.74712849  0.08196334  0.29968019  1
  Se  Se218  1  0.75193923  0.09019440  0.81177280  1
  Se  Se219  1  0.73291118  0.40743254  0.30058215  1
  Se  Se220  1  0.74556914  0.41376575  0.79941799  1
  Se  Se221  1  0.76656768  0.75627208  0.28814907  1
  Se  Se222  1  0.75894490  0.75588601  0.80245447  1
  Se  Se223  1  0.25120803  0.08025678  0.19496286  1
  Se  Se224  1  0.25105609  0.08516019  0.69266194  1
  Se  Se225  1  0.23347931  0.42117829  0.20156699  1
  Se  Se226  1  0.25634790  0.41115710  0.69303031  1
  Se  Se227  1  0.25684264  0.75096985  0.19825993  1
  Se  Se228  1  0.23448353  0.74042094  0.68908326  1
  Se  Se229  1  0.57905318  0.08351740  0.19739184  1
  Se  Se230  1  0.57367246  0.09340061  0.67852011  1
  Se  Se231  1  0.57990035  0.41359901  0.19857430  1
  Se  Se232  1  0.58875731  0.42172644  0.69509142  1
  Se  Se233  1  0.58175744  0.74227471  0.19728972  1
  Se  Se234  1  0.56304746  0.75666905  0.69323987  1
  Se  Se235  1  0.92190341  0.08870395  0.19646835  1
  Se  Se236  1  0.91983268  0.08430943  0.70471343  1
  Se  Se237  1  0.90930611  0.42180353  0.19410031  1
  Se  Se238  1  0.91956146  0.42057811  0.68906391  1
  Se  Se239  1  0.91867069  0.76632357  0.20437996  1
  Se  Se240  1  0.91831493  0.75539258  0.68997990  1
  Se  Se241  1  0.08598507  0.24345576  0.18945483  1
  Se  Se242  1  0.09281516  0.24906454  0.69007658  1
  Se  Se243  1  0.07942155  0.58924047  0.21441580  1
  Se  Se244  1  0.08856805  0.57583310  0.68713803  1
  Se  Se245  1  0.09045755  0.91782603  0.19509744  1
  Se  Se246  1  0.07549011  0.93340880  0.69510515  1
  Se  Se247  1  0.40919974  0.25541394  0.19423864  1
  Se  Se248  1  0.41562639  0.25333045  0.69562510  1
  Se  Se249  1  0.41213649  0.58115279  0.19868672  1
  Se  Se250  1  0.41515169  0.58318324  0.69431803  1
  Se  Se251  1  0.41699455  0.91618747  0.19614360  1
  Se  Se252  1  0.40830044  0.92169491  0.70406590  1
  Se  Se253  1  0.74543058  0.25085308  0.19931973  1
  Se  Se254  1  0.75324279  0.25640545  0.70074865  1
  Se  Se255  1  0.75731219  0.57196536  0.20959435  1
  Se  Se256  1  0.75539498  0.58086866  0.68065315  1
  Se  Se257  1  0.73657702  0.92446780  0.20115438  1
  Se  Se258  1  0.75226074  0.91502414  0.68684108  1
