# generated using pymatgen
data_In86Cu29Se144
_symmetry_space_group_name_H-M   'P 1'
_cell_length_a   17.57176738
_cell_length_b   17.57443051
_cell_length_c   23.43425412
_cell_angle_alpha   89.99008612
_cell_angle_beta   90.03236947
_cell_angle_gamma   89.98257184
_symmetry_Int_Tables_number   1
_chemical_formula_structural   In86Cu29Se144
_chemical_formula_sum   'In86 Cu29 Se144'
_cell_volume   7236.81957925
_cell_formula_units_Z   1
loop_
 _symmetry_equiv_pos_site_id
 _symmetry_equiv_pos_as_xyz
  1  'x, y, z'
loop_
 _atom_site_type_symbol
 _atom_site_label
 _atom_site_symmetry_multiplicity
 _atom_site_fract_x
 _atom_site_fract_y
 _atom_site_fract_z
 _atom_site_occupancy
  In  In0  1  -0.01658383  0.16142708  0.11408343  1
  In  In1  1  0.00807962  0.14946620  0.61683985  1
  In  In2  1  0.00285438  0.49125538  0.12839678  1
  In  In3  1  -0.00114699  0.51578773  0.62788979  1
  In  In4  1  0.00606323  0.84719962  0.12525189  1
  In  In5  1  -0.02526103  0.83601572  0.62238034  1
  In  In6  1  0.35519106  0.16832228  0.10217730  1
  In  In7  1  0.33890883  0.16808576  0.62680073  1
  In  In8  1  0.36960023  0.47205891  0.14944814  1
  In  In9  1  0.33247825  0.47870144  0.62830272  1
  In  In10  1  0.33568444  0.82421550  0.12215429  1
  In  In11  1  0.35821613  0.83713980  0.63298034  1
  In  In12  1  0.66744141  0.16368736  0.12429704  1
  In  In13  1  0.65480906  0.18000014  0.63541770  1
  In  In14  1  0.64784435  0.49765744  0.13088478  1
  In  In15  1  0.66471460  0.49860200  0.62173713  1
  In  In16  1  0.68041284  0.84230238  0.11570790  1
  In  In17  1  0.66567556  0.82441528  0.63716169  1
  In  In18  1  0.16981735  0.01750746  0.37496593  1
  In  In19  1  0.18042507  0.01226580  0.87348638  1
  In  In20  1  0.16924308  0.32199160  0.37343093  1
  In  In21  1  0.16740882  0.31520985  0.87683759  1
  In  In22  1  0.17475075  0.65689339  0.37743999  1
  In  In23  1  0.16209283  0.67423314  0.86919623  1
  In  In24  1  0.51614962  -0.00007721  0.37403075  1
  In  In25  1  0.50062342  0.00183833  0.87885201  1
  In  In26  1  0.49958150  0.33319405  0.37263508  1
  In  In27  1  0.49905981  0.33364751  0.87508259  1
  In  In28  1  0.49097094  0.66342098  0.37263141  1
  In  In29  1  0.50957623  0.65887526  0.88017615  1
  In  In30  1  0.82802797  -0.00505827  0.37200666  1
  In  In31  1  0.82129883  0.01091789  0.88014905  1
  In  In32  1  0.82757211  0.34772167  0.37526660  1
  In  In33  1  0.82172304  0.33358192  0.87690340  1
  In  In34  1  0.83454381  0.66486125  0.38202491  1
  In  In35  1  0.83128824  0.67705669  0.87012655  1
  In  In36  1  0.01268450  0.16833651  0.37596808  1
  In  In37  1  0.00400711  0.16844167  0.88940749  1
  In  In38  1  -0.00802192  0.49298877  0.37829333  1
  In  In39  1  -0.01481504  0.50208741  0.87012047  1
  In  In40  1  -0.01645643  0.83457733  0.37821979  1
  In  In41  1  -0.00073038  0.82122183  0.87135598  1
  In  In42  1  0.33149458  0.17725680  0.37759209  1
  In  In43  1  0.33335812  0.16489936  0.88010483  1
  In  In44  1  0.34685904  0.50275699  0.36352414  1
  In  In45  1  0.35132836  0.50311548  0.87367907  1
  In  In46  1  0.34987910  0.83093729  0.37046345  1
  In  In47  1  0.33808508  0.85622257  0.87575050  1
  In  In48  1  0.65866311  0.15913385  0.37014968  1
  In  In49  1  0.66300323  0.16570894  0.87533215  1
  In  In50  1  0.67133416  0.48951183  0.37540141  1
  In  In51  1  0.65477235  0.48903567  0.86677181  1
  In  In52  1  0.67132825  0.84784453  0.37377022  1
  In  In53  1  0.66203645  0.83847575  0.87524256  1
  In  In54  1  0.15239500  0.00070417  0.12760701  1
  In  In55  1  0.16816074  0.01532973  0.62360035  1
  In  In56  1  0.17965817  0.33411623  0.12293847  1
  In  In57  1  0.18549887  0.33181186  0.62732325  1
  In  In58  1  0.17985171  0.67885344  0.12391389  1
  In  In59  1  0.16043178  0.64934416  0.63504974  1
  In  In60  1  0.51390744  0.01235973  0.10933372  1
  In  In61  1  0.49126143  0.00602733  0.63958695  1
  In  In62  1  0.50504570  0.32580139  0.12405959  1
  In  In63  1  0.49982429  0.33164926  0.62433192  1
  In  In64  1  0.49419851  0.65764923  0.11515309  1
  In  In65  1  0.52249703  0.66548625  0.62756234  1
  In  In66  1  0.83303409  0.00044668  0.12508334  1
  In  In67  1  0.83430183  -0.02072414  0.62027903  1
  In  In68  1  0.83518313  0.31638957  0.12770003  1
  In  In69  1  0.81386213  0.33305341  0.62628786  1
  In  In70  1  0.82122810  0.66824825  0.12224116  1
  In  In71  1  0.82527889  0.66827628  0.62571311  1
  In  In72  1  0.00222268  0.66931005  0.26059835  1
  In  In73  1  0.82435162  0.49368384  -0.00036156  1
  In  In74  1  0.16334293  0.83938711  0.50787295  1
  In  In75  1  -0.00317211  -0.00249244  0.74538584  1
  In  In76  1  0.16419062  0.49181059  0.50090225  1
  In  In77  1  0.83262028  0.16488264  0.50071190  1
  In  In78  1  0.00109315  0.33693176  0.74997834  1
  In  In79  1  0.66219167  0.66109558  0.24813596  1
  In  In80  1  -0.00071458  0.32951587  0.25295705  1
  In  In81  1  0.33831595  0.00364912  0.23937956  1
  In  In82  1  0.16639465  0.83705935  -0.00764768  1
  In  In83  1  0.50948332  0.83368357  0.50255091  1
  In  In84  1  0.33458010  0.66788955  0.75422778  1
  In  In85  1  0.17374472  0.50053538  0.00570438  1
  Cu  Cu86  1  0.33370492  0.66067828  0.49633078  1
  Cu  Cu87  1  0.17573347  0.50716754  0.24811459  1
  Cu  Cu88  1  0.82784236  0.16683167  0.75319814  1
  Cu  Cu89  1  0.34088671  0.32812031  0.50025660  1
  Cu  Cu90  1  0.34006838  0.33429000  0.00030701  1
  Cu  Cu91  1  0.66089084  0.32597699  -0.00137208  1
  Cu  Cu92  1  0.66978095  0.00084913  -0.00304807  1
  Cu  Cu93  1  0.83456412  0.83721482  0.24648979  1
  Cu  Cu94  1  0.82437668  0.83057846  0.75050915  1
  Cu  Cu95  1  0.49769599  0.17170020  0.75547556  1
  Cu  Cu96  1  0.16447033  0.83365007  0.75042787  1
  Cu  Cu97  1  0.67065061  0.66439049  0.50238145  1
  Cu  Cu98  1  0.50892044  0.83135514  0.24570350  1
  Cu  Cu99  1  0.66915244  0.00256205  0.50167567  1
  Cu  Cu100  1  0.17520140  0.16679197  0.74985229  1
  Cu  Cu101  1  0.17091510  0.83809864  0.24818174  1
  Cu  Cu102  1  0.82872960  0.15950986  0.24821377  1
  Cu  Cu103  1  0.66694458  0.67100714  -0.00190990  1
  Cu  Cu104  1  -0.00769360  0.66548696  -0.00544557  1
  Cu  Cu105  1  -0.00313982  0.33308237  0.49808573  1
  Cu  Cu106  1  -0.00769735  -0.00219127  0.00126823  1
  Cu  Cu107  1  0.50106862  0.16844495  0.24547514  1
  Cu  Cu108  1  0.16683510  0.16588898  0.24761921  1
  Cu  Cu109  1  -0.01227200  0.67078799  0.50568452  1
  Cu  Cu110  1  0.50134502  0.49624676  0.74720048  1
  Cu  Cu111  1  0.82436574  0.51096221  0.74903550  1
  Cu  Cu112  1  0.34106692  0.66325274  -0.00011344  1
  Cu  Cu113  1  0.65847156  0.33519112  0.50061084  1
  Cu  Cu114  1  0.33759425  0.01131505  0.50413877  1
  Se  Se115  1  0.07834803  0.08027029  0.05310723  1
  Se  Se116  1  0.09111842  0.07958069  0.54432962  1
  Se  Se117  1  0.07700914  0.40656129  0.05596742  1
  Se  Se118  1  0.07464819  0.40752225  0.56577645  1
  Se  Se119  1  0.07677661  0.74356747  0.05497099  1
  Se  Se120  1  0.07748634  0.74035264  0.56521069  1
  Se  Se121  1  0.40530572  0.05688543  0.04073548  1
  Se  Se122  1  0.42622699  0.08565160  0.55933103  1
  Se  Se123  1  0.42307307  0.41588458  0.05622907  1
  Se  Se124  1  0.41913062  0.41646739  0.55271476  1
  Se  Se125  1  0.42130856  0.75406843  0.04891943  1
  Se  Se126  1  0.41561361  0.73932172  0.55740548  1
  Se  Se127  1  0.75185656  0.08272435  0.05467509  1
  Se  Se128  1  0.74330532  0.08294613  0.56706920  1
  Se  Se129  1  0.73746972  0.40638365  0.06352550  1
  Se  Se130  1  0.74764629  0.41651979  0.55045083  1
  Se  Se131  1  0.75653840  0.75183829  0.04662072  1
  Se  Se132  1  0.74355009  0.75511837  0.55766777  1
  Se  Se133  1  0.25283009  0.25111405  0.04980142  1
  Se  Se134  1  0.25459493  0.24734676  0.55375567  1
  Se  Se135  1  0.26594671  0.58583525  0.06493423  1
  Se  Se136  1  0.25461065  0.58512052  0.55965387  1
  Se  Se137  1  0.24787820  0.91982722  0.06163058  1
  Se  Se138  1  0.26718080  0.92082865  0.56311711  1
  Se  Se139  1  0.58048442  0.23997806  0.05268671  1
  Se  Se140  1  0.58120343  0.24713409  0.55395142  1
  Se  Se141  1  0.58922926  0.58212561  0.05120009  1
  Se  Se142  1  0.58216162  0.58109835  0.54979503  1
  Se  Se143  1  0.58694251  0.91280723  0.04774769  1
  Se  Se144  1  0.58893831  0.92611964  0.56602035  1
  Se  Se145  1  0.91399164  0.25648919  0.04831145  1
  Se  Se146  1  0.92098051  0.25568653  0.56400228  1
  Se  Se147  1  0.92156776  0.58364189  0.05941605  1
  Se  Se148  1  0.90802340  0.58227983  0.55671225  1
  Se  Se149  1  0.91354646  0.91221349  0.05532781  1
  Se  Se150  1  0.93111960  0.93100491  0.54644332  1
  Se  Se151  1  0.08571029  0.25292276  0.44891400  1
  Se  Se152  1  0.08693716  0.25189003  0.95410046  1
  Se  Se153  1  0.07169153  0.59187785  0.44599392  1
  Se  Se154  1  0.07866956  0.58598776  0.94057576  1
  Se  Se155  1  0.08341712  0.92087984  0.43638658  1
  Se  Se156  1  0.07350179  0.92699204  0.93401419  1
  Se  Se157  1  0.42501368  0.24582750  0.44603981  1
  Se  Se158  1  0.42122502  0.24926995  0.94602192  1
  Se  Se159  1  0.41710045  0.57793195  0.44428486  1
  Se  Se160  1  0.42573668  0.57725988  0.95044898  1
  Se  Se161  1  0.41429383  0.92638862  0.44412551  1
  Se  Se162  1  0.40699978  0.93442008  0.95242614  1
  Se  Se163  1  0.74204456  0.25436160  0.44096564  1
  Se  Se164  1  0.74902924  0.24625952  0.94662602  1
  Se  Se165  1  0.74793672  0.58005936  0.44446990  1
  Se  Se166  1  0.74219858  0.58567125  0.93606309  1
  Se  Se167  1  0.75209067  0.91794027  0.44991932  1
  Se  Se168  1  0.75236449  0.91382296  0.94573678  1
  Se  Se169  1  0.25379968  0.08939184  0.44744768  1
  Se  Se170  1  0.23819912  0.09713941  0.94968344  1
  Se  Se171  1  0.25859007  0.40999163  0.43951186  1
  Se  Se172  1  0.25954035  0.41432807  0.93952672  1
  Se  Se173  1  0.25780542  0.75127391  0.44351409  1
  Se  Se174  1  0.26112241  0.74261902  0.93819303  1
  Se  Se175  1  0.58417754  0.08429191  0.44909920  1
  Se  Se176  1  0.58334958  0.08614654  0.94821414  1
  Se  Se177  1  0.57888977  0.41825802  0.44393341  1
  Se  Se178  1  0.58297967  0.41599875  0.94621369  1
  Se  Se179  1  0.59366183  0.74327114  0.43628665  1
  Se  Se180  1  0.58160377  0.75388678  0.94636420  1
  Se  Se181  1  0.92146727  0.07953889  0.43822087  1
  Se  Se182  1  0.91158302  0.08503051  0.94872152  1
  Se  Se183  1  0.91105856  0.41849570  0.45118544  1
  Se  Se184  1  0.92274357  0.40789094  0.94330739  1
  Se  Se185  1  0.90746285  0.75504608  0.45158213  1
  Se  Se186  1  0.91227531  0.75314989  0.94499048  1
  Se  Se187  1  0.25148577  0.24832677  0.29996262  1
  Se  Se188  1  0.25636132  0.24925442  0.80465077  1
  Se  Se189  1  0.25710674  0.59040607  0.30221188  1
  Se  Se190  1  0.24455983  0.57490139  0.81133856  1
  Se  Se191  1  0.25248168  0.91746704  0.30981486  1
  Se  Se192  1  0.24563938  0.91871539  0.80237617  1
  Se  Se193  1  0.58303389  0.24877402  0.30293709  1
  Se  Se194  1  0.58553039  0.25420671  0.80623605  1
  Se  Se195  1  0.57434723  0.57260719  0.30819200  1
  Se  Se196  1  0.58158737  0.58350220  0.80042043  1
  Se  Se197  1  0.58750056  0.91768075  0.29909350  1
  Se  Se198  1  0.59044050  0.93147970  0.80828279  1
  Se  Se199  1  0.90600663  0.24017917  0.31280810  1
  Se  Se200  1  0.91502382  0.24245902  0.81077712  1
  Se  Se201  1  0.90589405  0.57334153  0.30672366  1
  Se  Se202  1  0.91196787  0.58995100  0.80176076  1
  Se  Se203  1  0.91780493  0.91850499  0.30194877  1
  Se  Se204  1  0.90760298  0.91248585  0.80952184  1
  Se  Se205  1  0.08253240  0.08450331  0.30027040  1
  Se  Se206  1  0.08259702  0.09208857  0.80600990  1
  Se  Se207  1  0.09302275  0.42768779  0.30844562  1
  Se  Se208  1  0.08922189  0.41980998  0.81522872  1
  Se  Se209  1  0.09601699  0.76122040  0.31647426  1
  Se  Se210  1  0.07833111  0.74714054  0.79582125  1
  Se  Se211  1  0.42316884  0.08705951  0.30872402  1
  Se  Se212  1  0.41670026  0.08597256  0.80916635  1
  Se  Se213  1  0.40470161  0.39805488  0.30184724  1
  Se  Se214  1  0.41765806  0.41439658  0.80108749  1
  Se  Se215  1  0.42290031  0.74972184  0.29737124  1
  Se  Se216  1  0.42025988  0.75428709  0.81788408  1
  Se  Se217  1  0.74542612  0.07754299  0.30373692  1
  Se  Se218  1  0.74391748  0.08196273  0.80312113  1
  Se  Se219  1  0.74633161  0.41297431  0.29945160  1
  Se  Se220  1  0.75235924  0.41751186  0.80226852  1
  Se  Se221  1  0.75665849  0.75379031  0.30660754  1
  Se  Se222  1  0.73816099  0.74942717  0.80342876  1
  Se  Se223  1  0.24863786  0.09489652  0.18175839  1
  Se  Se224  1  0.25604758  0.08186980  0.69621321  1
  Se  Se225  1  0.25064847  0.41318664  0.19929825  1
  Se  Se226  1  0.24070385  0.42251524  0.70171024  1
  Se  Se227  1  0.25579825  0.75332024  0.20005255  1
  Se  Se228  1  0.24623551  0.75611868  0.68764596  1
  Se  Se229  1  0.58172794  0.08066446  0.19318156  1
  Se  Se230  1  0.58244031  0.08777755  0.70285091  1
  Se  Se231  1  0.56671182  0.41770687  0.19864425  1
  Se  Se232  1  0.58530094  0.41438973  0.69226979  1
  Se  Se233  1  0.58534279  0.75364351  0.18115362  1
  Se  Se234  1  0.55722593  0.76877210  0.69892548  1
  Se  Se235  1  0.91815819  0.08332961  0.19441389  1
  Se  Se236  1  0.90500437  0.09035454  0.68780937  1
  Se  Se237  1  0.90717932  0.42024804  0.19508687  1
  Se  Se238  1  0.90452145  0.42431749  0.69093508  1
  Se  Se239  1  0.91504186  0.75199470  0.19019041  1
  Se  Se240  1  0.91033439  0.74947675  0.69680999  1
  Se  Se241  1  0.08503014  0.24533282  0.18619437  1
  Se  Se242  1  0.08665453  0.23931360  0.68962272  1
  Se  Se243  1  0.09057869  0.58438055  0.19067239  1
  Se  Se244  1  0.07899392  0.57680631  0.70686083  1
  Se  Se245  1  0.08030817  0.91980002  0.20350367  1
  Se  Se246  1  0.08741454  0.90909452  0.68365113  1
  Se  Se247  1  0.41319696  0.24101081  0.18811382  1
  Se  Se248  1  0.41670773  0.25369975  0.69693113  1
  Se  Se249  1  0.41427948  0.59654453  0.19508342  1
  Se  Se250  1  0.42055952  0.57926376  0.68779574  1
  Se  Se251  1  0.43087563  0.91279709  0.18362081  1
  Se  Se252  1  0.41818717  0.91860310  0.71033989  1
  Se  Se253  1  0.74623207  0.24634026  0.19800875  1
  Se  Se254  1  0.74536528  0.25538711  0.70422221  1
  Se  Se255  1  0.75669851  0.57111346  0.19121213  1
  Se  Se256  1  0.73813522  0.58823478  0.69327254  1
  Se  Se257  1  0.74822715  0.91913015  0.19543977  1
  Se  Se258  1  0.74789249  0.92002866  0.69737073  1
