# generated using pymatgen
data_In86Cu29Se144
_symmetry_space_group_name_H-M   'P 1'
_cell_length_a   17.57824308
_cell_length_b   17.57891251
_cell_length_c   23.43081624
_cell_angle_alpha   90.00812463
_cell_angle_beta   89.98848416
_cell_angle_gamma   90.01678106
_symmetry_Int_Tables_number   1
_chemical_formula_structural   In86Cu29Se144
_chemical_formula_sum   'In86 Cu29 Se144'
_cell_volume   7240.27157855
_cell_formula_units_Z   1
loop_
 _symmetry_equiv_pos_site_id
 _symmetry_equiv_pos_as_xyz
  1  'x, y, z'
loop_
 _atom_site_type_symbol
 _atom_site_label
 _atom_site_symmetry_multiplicity
 _atom_site_fract_x
 _atom_site_fract_y
 _atom_site_fract_z
 _atom_site_occupancy
  In  In0  1  -0.01390781  0.17061562  0.13869525  1
  In  In1  1  -0.00341165  0.16955880  0.62000026  1
  In  In2  1  0.00129123  0.49886786  0.12489902  1
  In  In3  1  0.00254449  0.49563093  0.61743961  1
  In  In4  1  -0.01945358  0.84604781  0.12814675  1
  In  In5  1  0.00274062  0.82903631  0.63630167  1
  In  In6  1  0.33686438  0.15592739  0.12545264  1
  In  In7  1  0.34223927  0.18249793  0.60808164  1
  In  In8  1  0.33281525  0.51052335  0.12244034  1
  In  In9  1  0.33876878  0.49838721  0.61347744  1
  In  In10  1  0.33665551  0.82440550  0.11689626  1
  In  In11  1  0.33889794  0.82051883  0.63127758  1
  In  In12  1  0.66922053  0.17448594  0.14116309  1
  In  In13  1  0.67972974  0.17184707  0.61840512  1
  In  In14  1  0.67635013  0.48481021  0.13219978  1
  In  In15  1  0.65695798  0.48691214  0.61673850  1
  In  In16  1  0.67639515  0.83875672  0.11537351  1
  In  In17  1  0.66091509  0.84434813  0.62604890  1
  In  In18  1  0.15468614  0.01495855  0.37928408  1
  In  In19  1  0.15815648  0.01064687  0.87353568  1
  In  In20  1  0.12302254  0.36218576  0.41460008  1
  In  In21  1  0.16708507  0.34832745  0.87283378  1
  In  In22  1  0.15038984  0.66117481  0.37128726  1
  In  In23  1  0.15741447  0.65552748  0.86495370  1
  In  In24  1  0.50174972  0.00557780  0.37761405  1
  In  In25  1  0.50667097  0.00094837  0.87730722  1
  In  In26  1  0.51255201  0.32079831  0.38561956  1
  In  In27  1  0.50798234  0.32270808  0.87330863  1
  In  In28  1  0.50025019  0.66590729  0.38219317  1
  In  In29  1  0.49893942  0.67851108  0.86698514  1
  In  In30  1  0.84449902  0.01978769  0.35315283  1
  In  In31  1  0.83562263  -0.00547399  0.88043331  1
  In  In32  1  0.83567719  0.33549994  0.36873753  1
  In  In33  1  0.84362931  0.33993226  0.86691729  1
  In  In34  1  0.83555934  0.65009387  0.37248450  1
  In  In35  1  0.84607242  0.65643013  0.88369785  1
  In  In36  1  -0.01248183  0.17721453  0.37220611  1
  In  In37  1  -0.00335514  0.17012388  0.86456360  1
  In  In38  1  -0.00618753  0.50262802  0.37239923  1
  In  In39  1  -0.00035622  0.50093799  0.87282405  1
  In  In40  1  -0.00594101  0.82884008  0.36787630  1
  In  In41  1  -0.00037573  0.83186029  0.87638445  1
  In  In42  1  0.31737711  0.19036803  0.39928493  1
  In  In43  1  0.34495932  0.17753467  0.87347154  1
  In  In44  1  0.32673943  0.48779146  0.39386508  1
  In  In45  1  0.31734580  0.49772558  0.86946588  1
  In  In46  1  0.33674646  0.84286410  0.37798634  1
  In  In47  1  0.35132763  0.82961269  0.86856687  1
  In  In48  1  0.66958389  0.16791477  0.37151727  1
  In  In49  1  0.65695371  0.17123098  0.87144978  1
  In  In50  1  0.69201616  0.48100411  0.38923623  1
  In  In51  1  0.68369685  0.50063718  0.87407738  1
  In  In52  1  0.65084950  0.84195891  0.37654825  1
  In  In53  1  0.66430434  0.83795725  0.88352471  1
  In  In54  1  0.15409686  -0.00086830  0.12532284  1
  In  In55  1  0.15334464  0.00338087  0.62624115  1
  In  In56  1  0.14871895  0.33757669  0.12865440  1
  In  In57  1  0.15120988  0.32022402  0.60630706  1
  In  In58  1  0.16495899  0.65046277  0.11926588  1
  In  In59  1  0.17333636  0.65601336  0.62921982  1
  In  In60  1  0.50977641  0.00662970  0.11903075  1
  In  In61  1  0.50739436  0.00297401  0.61930431  1
  In  In62  1  0.51884337  0.33027268  0.13198053  1
  In  In63  1  0.50525789  0.33643772  0.62032994  1
  In  In64  1  0.49101775  0.67212438  0.12044578  1
  In  In65  1  0.49454184  0.66107256  0.62264926  1
  In  In66  1  0.83911786  -0.01061278  0.13426893  1
  In  In67  1  0.83052632  0.01531783  0.62324772  1
  In  In68  1  0.83011283  0.34142793  0.14206463  1
  In  In69  1  0.83921585  0.33096538  0.61851727  1
  In  In70  1  0.83640880  0.66742753  0.11999671  1
  In  In71  1  0.84794990  0.66410004  0.62745354  1
  In  In72  1  0.32840203  0.66480520  0.24447758  1
  In  In73  1  0.67253699  0.66572781  0.24682479  1
  In  In74  1  0.32842702  0.33344840  0.26645489  1
  In  In75  1  0.33188963  0.00429195  0.26025209  1
  In  In76  1  0.33165666  0.00261126  0.74920815  1
  In  In77  1  0.16658634  0.17221565  0.00782510  1
  In  In78  1  0.82283926  0.83669474  0.50265519  1
  In  In79  1  0.16738636  0.83338482  -0.00441015  1
  In  In80  1  0.17258115  0.83282635  0.50759182  1
  In  In81  1  0.83306382  0.16537385  0.00726770  1
  In  In82  1  0.32832930  0.33915752  0.73631711  1
  In  In83  1  0.67157537  0.00306339  0.75529203  1
  In  In84  1  0.50726763  0.50100158  0.00315795  1
  In  In85  1  0.66930168  0.66464732  0.75065334  1
  Cu  Cu86  1  -0.00635434  0.00341627  0.49778079  1
  Cu  Cu87  1  0.84009036  0.17402939  0.74142960  1
  Cu  Cu88  1  0.33351862  0.66793773  0.50378179  1
  Cu  Cu89  1  0.83997496  0.83221835  0.75872192  1
  Cu  Cu90  1  0.66168332  0.66293246  0.49986038  1
  Cu  Cu91  1  0.34388820  -0.00267162  0.50089910  1
  Cu  Cu92  1  0.33680755  0.66591590  -0.00586665  1
  Cu  Cu93  1  0.34321121  0.00491853  -0.00303603  1
  Cu  Cu94  1  0.15211075  0.83518643  0.24734145  1
  Cu  Cu95  1  0.67564446  0.32718890  0.00772486  1
  Cu  Cu96  1  0.16162867  0.83202349  0.75138044  1
  Cu  Cu97  1  0.66575788  0.00721267  0.49415431  1
  Cu  Cu98  1  0.82739888  0.82942899  0.24607952  1
  Cu  Cu99  1  0.00125962  0.34407165  -0.00129404  1
  Cu  Cu100  1  -0.00167903  0.65693594  0.49844887  1
  Cu  Cu101  1  0.15662202  0.49972046  0.74371442  1
  Cu  Cu102  1  0.67018883  0.33245992  0.49742747  1
  Cu  Cu103  1  0.33846847  0.33466671  -0.00356227  1
  Cu  Cu104  1  0.83669029  0.49358214  0.74656074  1
  Cu  Cu105  1  0.15491593  0.16846906  0.25795977  1
  Cu  Cu106  1  0.49710097  0.16917227  0.25535390  1
  Cu  Cu107  1  0.49486059  0.49817956  0.74125801  1
  Cu  Cu108  1  0.51415954  0.49545572  0.25987234  1
  Cu  Cu109  1  0.49831431  0.83994200  0.24707831  1
  Cu  Cu110  1  0.16235049  0.49360733  0.25487774  1
  Cu  Cu111  1  0.67068962  0.66594313  -0.00401992  1
  Cu  Cu112  1  0.16382697  0.16876054  0.74272765  1
  Cu  Cu113  1  0.66606454  -0.00003618  0.00102915  1
  Cu  Cu114  1  0.00274273  0.66643353  -0.00107701  1
  Se  Se115  1  0.06812123  0.08621994  0.06083666  1
  Se  Se116  1  0.08110825  0.08268055  0.55130245  1
  Se  Se117  1  0.08949892  0.42327342  0.05128897  1
  Se  Se118  1  0.07300688  0.41144201  0.54199692  1
  Se  Se119  1  0.07892785  0.74917882  0.06121044  1
  Se  Se120  1  0.07511663  0.74141234  0.55920162  1
  Se  Se121  1  0.42298605  0.08950163  0.05192276  1
  Se  Se122  1  0.42528338  0.08545990  0.55114344  1
  Se  Se123  1  0.41778216  0.40879607  0.06400488  1
  Se  Se124  1  0.41114499  0.40267308  0.55121856  1
  Se  Se125  1  0.42051566  0.75215332  0.04368757  1
  Se  Se126  1  0.41838908  0.75244452  0.55353639  1
  Se  Se127  1  0.74135001  0.07747615  0.06642506  1
  Se  Se128  1  0.75462401  0.08595474  0.54581195  1
  Se  Se129  1  0.75903635  0.41137765  0.05902689  1
  Se  Se130  1  0.75301216  0.41679965  0.55148673  1
  Se  Se131  1  0.75416141  0.74916831  0.05039821  1
  Se  Se132  1  0.73982484  0.74063975  0.56491971  1
  Se  Se133  1  0.25987985  0.26253908  0.06567274  1
  Se  Se134  1  0.24274736  0.24244101  0.54250452  1
  Se  Se135  1  0.25354802  0.58208268  0.04646231  1
  Se  Se136  1  0.24668691  0.58255078  0.55099676  1
  Se  Se137  1  0.25749405  0.92938494  0.05717892  1
  Se  Se138  1  0.26201380  0.92501165  0.56629637  1
  Se  Se139  1  0.59214011  0.24521476  0.06077187  1
  Se  Se140  1  0.58838131  0.25027213  0.55341944  1
  Se  Se141  1  0.59727985  0.58927273  0.06562830  1
  Se  Se142  1  0.57761043  0.57989937  0.55363947  1
  Se  Se143  1  0.57985473  0.91288201  0.05112860  1
  Se  Se144  1  0.58776312  0.91897453  0.54885932  1
  Se  Se145  1  0.92344623  0.26225132  0.05998900  1
  Se  Se146  1  0.90123507  0.23251640  0.55021391  1
  Se  Se147  1  0.92085636  0.58216739  0.05429644  1
  Se  Se148  1  0.91153660  0.57861563  0.55174117  1
  Se  Se149  1  0.90980183  0.92238296  0.05173072  1
  Se  Se150  1  0.92343064  0.91794392  0.56181259  1
  Se  Se151  1  0.09027986  0.22536302  0.44289116  1
  Se  Se152  1  0.07903771  0.25736300  0.94036254  1
  Se  Se153  1  0.08487241  0.57750059  0.44605963  1
  Se  Se154  1  0.08423057  0.58249653  0.94365196  1
  Se  Se155  1  0.07488523  0.91396116  0.44443383  1
  Se  Se156  1  0.07607346  0.93087942  0.94615436  1
  Se  Se157  1  0.42380556  0.25257767  0.45711423  1
  Se  Se158  1  0.42463158  0.25112811  0.94855324  1
  Se  Se159  1  0.41423413  0.58357904  0.44806670  1
  Se  Se160  1  0.41629685  0.58127664  0.93571435  1
  Se  Se161  1  0.42522538  0.91411201  0.44675996  1
  Se  Se162  1  0.41897974  0.91760041  0.94181376  1
  Se  Se163  1  0.75128658  0.25267306  0.43932691  1
  Se  Se164  1  0.75119820  0.25361776  0.93917414  1
  Se  Se165  1  0.75534661  0.58593224  0.45211794  1
  Se  Se166  1  0.75570635  0.57785522  0.95053263  1
  Se  Se167  1  0.74907321  0.92827859  0.43468364  1
  Se  Se168  1  0.75185426  0.91672454  0.95051333  1
  Se  Se169  1  0.25394792  0.07259387  0.44791157  1
  Se  Se170  1  0.25828690  0.08530602  0.94109171  1
  Se  Se171  1  0.25332110  0.39828665  0.45966757  1
  Se  Se172  1  0.25122107  0.41705728  0.94811855  1
  Se  Se173  1  0.25309080  0.74320080  0.43820270  1
  Se  Se174  1  0.25451444  0.74378008  0.93331739  1
  Se  Se175  1  0.58115411  0.09302035  0.44452896  1
  Se  Se176  1  0.58750926  0.08559778  0.94554946  1
  Se  Se177  1  0.58371400  0.42075950  0.44919665  1
  Se  Se178  1  0.59669027  0.40920610  0.94450624  1
  Se  Se179  1  0.58241517  0.75196886  0.44860567  1
  Se  Se180  1  0.58223159  0.74424183  0.94439813  1
  Se  Se181  1  0.91134533  0.08122798  0.43989496  1
  Se  Se182  1  0.92651518  0.08467707  0.94249667  1
  Se  Se183  1  0.92315969  0.40873442  0.43946201  1
  Se  Se184  1  0.91414695  0.42052698  0.94333340  1
  Se  Se185  1  0.91790591  0.74630856  0.44514847  1
  Se  Se186  1  0.91879826  0.75257643  0.94846391  1
  Se  Se187  1  0.23065411  0.24875972  0.31918398  1
  Se  Se188  1  0.24409378  0.24654153  0.80550021  1
  Se  Se189  1  0.24965771  0.57239389  0.31136722  1
  Se  Se190  1  0.24644932  0.58013366  0.79512296  1
  Se  Se191  1  0.23363002  0.90944880  0.31076479  1
  Se  Se192  1  0.24218121  0.91191721  0.81227708  1
  Se  Se193  1  0.58444608  0.25428040  0.30328232  1
  Se  Se194  1  0.59015862  0.25656939  0.79820822  1
  Se  Se195  1  0.58947475  0.58201197  0.31646322  1
  Se  Se196  1  0.57679269  0.57078222  0.80828688  1
  Se  Se197  1  0.57672671  0.92369332  0.30215851  1
  Se  Se198  1  0.57793157  0.90592207  0.80493117  1
  Se  Se199  1  0.88922627  0.23101475  0.29761361  1
  Se  Se200  1  0.92323815  0.25826081  0.79567041  1
  Se  Se201  1  0.93004240  0.59623392  0.30091722  1
  Se  Se202  1  0.91325083  0.58092951  0.80300469  1
  Se  Se203  1  0.91471622  0.91160182  0.29842641  1
  Se  Se204  1  0.92064246  0.92139246  0.80824551  1
  Se  Se205  1  0.06982317  0.08191214  0.30574938  1
  Se  Se206  1  0.08217312  0.08578785  0.79835041  1
  Se  Se207  1  0.08556283  0.41080691  0.31351738  1
  Se  Se208  1  0.07909675  0.41577730  0.80106945  1
  Se  Se209  1  0.07657986  0.74502461  0.29973049  1
  Se  Se210  1  0.07710441  0.74923715  0.80438907  1
  Se  Se211  1  0.41038896  0.10299633  0.31924943  1
  Se  Se212  1  0.42832892  0.09152484  0.80522015  1
  Se  Se213  1  0.42540563  0.42399418  0.31897319  1
  Se  Se214  1  0.41925801  0.41823683  0.80789754  1
  Se  Se215  1  0.41875161  0.75635765  0.30506527  1
  Se  Se216  1  0.41131289  0.74208827  0.79371083  1
  Se  Se217  1  0.71946653  0.05920335  0.30530751  1
  Se  Se218  1  0.76547305  0.09660839  0.81043034  1
  Se  Se219  1  0.75733326  0.42656475  0.30187481  1
  Se  Se220  1  0.74964238  0.41433255  0.79994751  1
  Se  Se221  1  0.75171902  0.75750223  0.31525807  1
  Se  Se222  1  0.75571557  0.75291509  0.81577094  1
  Se  Se223  1  0.23711970  0.09069407  0.19700628  1
  Se  Se224  1  0.25058653  0.09499788  0.68386925  1
  Se  Se225  1  0.24995615  0.42276137  0.19304808  1
  Se  Se226  1  0.23254787  0.42119415  0.67787056  1
  Se  Se227  1  0.23679742  0.75963239  0.18744855  1
  Se  Se228  1  0.24452604  0.75021235  0.69703233  1
  Se  Se229  1  0.57537473  0.08605551  0.19800463  1
  Se  Se230  1  0.58728220  0.08965799  0.69008408  1
  Se  Se231  1  0.59351983  0.41068669  0.20559388  1
  Se  Se232  1  0.58307308  0.41390221  0.69583353  1
  Se  Se233  1  0.57655030  0.75569880  0.18920332  1
  Se  Se234  1  0.57854950  0.75406785  0.69189504  1
  Se  Se235  1  0.90918254  0.08071030  0.20270097  1
  Se  Se236  1  0.92067470  0.08258438  0.69404636  1
  Se  Se237  1  0.94186789  0.40188990  0.19543287  1
  Se  Se238  1  0.91999376  0.41526273  0.68906408  1
  Se  Se239  1  0.91328354  0.74782784  0.19416416  1
  Se  Se240  1  0.91778860  0.74614217  0.70307302  1
  Se  Se241  1  0.07812037  0.25307677  0.20093369  1
  Se  Se242  1  0.08099059  0.25240684  0.68970078  1
  Se  Se243  1  0.08782786  0.58016031  0.19612122  1
  Se  Se244  1  0.07357641  0.58500867  0.69121913  1
  Se  Se245  1  0.07264551  0.92259436  0.19585520  1
  Se  Se246  1  0.08192981  0.92029635  0.70044320  1
  Se  Se247  1  0.41517475  0.24864407  0.19518776  1
  Se  Se248  1  0.42419024  0.24280564  0.69153176  1
  Se  Se249  1  0.43322941  0.57193496  0.19660259  1
  Se  Se250  1  0.40928332  0.57970437  0.69103239  1
  Se  Se251  1  0.41243970  0.91624945  0.18848261  1
  Se  Se252  1  0.42644203  0.91549822  0.69161706  1
  Se  Se253  1  0.77268575  0.23461787  0.20603716  1
  Se  Se254  1  0.75210810  0.25525146  0.69214462  1
  Se  Se255  1  0.76604204  0.57303912  0.19477949  1
  Se  Se256  1  0.75315548  0.57361101  0.68712619  1
  Se  Se257  1  0.74053561  0.91362797  0.19719816  1
  Se  Se258  1  0.76286798  0.91015657  0.69439415  1
