# generated using pymatgen
data_In86Cu29Se144
_symmetry_space_group_name_H-M   'P 1'
_cell_length_a   17.56845871
_cell_length_b   17.56995203
_cell_length_c   23.42627773
_cell_angle_alpha   90.00807657
_cell_angle_beta   89.98075384
_cell_angle_gamma   90.01261220
_symmetry_Int_Tables_number   1
_chemical_formula_structural   In86Cu29Se144
_chemical_formula_sum   'In86 Cu29 Se144'
_cell_volume   7231.15193232
_cell_formula_units_Z   1
loop_
 _symmetry_equiv_pos_site_id
 _symmetry_equiv_pos_as_xyz
  1  'x, y, z'
loop_
 _atom_site_type_symbol
 _atom_site_label
 _atom_site_symmetry_multiplicity
 _atom_site_fract_x
 _atom_site_fract_y
 _atom_site_fract_z
 _atom_site_occupancy
  In  In0  1  0.00914165  0.16878489  0.12733670  1
  In  In1  1  -0.01688616  0.15674388  0.61857608  1
  In  In2  1  -0.00923628  0.50004755  0.12849487  1
  In  In3  1  -0.01005321  0.51637498  0.63464170  1
  In  In4  1  0.00717925  0.84960120  0.09408136  1
  In  In5  1  -0.01751973  0.84641337  0.63564185  1
  In  In6  1  0.33989201  0.16009440  0.12593934  1
  In  In7  1  0.34178313  0.14866925  0.62775273  1
  In  In8  1  0.33899694  0.48741757  0.12287090  1
  In  In9  1  0.34827015  0.49851930  0.62481097  1
  In  In10  1  0.33581659  0.83773151  0.11962425  1
  In  In11  1  0.34003774  0.82477377  0.63462857  1
  In  In12  1  0.66436202  0.18319989  0.12622318  1
  In  In13  1  0.66775515  0.15942351  0.62156937  1
  In  In14  1  0.65700480  0.49441062  0.12134699  1
  In  In15  1  0.66792002  0.50253858  0.63043724  1
  In  In16  1  0.66529446  0.83581277  0.11249688  1
  In  In17  1  0.66063735  0.83847621  0.62504837  1
  In  In18  1  0.17878871  -0.00954641  0.37004072  1
  In  In19  1  0.14943766  -0.02233365  0.86671537  1
  In  In20  1  0.16545953  0.32831005  0.36380093  1
  In  In21  1  0.17486349  0.33951367  0.88107666  1
  In  In22  1  0.15634588  0.67467605  0.37448003  1
  In  In23  1  0.17426446  0.67610361  0.87313856  1
  In  In24  1  0.49510789  0.00613529  0.38479940  1
  In  In25  1  0.50036397  0.00273334  0.87147947  1
  In  In26  1  0.50696287  0.32825912  0.37376945  1
  In  In27  1  0.51074450  0.32330775  0.88419466  1
  In  In28  1  0.50431041  0.66182777  0.38555059  1
  In  In29  1  0.50216475  0.66959194  0.87222872  1
  In  In30  1  0.81335931  0.02041825  0.41654877  1
  In  In31  1  0.82932167  -0.00442657  0.86772782  1
  In  In32  1  0.82871313  0.33406633  0.37823625  1
  In  In33  1  0.82734020  0.35010127  0.86982626  1
  In  In34  1  0.82111181  0.67538325  0.38794592  1
  In  In35  1  0.84684529  0.67843774  0.84974586  1
  In  In36  1  -0.01262275  0.16942499  0.37843322  1
  In  In37  1  0.00559502  0.15711687  0.87383414  1
  In  In38  1  -0.00258001  0.49226949  0.37529631  1
  In  In39  1  -0.00875414  0.51611729  0.87132497  1
  In  In40  1  -0.00689643  0.83816510  0.37578584  1
  In  In41  1  -0.00493847  0.82759603  0.88067814  1
  In  In42  1  0.34261074  0.17243241  0.36666718  1
  In  In43  1  0.35199257  0.16418556  0.88013774  1
  In  In44  1  0.35156797  0.49724016  0.37356456  1
  In  In45  1  0.33560795  0.51105757  0.87815746  1
  In  In46  1  0.32955639  0.84777206  0.36923966  1
  In  In47  1  0.33776985  0.83525469  0.87332510  1
  In  In48  1  0.65448783  0.16784547  0.38882703  1
  In  In49  1  0.65913840  0.15731836  0.86344768  1
  In  In50  1  0.67576045  0.49356004  0.38526405  1
  In  In51  1  0.66550040  0.49264793  0.85937654  1
  In  In52  1  0.66144732  0.84363429  0.39573405  1
  In  In53  1  0.66644380  0.83535483  0.86916926  1
  In  In54  1  0.17042663  0.00128625  0.12398044  1
  In  In55  1  0.17184848  -0.00708204  0.63610118  1
  In  In56  1  0.17449523  0.32553189  0.13585934  1
  In  In57  1  0.16344394  0.33461927  0.62339287  1
  In  In58  1  0.16108479  0.68127530  0.11868419  1
  In  In59  1  0.16020511  0.67334265  0.63854367  1
  In  In60  1  0.48926580  -0.00837660  0.11596581  1
  In  In61  1  0.50355758  -0.00610312  0.62186917  1
  In  In62  1  0.49917916  0.33187512  0.12281558  1
  In  In63  1  0.51606844  0.34328428  0.61421757  1
  In  In64  1  0.50055529  0.66441414  0.11164356  1
  In  In65  1  0.50036186  0.66857233  0.63075808  1
  In  In66  1  0.83636651  -0.00704504  0.12192008  1
  In  In67  1  0.82979596  -0.00061510  0.62226700  1
  In  In68  1  0.83149676  0.33312027  0.13688679  1
  In  In69  1  0.81642214  0.32104572  0.61745002  1
  In  In70  1  0.82986567  0.67499445  0.12025120  1
  In  In71  1  0.82562454  0.66646524  0.63151989  1
  In  In72  1  0.33673250  0.33162658  0.75321817  1
  In  In73  1  0.17293552  0.15780771  0.00729974  1
  In  In74  1  0.17404334  0.50237125  -0.00229729  1
  In  In75  1  0.66212981  0.00773339  0.26165377  1
  In  In76  1  0.82736756  0.16003075  -0.00640106  1
  In  In77  1  0.16370631  0.83396629  0.49561817  1
  In  In78  1  0.16842162  0.16671043  0.50549795  1
  In  In79  1  -0.00273855  0.67179653  0.24829355  1
  In  In80  1  0.17170586  0.50187084  0.49463923  1
  In  In81  1  0.33387822  0.66184972  0.24208541  1
  In  In82  1  0.66887865  0.66259481  0.24601058  1
  In  In83  1  -0.00307895  0.32321821  0.74721746  1
  In  In84  1  0.83024550  0.51212888  -0.00418896  1
  In  In85  1  -0.00208864  0.00074921  0.25168652  1
  Cu  Cu86  1  0.33132821  -0.00229301  -0.00489387  1
  Cu  Cu87  1  0.66236041  0.33352360  0.50082895  1
  Cu  Cu88  1  0.33909761  0.66687442  0.50771275  1
  Cu  Cu89  1  0.34031508  -0.00282770  0.50054183  1
  Cu  Cu90  1  0.16963705  0.16763735  0.24645545  1
  Cu  Cu91  1  0.83075207  0.83488911  0.74676076  1
  Cu  Cu92  1  0.83503328  0.49292055  0.25711274  1
  Cu  Cu93  1  0.16792077  0.15469637  0.75230202  1
  Cu  Cu94  1  0.50017832  0.50433446  0.74787424  1
  Cu  Cu95  1  0.82829369  0.16198511  0.74260413  1
  Cu  Cu96  1  0.49938684  0.16500843  0.24959104  1
  Cu  Cu97  1  -0.00800242  0.34344047  0.50024739  1
  Cu  Cu98  1  0.66972990  0.67053618  -0.01040505  1
  Cu  Cu99  1  0.49347769  0.83279852  0.24703923  1
  Cu  Cu100  1  0.34694670  0.32616118  0.49483597  1
  Cu  Cu101  1  -0.01218207  0.67111278  0.51064692  1
  Cu  Cu102  1  0.33874571  0.67465634  -0.00484020  1
  Cu  Cu103  1  0.66040164  0.33485918  -0.00363853  1
  Cu  Cu104  1  0.50931177  0.48375002  0.25060426  1
  Cu  Cu105  1  0.83101015  0.17401927  0.25774917  1
  Cu  Cu106  1  0.16479516  0.50409657  0.75606462  1
  Cu  Cu107  1  0.65974742  0.00268131  -0.00961402  1
  Cu  Cu108  1  0.66108759  0.66521644  0.51184310  1
  Cu  Cu109  1  0.50554602  0.16872224  0.74735596  1
  Cu  Cu110  1  0.83107171  0.83744346  0.25374770  1
  Cu  Cu111  1  0.50061498  0.83928752  0.75054501  1
  Cu  Cu112  1  0.00263926  0.33260035  0.00617199  1
  Cu  Cu113  1  0.17168820  0.49774536  0.25080667  1
  Cu  Cu114  1  0.16660169  0.83001237  0.75699578  1
  Se  Se115  1  0.06774342  0.07076260  0.05526053  1
  Se  Se116  1  0.08446669  0.07053916  0.56231809  1
  Se  Se117  1  0.08402557  0.41283068  0.06374357  1
  Se  Se118  1  0.07559622  0.42140132  0.55955376  1
  Se  Se119  1  0.08539283  0.74904351  0.04181806  1
  Se  Se120  1  0.07644422  0.75028267  0.56341463  1
  Se  Se121  1  0.41395671  0.08313224  0.04860839  1
  Se  Se122  1  0.42319260  0.08286313  0.55116041  1
  Se  Se123  1  0.43785872  0.43265687  0.05509219  1
  Se  Se124  1  0.41915197  0.41755919  0.54998677  1
  Se  Se125  1  0.42135435  0.75777484  0.05063114  1
  Se  Se126  1  0.42028449  0.75327627  0.55852475  1
  Se  Se127  1  0.73598573  0.07717172  0.06001867  1
  Se  Se128  1  0.76611843  0.09668490  0.55272560  1
  Se  Se129  1  0.75128764  0.40758107  0.05506672  1
  Se  Se130  1  0.74325121  0.41907824  0.55496480  1
  Se  Se131  1  0.75046672  0.75135023  0.04748085  1
  Se  Se132  1  0.74695263  0.74985671  0.56072749  1
  Se  Se133  1  0.25973123  0.25815067  0.05839465  1
  Se  Se134  1  0.26463934  0.25774615  0.56185383  1
  Se  Se135  1  0.26230916  0.59447532  0.06082633  1
  Se  Se136  1  0.25045418  0.59109231  0.56389442  1
  Se  Se137  1  0.24817166  0.91869771  0.05261740  1
  Se  Se138  1  0.25715462  0.91742932  0.55881011  1
  Se  Se139  1  0.58096996  0.24888971  0.05035236  1
  Se  Se140  1  0.58270041  0.24223268  0.55109553  1
  Se  Se141  1  0.59353824  0.58550980  0.04873489  1
  Se  Se142  1  0.57703644  0.57943173  0.56159860  1
  Se  Se143  1  0.57955231  0.91758421  0.04728657  1
  Se  Se144  1  0.59170298  0.92388539  0.54971655  1
  Se  Se145  1  0.91567178  0.25255739  0.05954859  1
  Se  Se146  1  0.91624545  0.25283505  0.55210345  1
  Se  Se147  1  0.92867495  0.59518493  0.05603884  1
  Se  Se148  1  0.90721747  0.58233597  0.55856144  1
  Se  Se149  1  0.89238499  0.90866329  0.04428872  1
  Se  Se150  1  0.91621957  0.91611358  0.55446947  1
  Se  Se151  1  0.08131378  0.26329954  0.44565970  1
  Se  Se152  1  0.08062166  0.25363822  0.94480626  1
  Se  Se153  1  0.06917208  0.59542854  0.44598474  1
  Se  Se154  1  0.08050022  0.59056013  0.94184386  1
  Se  Se155  1  0.07706126  0.93217834  0.44072262  1
  Se  Se156  1  0.08112224  0.91025636  0.94836045  1
  Se  Se157  1  0.42624476  0.23971718  0.44284900  1
  Se  Se158  1  0.41361077  0.25636587  0.95010915  1
  Se  Se159  1  0.41604507  0.57967757  0.45111089  1
  Se  Se160  1  0.42225682  0.58790346  0.94646784  1
  Se  Se161  1  0.41614886  0.90827966  0.44544059  1
  Se  Se162  1  0.42016621  0.91910402  0.94214678  1
  Se  Se163  1  0.74842148  0.25079783  0.44838376  1
  Se  Se164  1  0.74340324  0.25739803  0.93572277  1
  Se  Se165  1  0.74590722  0.58554642  0.45441281  1
  Se  Se166  1  0.74564597  0.59088839  0.92704791  1
  Se  Se167  1  0.77491304  0.89043880  0.45530665  1
  Se  Se168  1  0.74640967  0.92009741  0.94072559  1
  Se  Se169  1  0.25841203  0.07923075  0.44171607  1
  Se  Se170  1  0.24926810  0.07500151  0.93328065  1
  Se  Se171  1  0.25855222  0.40400273  0.43834305  1
  Se  Se172  1  0.27108027  0.40741124  0.94917485  1
  Se  Se173  1  0.25968448  0.74028579  0.44089073  1
  Se  Se174  1  0.25221186  0.75674028  0.94534889  1
  Se  Se175  1  0.60812562  0.05112666  0.44697627  1
  Se  Se176  1  0.57854882  0.09166783  0.94215019  1
  Se  Se177  1  0.57865108  0.41656632  0.44599823  1
  Se  Se178  1  0.58824386  0.42561186  0.94100486  1
  Se  Se179  1  0.58002121  0.74831926  0.45443312  1
  Se  Se180  1  0.58293432  0.75553145  0.94102367  1
  Se  Se181  1  0.93053791  0.08764766  0.45716443  1
  Se  Se182  1  0.92420955  0.07078149  0.94235796  1
  Se  Se183  1  0.90830735  0.42468946  0.44646297  1
  Se  Se184  1  0.92634023  0.41313553  0.94357189  1
  Se  Se185  1  0.91801743  0.75411521  0.44743953  1
  Se  Se186  1  0.90827139  0.73448190  0.93860498  1
  Se  Se187  1  0.25546612  0.25082100  0.29858775  1
  Se  Se188  1  0.24266057  0.24103412  0.81177829  1
  Se  Se189  1  0.24463845  0.57958475  0.31377827  1
  Se  Se190  1  0.25263801  0.58520739  0.80622487  1
  Se  Se191  1  0.25044989  0.91618453  0.29345444  1
  Se  Se192  1  0.25405516  0.91740266  0.80298643  1
  Se  Se193  1  0.58730849  0.24003943  0.30614980  1
  Se  Se194  1  0.58369683  0.25601873  0.80189275  1
  Se  Se195  1  0.58051242  0.57501967  0.30954214  1
  Se  Se196  1  0.58357984  0.58844481  0.80022850  1
  Se  Se197  1  0.57542665  0.90531195  0.31209795  1
  Se  Se198  1  0.58539577  0.92367617  0.80169829  1
  Se  Se199  1  0.91798019  0.25733066  0.30731092  1
  Se  Se200  1  0.90456504  0.23763398  0.81144490  1
  Se  Se201  1  0.90547434  0.58678646  0.31258518  1
  Se  Se202  1  0.89837771  0.56063784  0.79497337  1
  Se  Se203  1  0.90056653  0.92436322  0.31458250  1
  Se  Se204  1  0.91725991  0.90998953  0.80557600  1
  Se  Se205  1  0.09010827  0.09236564  0.31191891  1
  Se  Se206  1  0.07726307  0.07485987  0.80053304  1
  Se  Se207  1  0.08193681  0.42004870  0.30300104  1
  Se  Se208  1  0.08585678  0.41679372  0.81074539  1
  Se  Se209  1  0.08942886  0.76829569  0.30303905  1
  Se  Se210  1  0.07887608  0.74768778  0.80743427  1
  Se  Se211  1  0.42106485  0.07696540  0.30439690  1
  Se  Se212  1  0.41868455  0.08763651  0.80047700  1
  Se  Se213  1  0.41924827  0.40717010  0.30297547  1
  Se  Se214  1  0.42461348  0.42258944  0.81217639  1
  Se  Se215  1  0.42255729  0.74602571  0.30929026  1
  Se  Se216  1  0.41826057  0.75220299  0.80288451  1
  Se  Se217  1  0.76150756  0.08845022  0.32047163  1
  Se  Se218  1  0.74726108  0.07762324  0.79823770  1
  Se  Se219  1  0.74449867  0.41449744  0.30694049  1
  Se  Se220  1  0.74929761  0.41097301  0.79111184  1
  Se  Se221  1  0.74510640  0.75960059  0.31115756  1
  Se  Se222  1  0.74148587  0.75140315  0.79531024  1
  Se  Se223  1  0.25048664  0.08212414  0.19391318  1
  Se  Se224  1  0.25785847  0.07744250  0.70091324  1
  Se  Se225  1  0.25724687  0.41655235  0.19829119  1
  Se  Se226  1  0.24201945  0.42335998  0.69346248  1
  Se  Se227  1  0.24258823  0.75888553  0.19255334  1
  Se  Se228  1  0.25290835  0.74768275  0.70361041  1
  Se  Se229  1  0.57791568  0.08448336  0.18750829  1
  Se  Se230  1  0.58260852  0.08111287  0.69217088  1
  Se  Se231  1  0.59220496  0.40513007  0.19423105  1
  Se  Se232  1  0.58100155  0.41565083  0.69674018  1
  Se  Se233  1  0.57699372  0.75575125  0.18800470  1
  Se  Se234  1  0.58306600  0.75423581  0.69742004  1
  Se  Se235  1  0.90428493  0.09378824  0.19200842  1
  Se  Se236  1  0.91669618  0.07745754  0.69634952  1
  Se  Se237  1  0.92111890  0.41467978  0.20140743  1
  Se  Se238  1  0.90953495  0.40862752  0.68524209  1
  Se  Se239  1  0.91022118  0.76447672  0.18890212  1
  Se  Se240  1  0.91658738  0.74562872  0.69934321  1
  Se  Se241  1  0.07912448  0.25206621  0.20116239  1
  Se  Se242  1  0.09129521  0.23382656  0.68792301  1
  Se  Se243  1  0.09402519  0.57985665  0.19081075  1
  Se  Se244  1  0.07852588  0.58673946  0.70509392  1
  Se  Se245  1  0.07784313  0.90982412  0.18493363  1
  Se  Se246  1  0.08446361  0.91162867  0.70057133  1
  Se  Se247  1  0.41850848  0.24821623  0.19360526  1
  Se  Se248  1  0.42520488  0.24990448  0.68658078  1
  Se  Se249  1  0.43532424  0.57389342  0.19188576  1
  Se  Se250  1  0.41141176  0.58620710  0.69898417  1
  Se  Se251  1  0.41350664  0.91799864  0.19411401  1
  Se  Se252  1  0.41654808  0.92169148  0.69558565  1
  Se  Se253  1  0.74480158  0.25241595  0.20333024  1
  Se  Se254  1  0.74217123  0.24715611  0.69519712  1
  Se  Se255  1  0.76214144  0.57071636  0.18845905  1
  Se  Se256  1  0.74361877  0.58649142  0.70168427  1
  Se  Se257  1  0.74538683  0.91485782  0.19405896  1
  Se  Se258  1  0.74803634  0.91931365  0.69402658  1
