# generated using pymatgen
data_In86Cu29Se144
_symmetry_space_group_name_H-M   'P 1'
_cell_length_a   17.55772300
_cell_length_b   17.55827841
_cell_length_c   23.40774946
_cell_angle_alpha   89.98622820
_cell_angle_beta   90.02996983
_cell_angle_gamma   90.03458547
_symmetry_Int_Tables_number   1
_chemical_formula_structural   In86Cu29Se144
_chemical_formula_sum   'In86 Cu29 Se144'
_cell_volume   7216.21781508
_cell_formula_units_Z   1
loop_
 _symmetry_equiv_pos_site_id
 _symmetry_equiv_pos_as_xyz
  1  'x, y, z'
loop_
 _atom_site_type_symbol
 _atom_site_label
 _atom_site_symmetry_multiplicity
 _atom_site_fract_x
 _atom_site_fract_y
 _atom_site_fract_z
 _atom_site_occupancy
  In  In0  1  -0.00326165  0.15664627  0.11953254  1
  In  In1  1  -0.00066827  0.16472786  0.62517277  1
  In  In2  1  0.00085831  0.51751905  0.11497248  1
  In  In3  1  0.02331087  0.47902684  0.65366738  1
  In  In4  1  0.00008567  0.84556876  0.12490466  1
  In  In5  1  -0.00533360  0.83017213  0.63932764  1
  In  In6  1  0.33347030  0.15936218  0.11235203  1
  In  In7  1  0.31217207  0.17814504  0.63535324  1
  In  In8  1  0.33292579  0.48532032  0.11410760  1
  In  In9  1  0.29073639  0.52582522  0.66854264  1
  In  In10  1  0.33315436  0.82295344  0.11988909  1
  In  In11  1  0.33424714  0.83742272  0.63586262  1
  In  In12  1  0.66582407  0.17150914  0.12873683  1
  In  In13  1  0.68061080  0.16383617  0.62224743  1
  In  In14  1  0.66419110  0.49470458  0.11058716  1
  In  In15  1  0.66126457  0.49526920  0.62912141  1
  In  In16  1  0.67279202  0.83964490  0.11502803  1
  In  In17  1  0.66989413  0.83357836  0.62050146  1
  In  In18  1  0.15306336  0.01134695  0.38907813  1
  In  In19  1  0.17229664  -0.00015378  0.86266898  1
  In  In20  1  0.16855186  0.32750920  0.39057732  1
  In  In21  1  0.15540564  0.33076710  0.85878016  1
  In  In22  1  0.15915679  0.67286071  0.39379126  1
  In  In23  1  0.16963932  0.66654536  0.84642619  1
  In  In24  1  0.49271901  -0.00950092  0.37757785  1
  In  In25  1  0.49384187  0.00248186  0.88039174  1
  In  In26  1  0.50594670  0.32382187  0.37582624  1
  In  In27  1  0.50292196  0.32683353  0.87450612  1
  In  In28  1  0.51007377  0.67429083  0.37995310  1
  In  In29  1  0.48693475  0.67507346  0.87564388  1
  In  In30  1  0.83760652  -0.00279610  0.37761136  1
  In  In31  1  0.84031382  -0.01784430  0.86895356  1
  In  In32  1  0.82098805  0.33412655  0.37238992  1
  In  In33  1  0.84596876  0.35089730  0.85998111  1
  In  In34  1  0.84531864  0.66981275  0.37936874  1
  In  In35  1  0.83420174  0.66799909  0.87338361  1
  In  In36  1  0.01166198  0.15046244  0.38482069  1
  In  In37  1  0.00910377  0.17664998  0.87202872  1
  In  In38  1  0.00179007  0.51055424  0.38309568  1
  In  In39  1  -0.00706548  0.50185925  0.85102698  1
  In  In40  1  -0.01842094  0.85381594  0.39858232  1
  In  In41  1  -0.00674825  0.82617919  0.85194072  1
  In  In42  1  0.32752293  0.16251413  0.38043778  1
  In  In43  1  0.33050828  0.16321818  0.87293059  1
  In  In44  1  0.33025927  0.49035597  0.38563981  1
  In  In45  1  0.33792848  0.50467563  0.86143146  1
  In  In46  1  0.33486570  0.83313648  0.39292104  1
  In  In47  1  0.34708099  0.85089774  0.84162816  1
  In  In48  1  0.67467105  0.17283914  0.36996733  1
  In  In49  1  0.65429200  0.16704320  0.87896430  1
  In  In50  1  0.67429738  0.49004428  0.37189069  1
  In  In51  1  0.67919821  0.48808629  0.87741313  1
  In  In52  1  0.66463274  0.84080295  0.37880254  1
  In  In53  1  0.66628331  0.83388426  0.88249032  1
  In  In54  1  0.15415362  0.00658587  0.12551147  1
  In  In55  1  0.15888043  -0.00667389  0.63529469  1
  In  In56  1  0.17586632  0.32930606  0.12100543  1
  In  In57  1  0.16514421  0.33349889  0.62778833  1
  In  In58  1  0.16268023  0.67331281  0.12350894  1
  In  In59  1  0.16854720  0.67571441  0.63789561  1
  In  In60  1  0.50967769  0.00782877  0.11499874  1
  In  In61  1  0.49310841  -0.01781504  0.62727897  1
  In  In62  1  0.50850149  0.33563972  0.11009849  1
  In  In63  1  0.48842257  0.33714859  0.63483581  1
  In  In64  1  0.50864884  0.67079707  0.10655375  1
  In  In65  1  0.48725404  0.67606915  0.63518052  1
  In  In66  1  0.83704608  -0.01331683  0.13416138  1
  In  In67  1  0.83548225  0.00383404  0.62258585  1
  In  In68  1  0.82357264  0.32587017  0.12056160  1
  In  In69  1  0.84624170  0.32693543  0.64261475  1
  In  In70  1  0.83526373  0.66829402  0.10869288  1
  In  In71  1  0.83999569  0.67414690  0.62782238  1
  In  In72  1  -0.00399124  0.32651278  0.24645228  1
  In  In73  1  0.33462429  0.66302880  0.24329349  1
  In  In74  1  0.83174510  0.16576697  0.00053841  1
  In  In75  1  -0.00201335  0.67424497  0.24723284  1
  In  In76  1  0.66902716  0.66856313  0.75007319  1
  In  In77  1  0.16554246  0.50136236  -0.02266270  1
  In  In78  1  0.17156079  0.83573871  -0.01539939  1
  In  In79  1  0.66742534  0.00386660  0.75092665  1
  In  In80  1  0.83876055  0.50635121  0.50676086  1
  In  In81  1  0.49180231  0.50885010  0.51166242  1
  In  In82  1  0.49324863  0.16284239  0.49814864  1
  In  In83  1  0.33879985  0.32178148  0.26001794  1
  In  In84  1  0.33259662  0.00092108  0.24913489  1
  In  In85  1  0.67143525  0.67176623  0.25511230  1
  Cu  Cu86  1  0.01157819  0.66511519  0.51485774  1
  Cu  Cu87  1  0.16481546  0.16361831  0.74654840  1
  Cu  Cu88  1  0.67269186  -0.00195766  0.50161038  1
  Cu  Cu89  1  0.00025733  -0.00039336  -0.00112026  1
  Cu  Cu90  1  -0.00327178  0.33231209  0.51169978  1
  Cu  Cu91  1  0.50776721  0.49203878  0.23600916  1
  Cu  Cu92  1  0.82590431  0.49442268  0.24146786  1
  Cu  Cu93  1  0.33161802  -0.00540290  -0.01139743  1
  Cu  Cu94  1  0.50187383  0.83617037  0.25054803  1
  Cu  Cu95  1  0.32141416  0.34347310  0.51340267  1
  Cu  Cu96  1  0.66242208  0.66221685  -0.01036908  1
  Cu  Cu97  1  0.32619194  -0.00115489  0.51200948  1
  Cu  Cu98  1  -0.00735300  0.67383028  -0.01372991  1
  Cu  Cu99  1  0.49573646  0.16114524  0.75323450  1
  Cu  Cu100  1  0.32599928  0.67047128  0.51867074  1
  Cu  Cu101  1  0.51273384  0.49041034  0.75738100  1
  Cu  Cu102  1  0.17119889  0.49496769  0.26255898  1
  Cu  Cu103  1  0.83469022  0.17256825  0.75110514  1
  Cu  Cu104  1  0.32847177  0.66555714  -0.01213226  1
  Cu  Cu105  1  0.00226736  -0.00586426  0.51088686  1
  Cu  Cu106  1  0.00273017  0.34443346  -0.01413023  1
  Cu  Cu107  1  0.33820166  0.32538804  -0.00582006  1
  Cu  Cu108  1  0.83521634  0.15780200  0.25115598  1
  Cu  Cu109  1  0.50867334  0.17265717  0.24613767  1
  Cu  Cu110  1  0.66791044  0.68046606  0.50210999  1
  Cu  Cu111  1  0.66748605  -0.00552228  -0.00080416  1
  Cu  Cu112  1  0.15675200  0.84495662  0.26358949  1
  Cu  Cu113  1  0.66568923  0.32930472  0.50297472  1
  Cu  Cu114  1  0.67214574  0.33195641  -0.00490530  1
  Se  Se115  1  0.08508827  0.08622062  0.04705173  1
  Se  Se116  1  0.08674996  0.08007354  0.56078191  1
  Se  Se117  1  0.08448457  0.41834450  0.05377627  1
  Se  Se118  1  0.07925548  0.41894818  0.56146859  1
  Se  Se119  1  0.07685205  0.74836965  0.04999508  1
  Se  Se120  1  0.08556472  0.75703965  0.56777891  1
  Se  Se121  1  0.41529200  0.07586413  0.04565602  1
  Se  Se122  1  0.40791271  0.08361875  0.56803274  1
  Se  Se123  1  0.41982930  0.41519736  0.04295383  1
  Se  Se124  1  0.40102694  0.42386909  0.57111493  1
  Se  Se125  1  0.41060192  0.74788995  0.04579636  1
  Se  Se126  1  0.41606473  0.75732687  0.56021487  1
  Se  Se127  1  0.74683499  0.07370567  0.06179149  1
  Se  Se128  1  0.75696544  0.08543568  0.54886162  1
  Se  Se129  1  0.75788361  0.41507006  0.04766160  1
  Se  Se130  1  0.74819508  0.40982692  0.56120241  1
  Se  Se131  1  0.74382992  0.74755347  0.04580543  1
  Se  Se132  1  0.75973888  0.75318743  0.55522958  1
  Se  Se133  1  0.24982046  0.24755885  0.04808150  1
  Se  Se134  1  0.24032835  0.24679557  0.55356150  1
  Se  Se135  1  0.24779784  0.58857448  0.05217746  1
  Se  Se136  1  0.24672576  0.58188950  0.56998970  1
  Se  Se137  1  0.25194104  0.92296625  0.05867636  1
  Se  Se138  1  0.24657265  0.91345509  0.56618921  1
  Se  Se139  1  0.59242336  0.24398376  0.04869016  1
  Se  Se140  1  0.57946707  0.25339167  0.56123944  1
  Se  Se141  1  0.57986815  0.57557333  0.04224261  1
  Se  Se142  1  0.59053306  0.59942497  0.56405579  1
  Se  Se143  1  0.57728429  0.91053080  0.04796934  1
  Se  Se144  1  0.58602683  0.91928404  0.55480365  1
  Se  Se145  1  0.92922332  0.26243409  0.05157177  1
  Se  Se146  1  0.90951130  0.25020640  0.56049034  1
  Se  Se147  1  0.91601180  0.58374860  0.03989582  1
  Se  Se148  1  0.93347497  0.57880886  0.57276144  1
  Se  Se149  1  0.91592380  0.91947878  0.05320185  1
  Se  Se150  1  0.91752593  0.90975070  0.56233208  1
  Se  Se151  1  0.07746650  0.24873784  0.45371115  1
  Se  Se152  1  0.09016286  0.25726308  0.94313199  1
  Se  Se153  1  0.08659038  0.57639971  0.45856881  1
  Se  Se154  1  0.07727178  0.59952068  0.92506197  1
  Se  Se155  1  0.09117328  0.91283892  0.45797787  1
  Se  Se156  1  0.07254289  0.92133751  0.93176186  1
  Se  Se157  1  0.40170783  0.26723020  0.44727750  1
  Se  Se158  1  0.42047183  0.23994533  0.94180707  1
  Se  Se159  1  0.40478556  0.59867748  0.44593780  1
  Se  Se160  1  0.41363556  0.57760457  0.94047781  1
  Se  Se161  1  0.41667261  0.92285887  0.45730545  1
  Se  Se162  1  0.40623328  0.90472645  0.93492282  1
  Se  Se163  1  0.74975218  0.25039513  0.44692473  1
  Se  Se164  1  0.75602624  0.25816798  0.93266362  1
  Se  Se165  1  0.74068424  0.59067423  0.44233236  1
  Se  Se166  1  0.75419010  0.58329291  0.94162214  1
  Se  Se167  1  0.75508999  0.91290688  0.44793897  1
  Se  Se168  1  0.75553275  0.91734909  0.94612218  1
  Se  Se169  1  0.25086886  0.08491704  0.45342657  1
  Se  Se170  1  0.24417059  0.07802872  0.94013807  1
  Se  Se171  1  0.23913766  0.42435601  0.45627966  1
  Se  Se172  1  0.25953660  0.40436316  0.93090256  1
  Se  Se173  1  0.24697270  0.75381688  0.45906168  1
  Se  Se174  1  0.25497798  0.74391495  0.92338385  1
  Se  Se175  1  0.59060918  0.07824062  0.44013181  1
  Se  Se176  1  0.58292932  0.07916636  0.94908865  1
  Se  Se177  1  0.58407641  0.41605168  0.44791592  1
  Se  Se178  1  0.58518824  0.41335753  0.94268636  1
  Se  Se179  1  0.58014794  0.76098329  0.45062757  1
  Se  Se180  1  0.57663881  0.75067608  0.94450678  1
  Se  Se181  1  0.92061689  0.07530048  0.45161270  1
  Se  Se182  1  0.92050675  0.07988691  0.93694004  1
  Se  Se183  1  0.92036333  0.40811686  0.44280782  1
  Se  Se184  1  0.92298549  0.42974745  0.93417625  1
  Se  Se185  1  0.92305413  0.73994462  0.45629675  1
  Se  Se186  1  0.91522634  0.76438330  0.93505074  1
  Se  Se187  1  0.23481457  0.23939930  0.31041900  1
  Se  Se188  1  0.24929711  0.24492900  0.80181223  1
  Se  Se189  1  0.24827121  0.58368832  0.31718739  1
  Se  Se190  1  0.24062631  0.56083055  0.78931087  1
  Se  Se191  1  0.25016805  0.91512906  0.31933335  1
  Se  Se192  1  0.22437310  0.89631360  0.79269446  1
  Se  Se193  1  0.58943836  0.25614913  0.30133119  1
  Se  Se194  1  0.58430555  0.24473560  0.80151638  1
  Se  Se195  1  0.57509525  0.57362881  0.30663769  1
  Se  Se196  1  0.58264333  0.58121217  0.81558795  1
  Se  Se197  1  0.58129568  0.91910137  0.30663627  1
  Se  Se198  1  0.57935230  0.91388325  0.81106101  1
  Se  Se199  1  0.91220045  0.24033621  0.31332660  1
  Se  Se200  1  0.92430400  0.25361440  0.80107801  1
  Se  Se201  1  0.90844919  0.57234284  0.30359191  1
  Se  Se202  1  0.92663039  0.61316516  0.79568222  1
  Se  Se203  1  0.92270760  0.91417007  0.31067702  1
  Se  Se204  1  0.93040139  0.93392633  0.78965562  1
  Se  Se205  1  0.08866762  0.08288654  0.30664383  1
  Se  Se206  1  0.07966740  0.08518342  0.80296718  1
  Se  Se207  1  0.08220491  0.41665124  0.31433252  1
  Se  Se208  1  0.08898013  0.42516498  0.79089958  1
  Se  Se209  1  0.08102856  0.75542254  0.31892514  1
  Se  Se210  1  0.10601733  0.77580180  0.78976878  1
  Se  Se211  1  0.42588865  0.09589521  0.30783668  1
  Se  Se212  1  0.41330313  0.07627942  0.80493833  1
  Se  Se213  1  0.42836133  0.42623271  0.30931051  1
  Se  Se214  1  0.42122783  0.40894466  0.80367865  1
  Se  Se215  1  0.41905925  0.75533374  0.30950889  1
  Se  Se216  1  0.40110121  0.72894039  0.79370165  1
  Se  Se217  1  0.75122082  0.07864478  0.30761281  1
  Se  Se218  1  0.75783527  0.09173546  0.81462080  1
  Se  Se219  1  0.74510207  0.41074190  0.29549226  1
  Se  Se220  1  0.74603924  0.41666937  0.79607915  1
  Se  Se221  1  0.76417597  0.75969987  0.31250778  1
  Se  Se222  1  0.75468878  0.76498188  0.80738771  1
  Se  Se223  1  0.24475497  0.09418191  0.19131568  1
  Se  Se224  1  0.25095734  0.07490161  0.70022428  1
  Se  Se225  1  0.24985980  0.41932057  0.19815973  1
  Se  Se226  1  0.26818930  0.38665038  0.69705879  1
  Se  Se227  1  0.23473957  0.76469379  0.19859802  1
  Se  Se228  1  0.28471737  0.72559108  0.70079203  1
  Se  Se229  1  0.58375073  0.08132690  0.19345582  1
  Se  Se230  1  0.57640120  0.08865174  0.68653947  1
  Se  Se231  1  0.59101737  0.40997816  0.18479286  1
  Se  Se232  1  0.58933229  0.40645580  0.69836155  1
  Se  Se233  1  0.57605522  0.75038829  0.18942483  1
  Se  Se234  1  0.57836766  0.76489662  0.69634502  1
  Se  Se235  1  0.91970236  0.08116060  0.19417660  1
  Se  Se236  1  0.91088660  0.08733263  0.69509397  1
  Se  Se237  1  0.91635736  0.42508577  0.18247955  1
  Se  Se238  1  0.90654650  0.42689131  0.70799852  1
  Se  Se239  1  0.90446525  0.75706429  0.18656519  1
  Se  Se240  1  0.91952436  0.73647774  0.70845143  1
  Se  Se241  1  0.09055109  0.24229074  0.18721957  1
  Se  Se242  1  0.08037256  0.24824676  0.69493707  1
  Se  Se243  1  0.09509694  0.57478996  0.19642254  1
  Se  Se244  1  0.08210980  0.59407312  0.70513635  1
  Se  Se245  1  0.08202920  0.92054664  0.19837238  1
  Se  Se246  1  0.05662563  0.93492091  0.70430128  1
  Se  Se247  1  0.42210036  0.24546484  0.18467129  1
  Se  Se248  1  0.41274626  0.24517201  0.69995081  1
  Se  Se249  1  0.42403615  0.57323761  0.18043766  1
  Se  Se250  1  0.43298861  0.56395210  0.69300174  1
  Se  Se251  1  0.42045309  0.91040992  0.18667514  1
  Se  Se252  1  0.41787006  0.91766806  0.70721649  1
  Se  Se253  1  0.75574719  0.24642890  0.19801781  1
  Se  Se254  1  0.74384890  0.24882445  0.69883799  1
  Se  Se255  1  0.75218981  0.58378068  0.18439430  1
  Se  Se256  1  0.75633935  0.57665102  0.69098052  1
  Se  Se257  1  0.73972020  0.91207052  0.19487208  1
  Se  Se258  1  0.75603051  0.91199891  0.69322708  1
