# generated using pymatgen
data_In86Cu29Se144
_symmetry_space_group_name_H-M   'P 1'
_cell_length_a   17.59338572
_cell_length_b   17.58471116
_cell_length_c   23.45433898
_cell_angle_alpha   89.99919874
_cell_angle_beta   90.00050449
_cell_angle_gamma   89.98382763
_symmetry_Int_Tables_number   1
_chemical_formula_structural   In86Cu29Se144
_chemical_formula_sum   'In86 Cu29 Se144'
_cell_volume   7256.17659406
_cell_formula_units_Z   1
loop_
 _symmetry_equiv_pos_site_id
 _symmetry_equiv_pos_as_xyz
  1  'x, y, z'
loop_
 _atom_site_type_symbol
 _atom_site_label
 _atom_site_symmetry_multiplicity
 _atom_site_fract_x
 _atom_site_fract_y
 _atom_site_fract_z
 _atom_site_occupancy
  In  In0  1  -0.01235915  0.18321059  0.12921278  1
  In  In1  1  -0.02226657  0.15054421  0.60603584  1
  In  In2  1  -0.01704911  0.47231383  0.10792090  1
  In  In3  1  -0.00941231  0.49985417  0.62351416  1
  In  In4  1  -0.00395446  0.82707625  0.12049721  1
  In  In5  1  0.00528706  0.84872972  0.62847475  1
  In  In6  1  0.34300101  0.15788854  0.13951615  1
  In  In7  1  0.32962110  0.15402267  0.61467744  1
  In  In8  1  0.32859360  0.50045529  0.13270028  1
  In  In9  1  0.33573109  0.48580695  0.61999629  1
  In  In10  1  0.32612153  0.84373451  0.13155914  1
  In  In11  1  0.35483071  0.85060587  0.61468255  1
  In  In12  1  0.67588786  0.17399702  0.11747377  1
  In  In13  1  0.66581238  0.15965567  0.61977670  1
  In  In14  1  0.66726476  0.48851642  0.12875468  1
  In  In15  1  0.66391086  0.49086967  0.61880945  1
  In  In16  1  0.66991868  0.82884013  0.12360407  1
  In  In17  1  0.66701336  0.84460508  0.61624149  1
  In  In18  1  0.18069449  0.00696744  0.37107379  1
  In  In19  1  0.15582409  -0.00163514  0.87084890  1
  In  In20  1  0.15989601  0.31925752  0.36645511  1
  In  In21  1  0.17031754  0.33719459  0.88904478  1
  In  In22  1  0.17289901  0.65643572  0.37016111  1
  In  In23  1  0.16623380  0.66996489  0.88654983  1
  In  In24  1  0.49757932  0.00736708  0.38644145  1
  In  In25  1  0.51670076  0.01203204  0.85618871  1
  In  In26  1  0.50580995  0.32714280  0.36901984  1
  In  In27  1  0.49732710  0.31888269  0.87657172  1
  In  In28  1  0.49301624  0.67355580  0.37846570  1
  In  In29  1  0.49352453  0.67587434  0.87123393  1
  In  In30  1  0.80786941  0.01860519  0.39992525  1
  In  In31  1  0.82909243  0.00500461  0.87403631  1
  In  In32  1  0.83543348  0.32941624  0.37284803  1
  In  In33  1  0.82571849  0.33970871  0.88340373  1
  In  In34  1  0.82078351  0.67302502  0.37942716  1
  In  In35  1  0.84053733  0.65858308  0.88131181  1
  In  In36  1  -0.01307032  0.19951222  0.39685695  1
  In  In37  1  -0.00121949  0.15517390  0.87570726  1
  In  In38  1  -0.00258332  0.47918971  0.37514312  1
  In  In39  1  -0.00021031  0.49658539  0.88977641  1
  In  In40  1  -0.01211303  0.83418820  0.37716193  1
  In  In41  1  -0.00700056  0.84385544  0.88006567  1
  In  In42  1  0.34012557  0.16405731  0.37175937  1
  In  In43  1  0.34448102  0.16791363  0.87927399  1
  In  In44  1  0.33915467  0.50869450  0.36493025  1
  In  In45  1  0.33457702  0.48947186  0.88342745  1
  In  In46  1  0.36558807  0.86186435  0.34508899  1
  In  In47  1  0.32905099  0.83672694  0.87519959  1
  In  In48  1  0.65665902  0.17250867  0.37762015  1
  In  In49  1  0.66523324  0.16728948  0.87169982  1
  In  In50  1  0.68021787  0.48565087  0.37863713  1
  In  In51  1  0.67776933  0.50019845  0.87366440  1
  In  In52  1  0.65244019  0.85663229  0.40266209  1
  In  In53  1  0.66433402  0.85231115  0.87127028  1
  In  In54  1  0.17607239  0.00075129  0.12380479  1
  In  In55  1  0.15957491  0.01106246  0.63412354  1
  In  In56  1  0.15894268  0.34110082  0.13393942  1
  In  In57  1  0.17534920  0.32881459  0.62109421  1
  In  In58  1  0.16886282  0.66474578  0.12164538  1
  In  In59  1  0.16177901  0.66367757  0.62861540  1
  In  In60  1  0.48378899  -0.00148407  0.13026722  1
  In  In61  1  0.49923800  -0.00038102  0.61911475  1
  In  In62  1  0.52298913  0.30930408  0.14867109  1
  In  In63  1  0.51239837  0.33820865  0.61369281  1
  In  In64  1  0.49688749  0.66595010  0.13258075  1
  In  In65  1  0.50652551  0.66970243  0.61103583  1
  In  In66  1  0.83310741  0.00438433  0.11767876  1
  In  In67  1  0.83161754  0.00078092  0.62245128  1
  In  In68  1  0.82622184  0.32995873  0.12522879  1
  In  In69  1  0.81104851  0.30068881  0.60133997  1
  In  In70  1  0.84203411  0.67145315  0.12301339  1
  In  In71  1  0.82819425  0.66214473  0.62030717  1
  In  In72  1  0.50138893  0.49427351  0.01565659  1
  In  In73  1  0.33849042  0.32768857  0.74964555  1
  In  In74  1  -0.00088645  0.00825902  0.24963640  1
  In  In75  1  0.16778990  0.82850981  0.49511596  1
  In  In76  1  0.50278413  0.84022279  -0.00417495  1
  In  In77  1  0.15834361  0.16856047  0.00714917  1
  In  In78  1  0.33511622  0.67560280  0.74712997  1
  In  In79  1  -0.00451430  0.32201811  0.74702622  1
  In  In80  1  0.00205157  0.65920913  0.24481925  1
  In  In81  1  0.66389271  0.66891994  0.25193883  1
  In  In82  1  0.17044028  0.49550720  0.49446231  1
  In  In83  1  -0.00497800  0.67316311  0.76432885  1
  In  In84  1  0.65758672  0.01086573  0.26319299  1
  In  In85  1  0.66736940  0.67976569  0.74294453  1
  Cu  Cu86  1  0.16499393  0.49444079  0.24886771  1
  Cu  Cu87  1  0.82641155  0.16136711  0.74310042  1
  Cu  Cu88  1  0.50794830  0.50259730  0.74220599  1
  Cu  Cu89  1  0.50056933  0.49871800  0.25279126  1
  Cu  Cu90  1  0.83546568  0.83992909  0.74974547  1
  Cu  Cu91  1  0.33303393  0.33323489  0.01104156  1
  Cu  Cu92  1  0.50442299  0.16681146  0.74391841  1
  Cu  Cu93  1  0.16631039  0.82600116  0.24663788  1
  Cu  Cu94  1  0.00801394  0.66454020  0.00286976  1
  Cu  Cu95  1  0.00531646  0.00212110  0.50487390  1
  Cu  Cu96  1  0.66403941  0.33286808  0.00284962  1
  Cu  Cu97  1  0.66132573  0.65720806  0.49895124  1
  Cu  Cu98  1  0.34412832  0.33029778  0.49220793  1
  Cu  Cu99  1  0.66608714  0.00884571  -0.00546169  1
  Cu  Cu100  1  0.16946803  0.16320180  0.25196400  1
  Cu  Cu101  1  0.33390398  0.66820588  0.49110048  1
  Cu  Cu102  1  0.82390832  0.84811881  0.25707341  1
  Cu  Cu103  1  0.16787907  0.16546915  0.74879561  1
  Cu  Cu104  1  0.16285127  0.50326321  0.76198937  1
  Cu  Cu105  1  0.67926958  0.67119748  0.00089224  1
  Cu  Cu106  1  0.83852564  0.49488845  0.25131266  1
  Cu  Cu107  1  0.66428226  0.33313329  0.49499730  1
  Cu  Cu108  1  0.82903885  0.47989241  0.74892449  1
  Cu  Cu109  1  0.33212347  -0.00022965  0.00278164  1
  Cu  Cu110  1  0.33443541  -0.00044751  0.49364452  1
  Cu  Cu111  1  0.17563286  0.84648517  0.75010596  1
  Cu  Cu112  1  -0.00455583  -0.00623071  -0.00195837  1
  Cu  Cu113  1  0.33452227  0.66772253  0.00330374  1
  Cu  Cu114  1  -0.01272760  0.66333744  0.49883121  1
  Se  Se115  1  0.06849140  0.07414296  0.06545540  1
  Se  Se116  1  0.09250306  0.08606213  0.55351892  1
  Se  Se117  1  0.09395836  0.41311787  0.05164527  1
  Se  Se118  1  0.08053023  0.41357454  0.55930514  1
  Se  Se119  1  0.08749001  0.75157269  0.05504441  1
  Se  Se120  1  0.07208238  0.74062011  0.55828620  1
  Se  Se121  1  0.41267448  0.08416889  0.05724512  1
  Se  Se122  1  0.42034876  0.08312701  0.54532596  1
  Se  Se123  1  0.41784499  0.40232383  0.07523088  1
  Se  Se124  1  0.42053121  0.41769021  0.54758069  1
  Se  Se125  1  0.41613953  0.75001322  0.05935071  1
  Se  Se126  1  0.41538158  0.75026748  0.54785426  1
  Se  Se127  1  0.75323205  0.08771551  0.04818421  1
  Se  Se128  1  0.77349596  0.10368386  0.55564653  1
  Se  Se129  1  0.74776907  0.41909798  0.05347882  1
  Se  Se130  1  0.75027279  0.41597744  0.54823329  1
  Se  Se131  1  0.75884361  0.75560940  0.05505128  1
  Se  Se132  1  0.74023214  0.74177285  0.55619623  1
  Se  Se133  1  0.25459617  0.24794903  0.06897296  1
  Se  Se134  1  0.25923662  0.25394276  0.55055780  1
  Se  Se135  1  0.25609305  0.58043990  0.05594596  1
  Se  Se136  1  0.25654190  0.59174389  0.55792180  1
  Se  Se137  1  0.24849175  0.91337755  0.05213616  1
  Se  Se138  1  0.24777739  0.92533200  0.55650900  1
  Se  Se139  1  0.57739820  0.25184488  0.05545935  1
  Se  Se140  1  0.58487263  0.24449182  0.54799048  1
  Se  Se141  1  0.59594136  0.59623056  0.06287603  1
  Se  Se142  1  0.57792432  0.57078877  0.55018215  1
  Se  Se143  1  0.59052153  0.92824295  0.05933881  1
  Se  Se144  1  0.58157517  0.92026601  0.54768183  1
  Se  Se145  1  0.91110779  0.25366376  0.05376095  1
  Se  Se146  1  0.93548767  0.26762560  0.54931184  1
  Se  Se147  1  0.91890718  0.58534735  0.05421281  1
  Se  Se148  1  0.90950405  0.57737291  0.55251290  1
  Se  Se149  1  0.91239057  0.91176552  0.05460571  1
  Se  Se150  1  0.92095487  0.91633334  0.55509775  1
  Se  Se151  1  0.09957024  0.25455250  0.45347544  1
  Se  Se152  1  0.06917097  0.25579080  0.94450538  1
  Se  Se153  1  0.07378958  0.58861069  0.43926682  1
  Se  Se154  1  0.09138001  0.57846172  0.95186232  1
  Se  Se155  1  0.07947323  0.92409175  0.43779707  1
  Se  Se156  1  0.08677604  0.91624272  0.94773613  1
  Se  Se157  1  0.42572529  0.24406449  0.44133461  1
  Se  Se158  1  0.41363443  0.25341163  0.95289454  1
  Se  Se159  1  0.41637204  0.57841258  0.44384939  1
  Se  Se160  1  0.41887506  0.58810486  0.94641229  1
  Se  Se161  1  0.41352575  0.90884952  0.44335484  1
  Se  Se162  1  0.41629718  0.93189721  0.93658994  1
  Se  Se163  1  0.74879277  0.24951278  0.44273175  1
  Se  Se164  1  0.74287248  0.24867374  0.94548500  1
  Se  Se165  1  0.75035870  0.57990914  0.44677778  1
  Se  Se166  1  0.75300272  0.57891477  0.94820262  1
  Se  Se167  1  0.77633621  0.89413742  0.45258142  1
  Se  Se168  1  0.74843559  0.91940474  0.94553831  1
  Se  Se169  1  0.25244067  0.08779813  0.44533111  1
  Se  Se170  1  0.24995403  0.08210301  0.94308823  1
  Se  Se171  1  0.25992229  0.41020704  0.43285564  1
  Se  Se172  1  0.25272958  0.41892705  0.95775511  1
  Se  Se173  1  0.25826576  0.74911100  0.43028313  1
  Se  Se174  1  0.25619978  0.75364550  0.94840775  1
  Se  Se175  1  0.61619102  0.05680314  0.44056839  1
  Se  Se176  1  0.57734040  0.08536092  0.94044306  1
  Se  Se177  1  0.58043139  0.41516350  0.44114791  1
  Se  Se178  1  0.58356631  0.41417642  0.94098866  1
  Se  Se179  1  0.57841979  0.74654116  0.45125742  1
  Se  Se180  1  0.59450551  0.74324892  0.93904375  1
  Se  Se181  1  0.92380429  0.08418003  0.44884766  1
  Se  Se182  1  0.91452268  0.08113270  0.94715854  1
  Se  Se183  1  0.90572561  0.41947588  0.44538301  1
  Se  Se184  1  0.91211130  0.41541413  0.95154890  1
  Se  Se185  1  0.90992984  0.75159018  0.44695576  1
  Se  Se186  1  0.92490838  0.74426287  0.94500452  1
  Se  Se187  1  0.25575072  0.24713803  0.30216116  1
  Se  Se188  1  0.24142163  0.24633693  0.81283947  1
  Se  Se189  1  0.24904040  0.58315393  0.29459841  1
  Se  Se190  1  0.25252315  0.58096630  0.81360775  1
  Se  Se191  1  0.24332893  0.91569077  0.29858693  1
  Se  Se192  1  0.25574074  0.92707279  0.80686897  1
  Se  Se193  1  0.57159048  0.23074367  0.30012467  1
  Se  Se194  1  0.58090614  0.25118316  0.80184155  1
  Se  Se195  1  0.58297154  0.57610461  0.31474328  1
  Se  Se196  1  0.57965225  0.58395831  0.80655027  1
  Se  Se197  1  0.57603212  0.90667134  0.31416974  1
  Se  Se198  1  0.58589841  0.91391772  0.79327926  1
  Se  Se199  1  0.92999526  0.25613006  0.30649201  1
  Se  Se200  1  0.90329304  0.23851744  0.80974090  1
  Se  Se201  1  0.90987443  0.58204018  0.31187162  1
  Se  Se202  1  0.90973221  0.56229634  0.80767544  1
  Se  Se203  1  0.90580906  0.92739174  0.31455490  1
  Se  Se204  1  0.91672692  0.92138266  0.80570008  1
  Se  Se205  1  0.08386921  0.09405602  0.31481393  1
  Se  Se206  1  0.08003340  0.08497258  0.80042558  1
  Se  Se207  1  0.08117464  0.41120837  0.30104671  1
  Se  Se208  1  0.08371719  0.41486647  0.81351151  1
  Se  Se209  1  0.08431712  0.75483493  0.30915053  1
  Se  Se210  1  0.09853337  0.76255567  0.81123733  1
  Se  Se211  1  0.41583274  0.06875945  0.30804125  1
  Se  Se212  1  0.41468350  0.09215354  0.80096079  1
  Se  Se213  1  0.41804158  0.41353753  0.30386254  1
  Se  Se214  1  0.42723606  0.42641445  0.80697229  1
  Se  Se215  1  0.40609628  0.73357748  0.30217651  1
  Se  Se216  1  0.42701114  0.76973298  0.80107439  1
  Se  Se217  1  0.76179730  0.09560445  0.31092304  1
  Se  Se218  1  0.74480117  0.08121381  0.80199464  1
  Se  Se219  1  0.75218086  0.41108282  0.30050979  1
  Se  Se220  1  0.74250481  0.40502379  0.80424117  1
  Se  Se221  1  0.74227775  0.76673768  0.31366020  1
  Se  Se222  1  0.76216265  0.75312544  0.81131577  1
  Se  Se223  1  0.24983734  0.07466197  0.20077344  1
  Se  Se224  1  0.25652188  0.08642709  0.69714473  1
  Se  Se225  1  0.25369603  0.41062735  0.20156526  1
  Se  Se226  1  0.24091307  0.42480094  0.69811733  1
  Se  Se227  1  0.24945259  0.74526135  0.19277619  1
  Se  Se228  1  0.24450572  0.76336613  0.68497572  1
  Se  Se229  1  0.58260424  0.08584215  0.18488811  1
  Se  Se230  1  0.58363800  0.08061154  0.69061500  1
  Se  Se231  1  0.59082839  0.41768303  0.20515153  1
  Se  Se232  1  0.58618428  0.41240474  0.69312371  1
  Se  Se233  1  0.57403900  0.76438421  0.19579571  1
  Se  Se234  1  0.57085148  0.76187420  0.68539824  1
  Se  Se235  1  0.90013288  0.09321773  0.19398142  1
  Se  Se236  1  0.91725676  0.08327346  0.69245005  1
  Se  Se237  1  0.91634466  0.41123943  0.19407691  1
  Se  Se238  1  0.90560532  0.40660241  0.68404873  1
  Se  Se239  1  0.90631994  0.76363132  0.20156519  1
  Se  Se240  1  0.91202613  0.75277432  0.69157471  1
  Se  Se241  1  0.08537026  0.24437108  0.19760526  1
  Se  Se242  1  0.08936224  0.24026419  0.68523037  1
  Se  Se243  1  0.08405412  0.56674400  0.18342825  1
  Se  Se244  1  0.08119433  0.57725271  0.70023538  1
  Se  Se245  1  0.08481211  0.90945270  0.19002998  1
  Se  Se246  1  0.08133093  0.92391226  0.70289292  1
  Se  Se247  1  0.41097771  0.25413433  0.20502077  1
  Se  Se248  1  0.42329210  0.24556676  0.68210813  1
  Se  Se249  1  0.41803358  0.58147777  0.19917848  1
  Se  Se250  1  0.42079588  0.57854888  0.68615548  1
  Se  Se251  1  0.41818677  0.90967866  0.20165330  1
  Se  Se252  1  0.40618108  0.93621475  0.69269472  1
  Se  Se253  1  0.73424189  0.26063720  0.19515552  1
  Se  Se254  1  0.74528439  0.24772394  0.69081984  1
  Se  Se255  1  0.76087572  0.58138420  0.19275652  1
  Se  Se256  1  0.75397260  0.57307903  0.69491144  1
  Se  Se257  1  0.74687321  0.92282955  0.19287581  1
  Se  Se258  1  0.75123532  0.91472536  0.69149601  1
