# generated using pymatgen
data_In86Cu29Se144
_symmetry_space_group_name_H-M   'P 1'
_cell_length_a   17.57807003
_cell_length_b   17.57051771
_cell_length_c   23.42404405
_cell_angle_alpha   90.00927043
_cell_angle_beta   90.01442359
_cell_angle_gamma   90.01193744
_symmetry_Int_Tables_number   1
_chemical_formula_structural   In86Cu29Se144
_chemical_formula_sum   'In86 Cu29 Se144'
_cell_volume   7234.65116184
_cell_formula_units_Z   1
loop_
 _symmetry_equiv_pos_site_id
 _symmetry_equiv_pos_as_xyz
  1  'x, y, z'
loop_
 _atom_site_type_symbol
 _atom_site_label
 _atom_site_symmetry_multiplicity
 _atom_site_fract_x
 _atom_site_fract_y
 _atom_site_fract_z
 _atom_site_occupancy
  In  In0  1  -0.00178985  0.16800571  0.11809270  1
  In  In1  1  -0.00044329  0.17654646  0.61234359  1
  In  In2  1  0.00360411  0.50290075  0.12292615  1
  In  In3  1  -0.02238218  0.49093729  0.59853435  1
  In  In4  1  -0.01382195  0.82701830  0.13028971  1
  In  In5  1  -0.00979870  0.81912531  0.59820720  1
  In  In6  1  0.32616665  0.18225664  0.12648909  1
  In  In7  1  0.32038928  0.16039976  0.62448593  1
  In  In8  1  0.33875640  0.51312202  0.11596067  1
  In  In9  1  0.34854034  0.50520801  0.62180595  1
  In  In10  1  0.33554661  0.81341773  0.12982202  1
  In  In11  1  0.31241023  0.82608317  0.62293605  1
  In  In12  1  0.67430592  0.15819405  0.12805185  1
  In  In13  1  0.68238276  0.15665159  0.63324141  1
  In  In14  1  0.67004002  0.50876840  0.12160053  1
  In  In15  1  0.66896797  0.50278041  0.62724329  1
  In  In16  1  0.66301774  0.83951303  0.12502986  1
  In  In17  1  0.67824286  0.82578518  0.63672498  1
  In  In18  1  0.15133764  0.00607605  0.39940843  1
  In  In19  1  0.17664112  0.00677887  0.87333724  1
  In  In20  1  0.14765144  0.34371168  0.39282143  1
  In  In21  1  0.15944994  0.33848157  0.87294997  1
  In  In22  1  0.16608805  0.65720620  0.38060205  1
  In  In23  1  0.16382029  0.65153231  0.86995260  1
  In  In24  1  0.50688248  -0.01306646  0.36992944  1
  In  In25  1  0.50138281  -0.01431809  0.87958349  1
  In  In26  1  0.50365581  0.34582091  0.37678193  1
  In  In27  1  0.51667186  0.33545738  0.87458122  1
  In  In28  1  0.49586242  0.65462506  0.35969295  1
  In  In29  1  0.49986529  0.66705239  0.87725989  1
  In  In30  1  0.82882747  0.00104254  0.38463743  1
  In  In31  1  0.83838114  0.00969893  0.87000719  1
  In  In32  1  0.83887906  0.32791042  0.38782997  1
  In  In33  1  0.83538606  0.33855639  0.87312495  1
  In  In34  1  0.83006204  0.66637506  0.38057505  1
  In  In35  1  0.81863366  0.66451278  0.87092822  1
  In  In36  1  -0.00912785  0.16783373  0.39599912  1
  In  In37  1  -0.01441029  0.17910147  0.87880857  1
  In  In38  1  -0.01905085  0.51224080  0.40055759  1
  In  In39  1  0.01060771  0.49140080  0.87652592  1
  In  In40  1  0.00916227  0.81439739  0.39520547  1
  In  In41  1  -0.00834285  0.83966413  0.86930733  1
  In  In42  1  0.31254683  0.16697948  0.37624101  1
  In  In43  1  0.32759625  0.15720583  0.87655547  1
  In  In44  1  0.33096651  0.50799402  0.37678005  1
  In  In45  1  0.32501218  0.51012081  0.87644507  1
  In  In46  1  0.33361589  0.82197917  0.37617095  1
  In  In47  1  0.34576441  0.83873266  0.87496681  1
  In  In48  1  0.68298883  0.15687390  0.37434292  1
  In  In49  1  0.67924046  0.18316382  0.86643170  1
  In  In50  1  0.65786146  0.51162665  0.38138797  1
  In  In51  1  0.66791357  0.50147977  0.87672351  1
  In  In52  1  0.67279237  0.83597331  0.37019845  1
  In  In53  1  0.66112057  0.81662857  0.86171636  1
  In  In54  1  0.15508330  0.00679180  0.12834641  1
  In  In55  1  0.14724321  -0.01006842  0.60236667  1
  In  In56  1  0.16243729  0.33632740  0.11817461  1
  In  In57  1  0.14850197  0.33266855  0.61101257  1
  In  In58  1  0.17573206  0.65937580  0.13514178  1
  In  In59  1  0.16742280  0.66378094  0.61793570  1
  In  In60  1  0.51905415  0.00307632  0.12315737  1
  In  In61  1  0.50736073  0.00494888  0.62938700  1
  In  In62  1  0.49139083  0.34296155  0.12023096  1
  In  In63  1  0.50483985  0.35014063  0.62751053  1
  In  In64  1  0.49814378  0.66427012  0.12278471  1
  In  In65  1  0.50965022  0.65934492  0.63272345  1
  In  In66  1  0.82554561  -0.00170042  0.12519096  1
  In  In67  1  0.82557925  -0.01185977  0.60863319  1
  In  In68  1  0.83167958  0.33412567  0.12085016  1
  In  In69  1  0.83356027  0.33327004  0.62221268  1
  In  In70  1  0.83931407  0.65861227  0.13488037  1
  In  In71  1  0.82613739  0.66183451  0.61703750  1
  In  In72  1  -0.00437640  0.33316668  0.26626055  1
  In  In73  1  0.33296931  -0.01058248  0.26010468  1
  In  In74  1  0.33263812  0.34167573  0.25277399  1
  In  In75  1  0.82876804  0.83482373  -0.00199801  1
  In  In76  1  -0.00974412  -0.00854276  0.25972599  1
  In  In77  1  0.33425089  -0.00358726  0.74603263  1
  In  In78  1  0.49815058  0.16948117  0.50998559  1
  In  In79  1  0.17098904  0.83144115  0.00736057  1
  In  In80  1  -0.00443098  0.00136140  0.74036575  1
  In  In81  1  0.33495107  0.33360669  0.74484986  1
  In  In82  1  -0.00719126  0.66144866  0.73247733  1
  In  In83  1  0.50096846  0.17182529  0.00049892  1
  In  In84  1  0.66915487  0.34008227  0.24427664  1
  In  In85  1  0.50104827  0.83150426  0.49348354  1
  Cu  Cu86  1  0.83736275  0.17441835  0.74741188  1
  Cu  Cu87  1  0.66238294  0.66544879  -0.00254574  1
  Cu  Cu88  1  0.00660447  0.00975413  -0.00392447  1
  Cu  Cu89  1  0.16028709  0.82559955  0.26323775  1
  Cu  Cu90  1  0.66975036  0.00260918  -0.00170362  1
  Cu  Cu91  1  0.15744482  0.16541208  0.25424409  1
  Cu  Cu92  1  0.66796871  -0.00193958  0.50046067  1
  Cu  Cu93  1  0.66514010  0.66349948  0.50211609  1
  Cu  Cu94  1  0.83384427  0.50032375  0.25806150  1
  Cu  Cu95  1  0.32419791  0.33881371  -0.00244440  1
  Cu  Cu96  1  0.15849662  0.82433187  0.74089684  1
  Cu  Cu97  1  0.34009140  0.33358318  0.50560634  1
  Cu  Cu98  1  0.16411312  0.49499768  0.74574976  1
  Cu  Cu99  1  0.33392143  0.66600252  -0.00036612  1
  Cu  Cu100  1  0.83440596  0.49963552  0.74574268  1
  Cu  Cu101  1  0.51055414  0.16267038  0.25350789  1
  Cu  Cu102  1  0.67139818  0.33811490  0.50160452  1
  Cu  Cu103  1  0.50830010  0.16845369  0.74888122  1
  Cu  Cu104  1  0.16540041  0.50857420  0.25228168  1
  Cu  Cu105  1  0.50635466  0.82843836  0.24654117  1
  Cu  Cu106  1  0.83330779  0.82246780  0.25630999  1
  Cu  Cu107  1  0.33805039  0.66845149  0.49757395  1
  Cu  Cu108  1  0.50535403  0.50479877  0.75261806  1
  Cu  Cu109  1  -0.00134100  0.33533165  -0.00281550  1
  Cu  Cu110  1  -0.00333419  0.65864133  0.00211012  1
  Cu  Cu111  1  0.67327411  0.33929153  -0.00301470  1
  Cu  Cu112  1  0.15420955  0.16920182  0.74161693  1
  Cu  Cu113  1  0.50193624  0.82636792  0.75297997  1
  Cu  Cu114  1  0.33122033  0.00236887  0.00055335  1
  Se  Se115  1  0.08952668  0.08971813  0.05220267  1
  Se  Se116  1  0.10085786  0.10907528  0.54875494  1
  Se  Se117  1  0.08114429  0.42014560  0.05100801  1
  Se  Se118  1  0.09879535  0.44235288  0.54626671  1
  Se  Se119  1  0.07462712  0.74291541  0.06235074  1
  Se  Se120  1  0.10210795  0.75671965  0.54710609  1
  Se  Se121  1  0.41056974  0.08273545  0.06410196  1
  Se  Se122  1  0.40769653  0.06994765  0.56005680  1
  Se  Se123  1  0.41215879  0.41995033  0.04818346  1
  Se  Se124  1  0.42632076  0.42003207  0.55051820  1
  Se  Se125  1  0.41724945  0.75083211  0.05157358  1
  Se  Se126  1  0.41737843  0.74545139  0.56177210  1
  Se  Se127  1  0.75341695  0.08436443  0.05200817  1
  Se  Se128  1  0.74946597  0.08905892  0.54881715  1
  Se  Se129  1  0.75266129  0.42196241  0.05505801  1
  Se  Se130  1  0.75194554  0.42351099  0.55597770  1
  Se  Se131  1  0.74662259  0.74133033  0.06013402  1
  Se  Se132  1  0.74368819  0.75377506  0.55322183  1
  Se  Se133  1  0.24563251  0.25111419  0.05083213  1
  Se  Se134  1  0.25287260  0.25388405  0.55654689  1
  Se  Se135  1  0.24248932  0.58827453  0.05169448  1
  Se  Se136  1  0.26055887  0.58312266  0.55425424  1
  Se  Se137  1  0.25851253  0.92468028  0.06908628  1
  Se  Se138  1  0.25699276  0.92054771  0.55193232  1
  Se  Se139  1  0.59455110  0.25943001  0.06166201  1
  Se  Se140  1  0.59440767  0.25677755  0.56534879  1
  Se  Se141  1  0.57996434  0.58157986  0.05170903  1
  Se  Se142  1  0.58180232  0.58120136  0.55616375  1
  Se  Se143  1  0.58569590  0.91715411  0.04858223  1
  Se  Se144  1  0.58789907  0.91750242  0.55962127  1
  Se  Se145  1  0.91534597  0.25235419  0.05231392  1
  Se  Se146  1  0.92050842  0.26667290  0.54647824  1
  Se  Se147  1  0.91108448  0.58048363  0.05708105  1
  Se  Se148  1  0.92859692  0.61138128  0.54593499  1
  Se  Se149  1  0.92723643  0.92520728  0.05518702  1
  Se  Se150  1  0.93715423  0.93907903  0.54590629  1
  Se  Se151  1  0.09789063  0.23244642  0.45387725  1
  Se  Se152  1  0.08285914  0.25154772  0.94285938  1
  Se  Se153  1  0.10331834  0.55934695  0.45105032  1
  Se  Se154  1  0.08424007  0.58251763  0.94658977  1
  Se  Se155  1  0.06983520  0.91705519  0.46088974  1
  Se  Se156  1  0.08183270  0.92038284  0.94020570  1
  Se  Se157  1  0.41314429  0.25279790  0.43841738  1
  Se  Se158  1  0.40830799  0.25942420  0.93760505  1
  Se  Se159  1  0.42254501  0.58782743  0.44235281  1
  Se  Se160  1  0.41611372  0.58250650  0.94498576  1
  Se  Se161  1  0.40770276  0.92553870  0.43986876  1
  Se  Se162  1  0.41580737  0.91609258  0.95321439  1
  Se  Se163  1  0.74543092  0.24624821  0.44882279  1
  Se  Se164  1  0.75508033  0.25317914  0.94506424  1
  Se  Se165  1  0.75118210  0.57868168  0.45082700  1
  Se  Se166  1  0.75129493  0.58363177  0.94782057  1
  Se  Se167  1  0.74766805  0.90886737  0.44887738  1
  Se  Se168  1  0.74358300  0.92178616  0.93326205  1
  Se  Se169  1  0.26047262  0.07656886  0.45072760  1
  Se  Se170  1  0.24585824  0.08582006  0.95131861  1
  Se  Se171  1  0.26222802  0.40996945  0.44225828  1
  Se  Se172  1  0.24321663  0.42077636  0.94082512  1
  Se  Se173  1  0.24887571  0.74773384  0.44685485  1
  Se  Se174  1  0.25227649  0.74597581  0.93763867  1
  Se  Se175  1  0.58297660  0.07812962  0.44317672  1
  Se  Se176  1  0.58984431  0.08543369  0.93705235  1
  Se  Se177  1  0.58407521  0.41917142  0.45024800  1
  Se  Se178  1  0.58364122  0.42038967  0.94878030  1
  Se  Se179  1  0.58811209  0.73912974  0.43520959  1
  Se  Se180  1  0.58469676  0.75416562  0.94403361  1
  Se  Se181  1  0.91895144  0.06850774  0.45628026  1
  Se  Se182  1  0.91348646  0.08556866  0.94641605  1
  Se  Se183  1  0.92837085  0.39751735  0.45831838  1
  Se  Se184  1  0.91668390  0.42089890  0.94418908  1
  Se  Se185  1  0.91673351  0.73295408  0.45730584  1
  Se  Se186  1  0.92321331  0.74322966  0.94050412  1
  Se  Se187  1  0.23197866  0.25743795  0.30929385  1
  Se  Se188  1  0.24472303  0.23869703  0.80270452  1
  Se  Se189  1  0.25347630  0.58877496  0.30416093  1
  Se  Se190  1  0.24769881  0.57963565  0.79663527  1
  Se  Se191  1  0.23147611  0.91536699  0.32130816  1
  Se  Se192  1  0.23880352  0.90372653  0.80398057  1
  Se  Se193  1  0.58489487  0.24821070  0.31268774  1
  Se  Se194  1  0.58841588  0.25775853  0.79819130  1
  Se  Se195  1  0.59404439  0.58205611  0.29832446  1
  Se  Se196  1  0.58695416  0.58765337  0.80853166  1
  Se  Se197  1  0.58931482  0.91461278  0.29740583  1
  Se  Se198  1  0.58156823  0.91688855  0.80351511  1
  Se  Se199  1  0.90654275  0.23171958  0.31404136  1
  Se  Se200  1  0.91954380  0.25863223  0.80064088  1
  Se  Se201  1  0.91773224  0.57957451  0.31451311  1
  Se  Se202  1  0.91598213  0.57863815  0.80789659  1
  Se  Se203  1  0.91212282  0.89615584  0.32221537  1
  Se  Se204  1  0.90213670  0.90941684  0.79776517  1
  Se  Se205  1  0.08037582  0.08726186  0.31624903  1
  Se  Se206  1  0.08225541  0.08786188  0.80825767  1
  Se  Se207  1  0.08389674  0.43394481  0.31557377  1
  Se  Se208  1  0.07978296  0.41257934  0.79767107  1
  Se  Se209  1  0.07745043  0.74063933  0.31417346  1
  Se  Se210  1  0.07891448  0.74918760  0.80555846  1
  Se  Se211  1  0.42137146  0.09243819  0.31304577  1
  Se  Se212  1  0.42584715  0.08837889  0.80790906  1
  Se  Se213  1  0.42818921  0.43197384  0.30416083  1
  Se  Se214  1  0.42178447  0.42093816  0.80996957  1
  Se  Se215  1  0.41729692  0.75405510  0.30107773  1
  Se  Se216  1  0.41406474  0.74756176  0.80589527  1
  Se  Se217  1  0.75020725  0.06645770  0.30506891  1
  Se  Se218  1  0.75484648  0.08981127  0.80106040  1
  Se  Se219  1  0.75692024  0.41603921  0.31676246  1
  Se  Se220  1  0.75121743  0.42158684  0.80524015  1
  Se  Se221  1  0.74598321  0.73938056  0.30575548  1
  Se  Se222  1  0.76100061  0.75371498  0.79681597  1
  Se  Se223  1  0.24658133  0.08939438  0.19878959  1
  Se  Se224  1  0.23036448  0.07610545  0.69000920  1
  Se  Se225  1  0.24101289  0.42568908  0.18968211  1
  Se  Se226  1  0.24557118  0.41826369  0.68230490  1
  Se  Se227  1  0.24677606  0.75145327  0.20456836  1
  Se  Se228  1  0.24594107  0.73821610  0.69651865  1
  Se  Se229  1  0.59194743  0.08012226  0.19980468  1
  Se  Se230  1  0.59050589  0.08014467  0.70021843  1
  Se  Se231  1  0.57257632  0.42752285  0.18999233  1
  Se  Se232  1  0.58874839  0.42037387  0.70084062  1
  Se  Se233  1  0.58671749  0.74688878  0.18971310  1
  Se  Se234  1  0.58893354  0.74505486  0.70104471  1
  Se  Se235  1  0.91558626  0.08505368  0.19146150  1
  Se  Se236  1  0.90871545  0.09294987  0.68101287  1
  Se  Se237  1  0.91203130  0.41872369  0.19672772  1
  Se  Se238  1  0.91844617  0.42450594  0.68658403  1
  Se  Se239  1  0.92100457  0.74202335  0.20478799  1
  Se  Se240  1  0.90743620  0.76320709  0.68219171  1
  Se  Se241  1  0.08252888  0.24950106  0.19392082  1
  Se  Se242  1  0.07561572  0.25582219  0.68931776  1
  Se  Se243  1  0.07691086  0.58547515  0.19719782  1
  Se  Se244  1  0.08232132  0.56633777  0.67967148  1
  Se  Se245  1  0.08799858  0.90586117  0.19703024  1
  Se  Se246  1  0.07940356  0.90367589  0.68164747  1
  Se  Se247  1  0.42841366  0.24446503  0.19625970  1
  Se  Se248  1  0.42499324  0.23953505  0.68567512  1
  Se  Se249  1  0.40477304  0.59382586  0.19166995  1
  Se  Se250  1  0.41709527  0.58440036  0.70054842  1
  Se  Se251  1  0.42485610  0.91484501  0.18889060  1
  Se  Se252  1  0.42283461  0.90233257  0.68762833  1
  Se  Se253  1  0.76282762  0.24227333  0.19633773  1
  Se  Se254  1  0.75045616  0.25788547  0.69609592  1
  Se  Se255  1  0.75016368  0.57783484  0.20017499  1
  Se  Se256  1  0.75246342  0.58761376  0.69547895  1
  Se  Se257  1  0.75868778  0.90631603  0.19510532  1
  Se  Se258  1  0.74346745  0.93589593  0.69064560  1
