# generated using pymatgen
data_In86Cu29Se144
_symmetry_space_group_name_H-M   'P 1'
_cell_length_a   17.59375453
_cell_length_b   17.58651175
_cell_length_c   23.45615683
_cell_angle_alpha   90.02214830
_cell_angle_beta   90.01481907
_cell_angle_gamma   89.99400968
_symmetry_Int_Tables_number   1
_chemical_formula_structural   In86Cu29Se144
_chemical_formula_sum   'In86 Cu29 Se144'
_cell_volume   7257.63365245
_cell_formula_units_Z   1
loop_
 _symmetry_equiv_pos_site_id
 _symmetry_equiv_pos_as_xyz
  1  'x, y, z'
loop_
 _atom_site_type_symbol
 _atom_site_label
 _atom_site_symmetry_multiplicity
 _atom_site_fract_x
 _atom_site_fract_y
 _atom_site_fract_z
 _atom_site_occupancy
  In  In0  1  -0.00068274  0.16480910  0.12538842  1
  In  In1  1  -0.00361576  0.15705727  0.62281192  1
  In  In2  1  -0.00908338  0.49665674  0.12497891  1
  In  In3  1  0.01474426  0.49760998  0.62544348  1
  In  In4  1  0.00267493  0.85204081  0.12528045  1
  In  In5  1  0.01651832  0.82905460  0.63955544  1
  In  In6  1  0.35671807  0.20577952  0.08717335  1
  In  In7  1  0.33535995  0.17064632  0.62171825  1
  In  In8  1  0.33078802  0.48029962  0.11856653  1
  In  In9  1  0.33139587  0.49455946  0.62724870  1
  In  In10  1  0.33265234  0.83512441  0.12177143  1
  In  In11  1  0.32852180  0.84894456  0.63298769  1
  In  In12  1  0.66864827  0.16510573  0.12893753  1
  In  In13  1  0.67789514  0.18144842  0.60969003  1
  In  In14  1  0.64901599  0.49028822  0.12148104  1
  In  In15  1  0.65843879  0.49566636  0.63013238  1
  In  In16  1  0.68010102  0.83453520  0.11392762  1
  In  In17  1  0.65632153  0.83201732  0.62883761  1
  In  In18  1  0.15489158  0.00998769  0.38446042  1
  In  In19  1  0.17620978  0.00732265  0.85581343  1
  In  In20  1  0.16964237  0.33115632  0.37713423  1
  In  In21  1  0.17132630  0.31627262  0.87592752  1
  In  In22  1  0.17716197  0.66094940  0.39057535  1
  In  In23  1  0.16333217  0.67769837  0.86965694  1
  In  In24  1  0.51858934  0.01509572  0.36387515  1
  In  In25  1  0.49763733  0.01852934  0.87615766  1
  In  In26  1  0.50113548  0.33025415  0.38092454  1
  In  In27  1  0.49809520  0.32410063  0.87472821  1
  In  In28  1  0.48704050  0.65983969  0.37653460  1
  In  In29  1  0.49487592  0.62598042  0.87229904  1
  In  In30  1  0.84772673  0.01330827  0.36812542  1
  In  In31  1  0.83505911  -0.00804252  0.88392276  1
  In  In32  1  0.81643351  0.31004746  0.36464436  1
  In  In33  1  0.82184379  0.33601212  0.87700555  1
  In  In34  1  0.82363714  0.66619303  0.37531306  1
  In  In35  1  0.83686158  0.67357558  0.86758026  1
  In  In36  1  0.00177950  0.16654871  0.37492551  1
  In  In37  1  0.00215179  0.15784498  0.87670226  1
  In  In38  1  0.01587168  0.49279641  0.38247290  1
  In  In39  1  -0.01280400  0.50507707  0.86888906  1
  In  In40  1  -0.00099733  0.84942141  0.37562502  1
  In  In41  1  -0.00277926  0.83135405  0.86258768  1
  In  In42  1  0.32733420  0.17386233  0.37955044  1
  In  In43  1  0.33567529  0.16970441  0.86957772  1
  In  In44  1  0.35051583  0.48389182  0.39036478  1
  In  In45  1  0.35411015  0.48969670  0.88268216  1
  In  In46  1  0.33329499  0.82251632  0.38275868  1
  In  In47  1  0.31812397  0.83285879  0.86891481  1
  In  In48  1  0.67363709  0.17284314  0.38035008  1
  In  In49  1  0.66112309  0.17345346  0.88254006  1
  In  In50  1  0.66366130  0.46776605  0.38175546  1
  In  In51  1  0.63334662  0.46670872  0.84223458  1
  In  In52  1  0.65241802  0.83981714  0.37454473  1
  In  In53  1  0.67960649  0.83598527  0.87621080  1
  In  In54  1  0.15148311  0.00588330  0.13274900  1
  In  In55  1  0.16660249  0.00117264  0.62385663  1
  In  In56  1  0.18352146  0.31455043  0.13780042  1
  In  In57  1  0.17740455  0.34629019  0.61612149  1
  In  In58  1  0.16593734  0.66311545  0.12603470  1
  In  In59  1  0.15947168  0.65956130  0.62538553  1
  In  In60  1  0.49060614  0.03544700  0.13028991  1
  In  In61  1  0.48676403  0.00273071  0.62681447  1
  In  In62  1  0.50226419  0.33129022  0.12922030  1
  In  In63  1  0.50250820  0.33195403  0.62710495  1
  In  In64  1  0.50522091  0.65734346  0.11377090  1
  In  In65  1  0.51373939  0.66055507  0.63540077  1
  In  In66  1  0.83523996  0.00328981  0.12291487  1
  In  In67  1  0.84293750  0.02444538  0.62904175  1
  In  In68  1  0.84470780  0.31986874  0.13247777  1
  In  In69  1  0.82326699  0.31626087  0.62708688  1
  In  In70  1  0.81734551  0.66966117  0.11625163  1
  In  In71  1  0.82966187  0.67451694  0.63126815  1
  In  In72  1  0.33133949  0.66371528  0.75395239  1
  In  In73  1  0.82565945  0.50238103  -0.00528526  1
  In  In74  1  0.17194084  0.49598333  -0.00512592  1
  In  In75  1  0.33282354  0.66137796  0.24993973  1
  In  In76  1  0.49092113  0.83711023  0.50437392  1
  In  In77  1  0.32647264  0.01166186  0.25656190  1
  In  In78  1  0.16132109  0.83887367  -0.01076014  1
  In  In79  1  -0.00181701  0.33119534  0.74877005  1
  In  In80  1  0.83967437  0.83958345  0.50113733  1
  In  In81  1  0.83754941  0.48570227  0.50886073  1
  In  In82  1  0.66601587  0.00487362  0.75207135  1
  In  In83  1  -0.00232633  0.66432473  0.25002346  1
  In  In84  1  0.50607404  0.83650646  -0.00329851  1
  In  In85  1  0.66416504  0.66182588  0.24479337  1
  Cu  Cu86  1  0.83726023  0.48941176  0.25042915  1
  Cu  Cu87  1  0.17257375  0.17075602  0.74457839  1
  Cu  Cu88  1  0.50591711  0.84557150  0.24320868  1
  Cu  Cu89  1  0.83345231  0.84198435  0.24352028  1
  Cu  Cu90  1  -0.00334092  0.00243672  0.00055088  1
  Cu  Cu91  1  0.15946361  0.83636337  0.25901681  1
  Cu  Cu92  1  0.00152269  0.32634706  0.49942247  1
  Cu  Cu93  1  0.49784776  0.49135679  0.25371873  1
  Cu  Cu94  1  0.32884399  0.66836488  0.51167860  1
  Cu  Cu95  1  0.00773259  0.32902899  0.00425627  1
  Cu  Cu96  1  0.32233170  0.00406817  -0.00804212  1
  Cu  Cu97  1  0.66242690  0.65484580  0.50302456  1
  Cu  Cu98  1  0.17300999  0.48702499  0.25679213  1
  Cu  Cu99  1  0.00622392  0.66862006  0.50470301  1
  Cu  Cu100  1  0.00547476  0.00127067  0.50335561  1
  Cu  Cu101  1  0.83299373  0.16079882  0.24870944  1
  Cu  Cu102  1  0.67155899  0.66319145  -0.01428858  1
  Cu  Cu103  1  0.33216907  0.00136077  0.49848763  1
  Cu  Cu104  1  0.83762308  0.84112682  0.74965518  1
  Cu  Cu105  1  0.82950344  0.50534370  0.74660702  1
  Cu  Cu106  1  0.16691992  0.49959603  0.75072705  1
  Cu  Cu107  1  0.33416521  0.33327103  0.50242152  1
  Cu  Cu108  1  0.66571657  0.00573634  0.00452632  1
  Cu  Cu109  1  0.67198731  0.00798364  0.49591235  1
  Cu  Cu110  1  0.49808866  0.82979336  0.75272986  1
  Cu  Cu111  1  0.49728469  0.16878640  0.74834134  1
  Cu  Cu112  1  0.66472322  0.33250443  -0.00020865  1
  Cu  Cu113  1  -0.00384512  0.67968053  -0.00906089  1
  Cu  Cu114  1  0.16232024  0.16567365  0.25264441  1
  Se  Se115  1  0.08290263  0.08237737  0.05410583  1
  Se  Se116  1  0.08871931  0.08771829  0.55289599  1
  Se  Se117  1  0.08344765  0.41421954  0.06200893  1
  Se  Se118  1  0.08196775  0.41760563  0.54834977  1
  Se  Se119  1  0.07702922  0.74736959  0.05876216  1
  Se  Se120  1  0.08540529  0.75418750  0.55862581  1
  Se  Se121  1  0.41333560  0.08168761  0.04342205  1
  Se  Se122  1  0.41602118  0.08323296  0.55161494  1
  Se  Se123  1  0.43661164  0.42559009  0.05754662  1
  Se  Se124  1  0.41605514  0.41566218  0.55808520  1
  Se  Se125  1  0.40985963  0.74580238  0.05418631  1
  Se  Se126  1  0.41284877  0.74552482  0.57188496  1
  Se  Se127  1  0.75188061  0.08762265  0.05585592  1
  Se  Se128  1  0.75928780  0.08494391  0.55001218  1
  Se  Se129  1  0.74971886  0.40895666  0.06151687  1
  Se  Se130  1  0.73505750  0.40235292  0.55873551  1
  Se  Se131  1  0.75066534  0.75005441  0.03927686  1
  Se  Se132  1  0.73949488  0.74720667  0.55419274  1
  Se  Se133  1  0.23111772  0.25204468  0.04568482  1
  Se  Se134  1  0.24793359  0.24881868  0.55169124  1
  Se  Se135  1  0.25722038  0.58956484  0.05879305  1
  Se  Se136  1  0.24713850  0.57864646  0.55974461  1
  Se  Se137  1  0.24891962  0.92506294  0.05710138  1
  Se  Se138  1  0.25227481  0.91722114  0.55402734  1
  Se  Se139  1  0.58774369  0.25058425  0.05930203  1
  Se  Se140  1  0.56406717  0.23513555  0.55586155  1
  Se  Se141  1  0.59291470  0.58262174  0.04535706  1
  Se  Se142  1  0.57731310  0.57800576  0.55747094  1
  Se  Se143  1  0.58036090  0.92844225  0.06506635  1
  Se  Se144  1  0.59136588  0.92859412  0.55672256  1
  Se  Se145  1  0.91893735  0.24844599  0.05376455  1
  Se  Se146  1  0.91819215  0.25002445  0.55789993  1
  Se  Se147  1  0.92262391  0.59428575  0.05332078  1
  Se  Se148  1  0.92052439  0.59174468  0.56217470  1
  Se  Se149  1  0.91505677  0.91535791  0.05175252  1
  Se  Se150  1  0.92556508  0.92372268  0.56636046  1
  Se  Se151  1  0.08614052  0.24613599  0.44490335  1
  Se  Se152  1  0.08255712  0.24503780  0.94540555  1
  Se  Se153  1  0.08664442  0.57997186  0.45381448  1
  Se  Se154  1  0.07504840  0.58960756  0.93966245  1
  Se  Se155  1  0.08505714  0.91196000  0.45139099  1
  Se  Se156  1  0.07469370  0.93045660  0.93167813  1
  Se  Se157  1  0.41536729  0.24853893  0.44899241  1
  Se  Se158  1  0.42271663  0.23681280  0.94434422  1
  Se  Se159  1  0.41219894  0.58968826  0.45438187  1
  Se  Se160  1  0.41194388  0.58379187  0.95549934  1
  Se  Se161  1  0.41713723  0.92882099  0.43419753  1
  Se  Se162  1  0.40597714  0.92015413  0.93683383  1
  Se  Se163  1  0.75482271  0.25233796  0.45253069  1
  Se  Se164  1  0.75257996  0.25074411  0.95032410  1
  Se  Se165  1  0.74624043  0.57824291  0.44459635  1
  Se  Se166  1  0.74389117  0.58013100  0.92387725  1
  Se  Se167  1  0.74780563  0.92204294  0.43656315  1
  Se  Se168  1  0.74547530  0.91716433  0.95375888  1
  Se  Se169  1  0.24775568  0.08667689  0.44769294  1
  Se  Se170  1  0.24445005  0.08550545  0.93459241  1
  Se  Se171  1  0.24670058  0.41609182  0.44978353  1
  Se  Se172  1  0.26218467  0.39873398  0.94430909  1
  Se  Se173  1  0.24958680  0.75476113  0.45767251  1
  Se  Se174  1  0.25713491  0.73913779  0.94583491  1
  Se  Se175  1  0.58273321  0.08784044  0.44602858  1
  Se  Se176  1  0.58108301  0.08620029  0.95097772  1
  Se  Se177  1  0.55837240  0.43396574  0.45037463  1
  Se  Se178  1  0.58711712  0.41310333  0.93888159  1
  Se  Se179  1  0.58402074  0.74161813  0.44500290  1
  Se  Se180  1  0.58331295  0.74285141  0.93143157  1
  Se  Se181  1  0.92207539  0.08202121  0.44746723  1
  Se  Se182  1  0.91283525  0.08602529  0.94794911  1
  Se  Se183  1  0.91888415  0.40417863  0.43791860  1
  Se  Se184  1  0.92638346  0.40985076  0.94434695  1
  Se  Se185  1  0.92492576  0.74129514  0.44022688  1
  Se  Se186  1  0.91350174  0.76044815  0.93855937  1
  Se  Se187  1  0.24770585  0.24849174  0.30457293  1
  Se  Se188  1  0.25468648  0.25389613  0.79825854  1
  Se  Se189  1  0.25048371  0.57272135  0.31579660  1
  Se  Se190  1  0.24674251  0.57072957  0.81742829  1
  Se  Se191  1  0.24637717  0.91098418  0.31700369  1
  Se  Se192  1  0.24194588  0.90486010  0.79434361  1
  Se  Se193  1  0.59973373  0.26620917  0.31433548  1
  Se  Se194  1  0.58449970  0.24522282  0.80406810  1
  Se  Se195  1  0.57906154  0.57615804  0.31209768  1
  Se  Se196  1  0.59975661  0.59813288  0.80062037  1
  Se  Se197  1  0.59233412  0.92338308  0.29603183  1
  Se  Se198  1  0.57586394  0.91401109  0.81458583  1
  Se  Se199  1  0.91833893  0.24456720  0.30221592  1
  Se  Se200  1  0.91062114  0.24777473  0.81315124  1
  Se  Se201  1  0.91007848  0.57317546  0.31344689  1
  Se  Se202  1  0.91610245  0.58809093  0.79649181  1
  Se  Se203  1  0.91871520  0.91858948  0.29966230  1
  Se  Se204  1  0.91537596  0.92744043  0.80380447  1
  Se  Se205  1  0.08106688  0.07929793  0.30435809  1
  Se  Se206  1  0.08360104  0.09287364  0.79724156  1
  Se  Se207  1  0.08169115  0.41006877  0.30628563  1
  Se  Se208  1  0.08859550  0.41984048  0.81366654  1
  Se  Se209  1  0.08866643  0.74493473  0.31676006  1
  Se  Se210  1  0.08373525  0.74995017  0.79744413  1
  Se  Se211  1  0.42405354  0.10220007  0.30646227  1
  Se  Se212  1  0.41416365  0.08163827  0.79910634  1
  Se  Se213  1  0.41482496  0.41092881  0.30840206  1
  Se  Se214  1  0.43192676  0.42266505  0.80602137  1
  Se  Se215  1  0.42678434  0.76195454  0.30287148  1
  Se  Se216  1  0.42486236  0.74897250  0.81662877  1
  Se  Se217  1  0.74833934  0.08407568  0.30680278  1
  Se  Se218  1  0.75296605  0.08659050  0.81744251  1
  Se  Se219  1  0.74756040  0.41224743  0.30180219  1
  Se  Se220  1  0.75520117  0.41088933  0.79632600  1
  Se  Se221  1  0.75294408  0.76074059  0.30399779  1
  Se  Se222  1  0.75166936  0.75759030  0.79989051  1
  Se  Se223  1  0.24529246  0.09514498  0.18803528  1
  Se  Se224  1  0.25409064  0.08461569  0.69075427  1
  Se  Se225  1  0.25900540  0.41181747  0.20003813  1
  Se  Se226  1  0.24896556  0.41511440  0.69863010  1
  Se  Se227  1  0.23855224  0.76117867  0.19572614  1
  Se  Se228  1  0.24377518  0.75199502  0.69234812  1
  Se  Se229  1  0.58994004  0.08153425  0.20034175  1
  Se  Se230  1  0.57901825  0.08945558  0.68773573  1
  Se  Se231  1  0.58651427  0.41257398  0.20159693  1
  Se  Se232  1  0.58200714  0.41193431  0.70041938  1
  Se  Se233  1  0.57721464  0.75629951  0.18364592  1
  Se  Se234  1  0.58775166  0.75029827  0.70438121  1
  Se  Se235  1  0.91870678  0.07988747  0.19506362  1
  Se  Se236  1  0.91674627  0.09826588  0.70477616  1
  Se  Se237  1  0.92446184  0.41086820  0.19829551  1
  Se  Se238  1  0.90900627  0.42252962  0.68561706  1
  Se  Se239  1  0.90845613  0.75217419  0.18593484  1
  Se  Se240  1  0.91710360  0.75206074  0.69808980  1
  Se  Se241  1  0.07906798  0.24896803  0.19767228  1
  Se  Se242  1  0.09174288  0.25239626  0.68467531  1
  Se  Se243  1  0.09444927  0.56877915  0.19661206  1
  Se  Se244  1  0.08112487  0.58245500  0.70101809  1
  Se  Se245  1  0.07849184  0.91958006  0.20482314  1
  Se  Se246  1  0.07299484  0.93956887  0.69687612  1
  Se  Se247  1  0.40735294  0.24450215  0.18488183  1
  Se  Se248  1  0.41313706  0.25158344  0.69517579  1
  Se  Se249  1  0.42515980  0.57545456  0.18972950  1
  Se  Se250  1  0.42316153  0.57418484  0.69755608  1
  Se  Se251  1  0.41603193  0.92070599  0.18979982  1
  Se  Se252  1  0.41879707  0.91864271  0.70275426  1
  Se  Se253  1  0.75103262  0.24927864  0.19876982  1
  Se  Se254  1  0.74407908  0.23870346  0.69786021  1
  Se  Se255  1  0.75768416  0.56912239  0.18772356  1
  Se  Se256  1  0.74527064  0.58545713  0.69211789  1
  Se  Se257  1  0.74702214  0.91818281  0.18929225  1
  Se  Se258  1  0.75568697  0.91631646  0.68650887  1
