# generated using pymatgen
data_In86Cu29Se144
_symmetry_space_group_name_H-M   'P 1'
_cell_length_a   17.58127739
_cell_length_b   17.58912470
_cell_length_c   23.44931339
_cell_angle_alpha   90.00195412
_cell_angle_beta   90.00373722
_cell_angle_gamma   89.98252616
_symmetry_Int_Tables_number   1
_chemical_formula_structural   In86Cu29Se144
_chemical_formula_sum   'In86 Cu29 Se144'
_cell_volume   7251.44844187
_cell_formula_units_Z   1
loop_
 _symmetry_equiv_pos_site_id
 _symmetry_equiv_pos_as_xyz
  1  'x, y, z'
loop_
 _atom_site_type_symbol
 _atom_site_label
 _atom_site_symmetry_multiplicity
 _atom_site_fract_x
 _atom_site_fract_y
 _atom_site_fract_z
 _atom_site_occupancy
  In  In0  1  -0.01826999  0.16364860  0.12422675  1
  In  In1  1  -0.00913529  0.17756296  0.62241622  1
  In  In2  1  0.00885433  0.51013819  0.11604926  1
  In  In3  1  -0.01684904  0.50905887  0.62503857  1
  In  In4  1  0.00628911  0.82338696  0.13042120  1
  In  In5  1  0.00752116  0.82106315  0.62101373  1
  In  In6  1  0.33659365  0.15063372  0.12654401  1
  In  In7  1  0.33319851  0.15119294  0.62455083  1
  In  In8  1  0.34720690  0.51760967  0.11958989  1
  In  In9  1  0.34819414  0.50295294  0.63147961  1
  In  In10  1  0.33548287  0.83367202  0.12081623  1
  In  In11  1  0.33165922  0.83630952  0.62833258  1
  In  In12  1  0.66817553  0.16529372  0.12150808  1
  In  In13  1  0.66122081  0.16353438  0.62202298  1
  In  In14  1  0.65580057  0.48710324  0.11960299  1
  In  In15  1  0.67459212  0.49612756  0.63854263  1
  In  In16  1  0.66442469  0.85221337  0.11953940  1
  In  In17  1  0.66270408  0.83780475  0.63784244  1
  In  In18  1  0.16126656  -0.01229546  0.36823671  1
  In  In19  1  0.16492655  -0.02568318  0.88405184  1
  In  In20  1  0.17066597  0.34162981  0.37449610  1
  In  In21  1  0.18005554  0.33763494  0.87916239  1
  In  In22  1  0.17777510  0.67542789  0.36598007  1
  In  In23  1  0.17150388  0.66665915  0.88038557  1
  In  In24  1  0.51191995  0.00679244  0.36212551  1
  In  In25  1  0.50404657  0.00204475  0.87494800  1
  In  In26  1  0.50016643  0.31505971  0.37878963  1
  In  In27  1  0.51734329  0.32080996  0.88166117  1
  In  In28  1  0.49993168  0.67212015  0.36945732  1
  In  In29  1  0.49723544  0.66936978  0.87969174  1
  In  In30  1  0.83881979  0.00957430  0.37031720  1
  In  In31  1  0.82553391  0.01900869  0.88752230  1
  In  In32  1  0.81704789  0.34192663  0.38749383  1
  In  In33  1  0.81318622  0.34672950  0.88169408  1
  In  In34  1  0.83424068  0.64765885  0.37113316  1
  In  In35  1  0.81955566  0.65847670  0.87123833  1
  In  In36  1  -0.00380966  0.15524760  0.37276880  1
  In  In37  1  -0.01859324  0.16020019  0.88309698  1
  In  In38  1  -0.01344314  0.49110791  0.36891562  1
  In  In39  1  -0.00706361  0.50690369  0.88209600  1
  In  In40  1  0.00889269  0.84219941  0.36782951  1
  In  In41  1  0.01239637  0.84391489  0.88736452  1
  In  In42  1  0.35415258  0.16397765  0.37413445  1
  In  In43  1  0.35718286  0.16332322  0.87794029  1
  In  In44  1  0.32827709  0.49946547  0.37111347  1
  In  In45  1  0.32677710  0.51045423  0.88240026  1
  In  In46  1  0.33040150  0.82391246  0.36694533  1
  In  In47  1  0.33559774  0.83484421  0.87721007  1
  In  In48  1  0.66614319  0.16701584  0.37522174  1
  In  In49  1  0.66392974  0.16752384  0.87264485  1
  In  In50  1  0.68202941  0.50213338  0.37570094  1
  In  In51  1  0.66624025  0.49706721  0.87657671  1
  In  In52  1  0.65435646  0.83388565  0.37126517  1
  In  In53  1  0.65770422  0.82616937  0.87399847  1
  In  In54  1  0.17709141  -0.01336666  0.12990967  1
  In  In55  1  0.18258025  -0.00339901  0.62496272  1
  In  In56  1  0.15798569  0.33985204  0.12274116  1
  In  In57  1  0.16225782  0.33060145  0.62539168  1
  In  In58  1  0.17013006  0.67185092  0.12228540  1
  In  In59  1  0.16315137  0.67818021  0.62401635  1
  In  In60  1  0.50273243  -0.00091248  0.11719327  1
  In  In61  1  0.49562706  0.00532150  0.62977383  1
  In  In62  1  0.51698401  0.34728169  0.12228576  1
  In  In63  1  0.51983018  0.33651275  0.62059110  1
  In  In64  1  0.48969388  0.65737297  0.11883681  1
  In  In65  1  0.50104458  0.66075795  0.63875492  1
  In  In66  1  0.82140617  0.00921943  0.13169914  1
  In  In67  1  0.81574778  0.00053176  0.62751038  1
  In  In68  1  0.81978937  0.32035475  0.11700122  1
  In  In69  1  0.80844296  0.32550288  0.60889809  1
  In  In70  1  0.84704943  0.67108300  0.12442978  1
  In  In71  1  0.82104898  0.65682913  0.61996078  1
  In  In72  1  -0.00483735  0.33526661  0.74599273  1
  In  In73  1  -0.00788619  0.32908428  0.24384983  1
  In  In74  1  0.16695475  0.50284914  0.49052213  1
  In  In75  1  0.16665338  0.16594461  0.49765771  1
  In  In76  1  0.34590371  0.33463555  0.75012664  1
  In  In77  1  0.50922176  0.49598545  0.50389481  1
  In  In78  1  0.16915037  0.16991040  0.00412889  1
  In  In79  1  0.83524419  0.83684935  0.50173917  1
  In  In80  1  0.66707220  0.66751941  0.24845431  1
  In  In81  1  0.49908016  0.83229457  0.49490301  1
  In  In82  1  0.33691987  0.33201853  0.25188900  1
  In  In83  1  0.83238821  0.83408698  -0.00071419  1
  In  In84  1  -0.00084833  -0.00139529  0.76117930  1
  In  In85  1  -0.00998009  0.66643166  0.75499666  1
  Cu  Cu86  1  0.50188452  0.50475176  0.75876593  1
  Cu  Cu87  1  0.83657676  0.83734071  0.24635024  1
  Cu  Cu88  1  0.66418945  0.66253913  -0.00374704  1
  Cu  Cu89  1  0.33852471  0.34327719  0.00114644  1
  Cu  Cu90  1  0.50781618  0.16171628  0.75095625  1
  Cu  Cu91  1  0.00396953  0.66739129  0.00225120  1
  Cu  Cu92  1  0.82577751  0.16988203  0.74999891  1
  Cu  Cu93  1  0.16997460  0.83120533  0.24568622  1
  Cu  Cu94  1  0.82325673  0.16688803  0.25043033  1
  Cu  Cu95  1  0.33299749  -0.00679026  0.49975123  1
  Cu  Cu96  1  0.83000551  0.83628747  0.75549650  1
  Cu  Cu97  1  0.00075788  0.66965102  0.49631210  1
  Cu  Cu98  1  -0.00815036  0.33817288  0.50023455  1
  Cu  Cu99  1  0.17551408  0.83319957  0.75044434  1
  Cu  Cu100  1  0.16771156  0.15492161  0.25055093  1
  Cu  Cu101  1  0.49505178  0.83474078  0.75615095  1
  Cu  Cu102  1  0.33098065  0.67279863  -0.00025822  1
  Cu  Cu103  1  0.16913738  0.51051287  0.24222656  1
  Cu  Cu104  1  0.66331545  0.00621255  0.49753444  1
  Cu  Cu105  1  0.83374424  0.49636616  0.24652112  1
  Cu  Cu106  1  0.33110090  0.66852762  0.49793542  1
  Cu  Cu107  1  0.16863951  0.50508317  0.75722617  1
  Cu  Cu108  1  0.66961042  0.32954261  -0.00146845  1
  Cu  Cu109  1  0.50596272  0.16257562  0.24567198  1
  Cu  Cu110  1  0.17402128  0.15414866  0.75599094  1
  Cu  Cu111  1  0.33781885  -0.00062205  -0.00069709  1
  Cu  Cu112  1  0.00308418  -0.00184076  0.49475108  1
  Cu  Cu113  1  0.49582959  0.83514823  0.24323630  1
  Cu  Cu114  1  -0.00377384  0.33704197  0.00228132  1
  Se  Se115  1  0.08578233  0.08235537  0.06827433  1
  Se  Se116  1  0.07798007  0.07750583  0.56257727  1
  Se  Se117  1  0.08581707  0.41998645  0.04816227  1
  Se  Se118  1  0.07553418  0.41740063  0.55837604  1
  Se  Se119  1  0.08574413  0.75398676  0.05238355  1
  Se  Se120  1  0.08868444  0.75097734  0.54534730  1
  Se  Se121  1  0.41894787  0.08700428  0.04927388  1
  Se  Se122  1  0.41647545  0.07679774  0.55183714  1
  Se  Se123  1  0.42325535  0.42256002  0.05620444  1
  Se  Se124  1  0.41050661  0.40825727  0.56014456  1
  Se  Se125  1  0.41957899  0.75214952  0.05164682  1
  Se  Se126  1  0.41561163  0.74137877  0.56025818  1
  Se  Se127  1  0.75900767  0.09018159  0.05372392  1
  Se  Se128  1  0.75084373  0.08367080  0.55201248  1
  Se  Se129  1  0.75067862  0.41768795  0.05108454  1
  Se  Se130  1  0.74277954  0.43277992  0.55332231  1
  Se  Se131  1  0.74197546  0.74232757  0.06022966  1
  Se  Se132  1  0.73767225  0.75498513  0.55949848  1
  Se  Se133  1  0.26209438  0.26016763  0.06372457  1
  Se  Se134  1  0.25571078  0.25400396  0.56033157  1
  Se  Se135  1  0.24994847  0.58554669  0.05318015  1
  Se  Se136  1  0.25595872  0.58508003  0.56010461  1
  Se  Se137  1  0.25200092  0.91644451  0.05029309  1
  Se  Se138  1  0.25003745  0.90943145  0.55177685  1
  Se  Se139  1  0.58370786  0.25134969  0.05445849  1
  Se  Se140  1  0.58663676  0.24851643  0.55017645  1
  Se  Se141  1  0.58223218  0.58055813  0.05304895  1
  Se  Se142  1  0.58879879  0.59059844  0.56535657  1
  Se  Se143  1  0.58191334  0.91840983  0.04497227  1
  Se  Se144  1  0.58742571  0.92090700  0.55764029  1
  Se  Se145  1  0.91424811  0.24800473  0.04974739  1
  Se  Se146  1  0.91040916  0.24980398  0.54943160  1
  Se  Se147  1  0.91468592  0.58497579  0.04994554  1
  Se  Se148  1  0.91475194  0.59046909  0.54920870  1
  Se  Se149  1  0.91374068  0.91487915  0.07007235  1
  Se  Se150  1  0.92545321  0.92633689  0.56467146  1
  Se  Se151  1  0.07408351  0.26114997  0.43915806  1
  Se  Se152  1  0.07698579  0.25732480  0.93966993  1
  Se  Se153  1  0.07511244  0.58972890  0.43099732  1
  Se  Se154  1  0.08525427  0.58344155  0.94604342  1
  Se  Se155  1  0.08680517  0.91317173  0.44652673  1
  Se  Se156  1  0.07579790  0.92737156  0.96310543  1
  Se  Se157  1  0.41168774  0.24834016  0.45102736  1
  Se  Se158  1  0.41876296  0.25538160  0.94997516  1
  Se  Se159  1  0.41360075  0.58704851  0.44177861  1
  Se  Se160  1  0.41601531  0.58579905  0.95015136  1
  Se  Se161  1  0.41345373  0.92227492  0.43275192  1
  Se  Se162  1  0.42077946  0.91755955  0.94389586  1
  Se  Se163  1  0.75785275  0.23498242  0.44577762  1
  Se  Se164  1  0.75148915  0.24312380  0.94543024  1
  Se  Se165  1  0.74849808  0.59092732  0.44776918  1
  Se  Se166  1  0.75126339  0.57874518  0.94808163  1
  Se  Se167  1  0.74193779  0.92202690  0.43871010  1
  Se  Se168  1  0.73738939  0.92168680  0.94315393  1
  Se  Se169  1  0.25454426  0.07523533  0.43711954  1
  Se  Se170  1  0.25543797  0.08140761  0.93920948  1
  Se  Se171  1  0.26538019  0.40453350  0.44750390  1
  Se  Se172  1  0.24863804  0.42268541  0.95197448  1
  Se  Se173  1  0.25018890  0.75214115  0.44421244  1
  Se  Se174  1  0.24705031  0.75709220  0.94699607  1
  Se  Se175  1  0.57690971  0.08379735  0.44247449  1
  Se  Se176  1  0.56398576  0.10567086  0.93951207  1
  Se  Se177  1  0.59216363  0.40931528  0.43799460  1
  Se  Se178  1  0.58457826  0.41702509  0.94911682  1
  Se  Se179  1  0.59385989  0.73624219  0.44440465  1
  Se  Se180  1  0.58063593  0.75122677  0.95005064  1
  Se  Se181  1  0.91636152  0.08265837  0.44849932  1
  Se  Se182  1  0.92981995  0.06593219  0.95594062  1
  Se  Se183  1  0.91102611  0.42474611  0.44832330  1
  Se  Se184  1  0.91278616  0.41710757  0.94580251  1
  Se  Se185  1  0.92015026  0.74979435  0.43536818  1
  Se  Se186  1  0.92113085  0.74040183  0.93706614  1
  Se  Se187  1  0.24287861  0.23955944  0.31093669  1
  Se  Se188  1  0.25251670  0.24286724  0.80956911  1
  Se  Se189  1  0.25569773  0.58483055  0.29986880  1
  Se  Se190  1  0.25189165  0.58968766  0.80643133  1
  Se  Se191  1  0.25305689  0.91470100  0.30068960  1
  Se  Se192  1  0.25201344  0.91900401  0.80612840  1
  Se  Se193  1  0.58296618  0.24700548  0.30302077  1
  Se  Se194  1  0.58769766  0.25290678  0.79919679  1
  Se  Se195  1  0.58105800  0.57515023  0.30864026  1
  Se  Se196  1  0.58444605  0.58837154  0.81180323  1
  Se  Se197  1  0.58553022  0.91391630  0.29500063  1
  Se  Se198  1  0.58385154  0.91679453  0.80513193  1
  Se  Se199  1  0.90613941  0.24719138  0.31123482  1
  Se  Se200  1  0.90800448  0.24753156  0.80994213  1
  Se  Se201  1  0.92024650  0.58034386  0.29586408  1
  Se  Se202  1  0.90162869  0.56515706  0.80285409  1
  Se  Se203  1  0.91767037  0.92094290  0.30341529  1
  Se  Se204  1  0.90743895  0.91041618  0.82026031  1
  Se  Se205  1  0.07955174  0.07756546  0.30351255  1
  Se  Se206  1  0.09070621  0.08773976  0.82108612  1
  Se  Se207  1  0.09064036  0.42238678  0.29929527  1
  Se  Se208  1  0.08756228  0.42076299  0.81116969  1
  Se  Se209  1  0.08459091  0.75036117  0.30090725  1
  Se  Se210  1  0.08536009  0.75929755  0.80838321  1
  Se  Se211  1  0.41720620  0.08109632  0.29619018  1
  Se  Se212  1  0.41920675  0.08030154  0.80033555  1
  Se  Se213  1  0.42744636  0.41900286  0.31223675  1
  Se  Se214  1  0.42374675  0.42150463  0.81943563  1
  Se  Se215  1  0.41819990  0.74740241  0.29754087  1
  Se  Se216  1  0.41345376  0.74849495  0.80764868  1
  Se  Se217  1  0.74334748  0.07961062  0.30395939  1
  Se  Se218  1  0.75004420  0.08211255  0.80536531  1
  Se  Se219  1  0.75379047  0.41517036  0.30320045  1
  Se  Se220  1  0.73857069  0.41165948  0.80282514  1
  Se  Se221  1  0.75946779  0.75660649  0.31045635  1
  Se  Se222  1  0.74659719  0.74935189  0.80461190  1
  Se  Se223  1  0.25487517  0.07568599  0.19869211  1
  Se  Se224  1  0.25624868  0.07476471  0.70040537  1
  Se  Se225  1  0.24873889  0.42229133  0.18827743  1
  Se  Se226  1  0.24290664  0.42217216  0.69398268  1
  Se  Se227  1  0.25544107  0.74987870  0.19232800  1
  Se  Se228  1  0.25189995  0.74620565  0.69542355  1
  Se  Se229  1  0.58559978  0.07921401  0.18920807  1
  Se  Se230  1  0.58971940  0.07735377  0.69616250  1
  Se  Se231  1  0.59029731  0.41592758  0.20176683  1
  Se  Se232  1  0.57771980  0.41956073  0.70079624  1
  Se  Se233  1  0.58004119  0.75545690  0.18423236  1
  Se  Se234  1  0.58007968  0.75189590  0.70283763  1
  Se  Se235  1  0.91270753  0.08483362  0.20139730  1
  Se  Se236  1  0.91320584  0.08862359  0.69469009  1
  Se  Se237  1  0.91134707  0.42094091  0.18005750  1
  Se  Se238  1  0.90146880  0.41496059  0.68481086  1
  Se  Se239  1  0.91962554  0.74713553  0.20158505  1
  Se  Se240  1  0.90669950  0.75905085  0.69038793  1
  Se  Se241  1  0.09081593  0.23812551  0.19060128  1
  Se  Se242  1  0.09292579  0.23464910  0.69733117  1
  Se  Se243  1  0.08178627  0.59050766  0.19109213  1
  Se  Se244  1  0.08592027  0.57843553  0.69281336  1
  Se  Se245  1  0.08257025  0.91573054  0.19734460  1
  Se  Se246  1  0.08711512  0.91128500  0.69336876  1
  Se  Se247  1  0.42394578  0.24541295  0.18747337  1
  Se  Se248  1  0.42679165  0.24069677  0.68762073  1
  Se  Se249  1  0.42438228  0.58113437  0.19929593  1
  Se  Se250  1  0.41239100  0.58509521  0.70823109  1
  Se  Se251  1  0.41681776  0.92061553  0.18833690  1
  Se  Se252  1  0.41624883  0.91640892  0.69599373  1
  Se  Se253  1  0.74362598  0.25157374  0.19572505  1
  Se  Se254  1  0.74602506  0.24835680  0.69060726  1
  Se  Se255  1  0.75571528  0.57924879  0.18583894  1
  Se  Se256  1  0.74537254  0.59608605  0.70059036  1
  Se  Se257  1  0.74612558  0.91656140  0.19830811  1
  Se  Se258  1  0.74685156  0.92208752  0.70442774  1
