# generated using pymatgen
data_In86Cu29Se144
_symmetry_space_group_name_H-M   'P 1'
_cell_length_a   17.56985362
_cell_length_b   17.56835967
_cell_length_c   23.42155237
_cell_angle_alpha   89.98311349
_cell_angle_beta   90.01285210
_cell_angle_gamma   90.01822379
_symmetry_Int_Tables_number   1
_chemical_formula_structural   In86Cu29Se144
_chemical_formula_sum   'In86 Cu29 Se144'
_cell_volume   7229.61186285
_cell_formula_units_Z   1
loop_
 _symmetry_equiv_pos_site_id
 _symmetry_equiv_pos_as_xyz
  1  'x, y, z'
loop_
 _atom_site_type_symbol
 _atom_site_label
 _atom_site_symmetry_multiplicity
 _atom_site_fract_x
 _atom_site_fract_y
 _atom_site_fract_z
 _atom_site_occupancy
  In  In0  1  -0.00668621  0.17038762  0.12598160  1
  In  In1  1  -0.01603998  0.16735739  0.62628058  1
  In  In2  1  -0.00675810  0.49876669  0.12625662  1
  In  In3  1  -0.00081798  0.50325453  0.61723694  1
  In  In4  1  -0.00078830  0.83936781  0.14546368  1
  In  In5  1  0.00161102  0.84592775  0.62456856  1
  In  In6  1  0.33836587  0.19053164  0.10720269  1
  In  In7  1  0.34304720  0.17413088  0.63185333  1
  In  In8  1  0.31642429  0.47903661  0.10277489  1
  In  In9  1  0.33793797  0.49810611  0.62553462  1
  In  In10  1  0.33779135  0.83509309  0.12434861  1
  In  In11  1  0.32669910  0.81594761  0.62518012  1
  In  In12  1  0.68221165  0.17401274  0.11961104  1
  In  In13  1  0.67398085  0.16377647  0.62712545  1
  In  In14  1  0.66682237  0.49861057  0.12721192  1
  In  In15  1  0.66721365  0.50384726  0.62237549  1
  In  In16  1  0.65924948  0.81977306  0.13160665  1
  In  In17  1  0.65499128  0.81908457  0.60860834  1
  In  In18  1  0.16707064  0.00226450  0.36785097  1
  In  In19  1  0.16346204  0.01925558  0.87563032  1
  In  In20  1  0.16799667  0.34726550  0.37100176  1
  In  In21  1  0.17446458  0.32824204  0.88919694  1
  In  In22  1  0.15188198  0.66454494  0.37187117  1
  In  In23  1  0.16915435  0.65313914  0.87671384  1
  In  In24  1  0.49804660  -0.01507647  0.37615105  1
  In  In25  1  0.50937100  0.00676206  0.87370083  1
  In  In26  1  0.51845549  0.33462846  0.36892928  1
  In  In27  1  0.50086354  0.33831923  0.87545121  1
  In  In28  1  0.52242996  0.64701344  0.39680028  1
  In  In29  1  0.49572566  0.65245695  0.86299988  1
  In  In30  1  0.84178624  -0.00744121  0.38046818  1
  In  In31  1  0.84344514  -0.00211339  0.86895633  1
  In  In32  1  0.83314190  0.33567489  0.37491799  1
  In  In33  1  0.82736196  0.34388473  0.88708939  1
  In  In34  1  0.82823175  0.65750288  0.38003993  1
  In  In35  1  0.82245647  0.65903414  0.86715791  1
  In  In36  1  -0.00631448  0.15870723  0.36542934  1
  In  In37  1  0.00292252  0.16770251  0.88464934  1
  In  In38  1  -0.00476421  0.49958005  0.37404126  1
  In  In39  1  0.00951308  0.48495961  0.89653104  1
  In  In40  1  -0.00765888  0.81636632  0.36190016  1
  In  In41  1  -0.01522768  0.84698830  0.86831886  1
  In  In42  1  0.33874364  0.15494864  0.37388953  1
  In  In43  1  0.32242809  0.18945621  0.89040602  1
  In  In44  1  0.33075951  0.50459035  0.38352069  1
  In  In45  1  0.33649636  0.49776678  0.87583476  1
  In  In46  1  0.35228667  0.83294549  0.38255539  1
  In  In47  1  0.34721857  0.82834348  0.86698939  1
  In  In48  1  0.66912232  0.18775280  0.36962369  1
  In  In49  1  0.65181130  0.18209423  0.88575501  1
  In  In50  1  0.66905287  0.49914561  0.37671123  1
  In  In51  1  0.66900428  0.49711312  0.87326684  1
  In  In52  1  0.68668180  0.80685860  0.40145503  1
  In  In53  1  0.67742073  0.81265401  0.86486580  1
  In  In54  1  0.14953925  0.01177264  0.13134196  1
  In  In55  1  0.15898688  -0.01106487  0.62872308  1
  In  In56  1  0.14088314  0.31897029  0.10056845  1
  In  In57  1  0.16669406  0.34657809  0.62665403  1
  In  In58  1  0.16340426  0.65682054  0.12756305  1
  In  In59  1  0.17767841  0.66367186  0.62708672  1
  In  In60  1  0.49033981  0.00543271  0.12659612  1
  In  In61  1  0.50914521  0.00317438  0.62105355  1
  In  In62  1  0.50620280  0.34263641  0.12192681  1
  In  In63  1  0.49422615  0.34090791  0.63606151  1
  In  In64  1  0.51273263  0.65353477  0.13286289  1
  In  In65  1  0.50793707  0.65684713  0.61917699  1
  In  In66  1  0.84094433  0.01409765  0.12593566  1
  In  In67  1  0.83720598  0.00395261  0.61509365  1
  In  In68  1  0.83154138  0.33524055  0.12700843  1
  In  In69  1  0.82651500  0.32478017  0.62175610  1
  In  In70  1  0.83971526  0.65963272  0.13585457  1
  In  In71  1  0.82028680  0.66043385  0.61056578  1
  In  In72  1  0.67182147  -0.00138735  0.24867158  1
  In  In73  1  -0.00075890  0.33157736  0.76170869  1
  In  In74  1  0.16742071  0.82939406  0.49926593  1
  In  In75  1  0.50376040  0.16762759  0.49687550  1
  In  In76  1  0.16556583  0.83142237  0.00920776  1
  In  In77  1  0.82966073  0.83291106  -0.00462239  1
  In  In78  1  0.50298721  0.83794588  -0.00466051  1
  In  In79  1  0.32972387  0.00055097  0.74922629  1
  In  In80  1  0.32967178  0.33619591  0.23682861  1
  In  In81  1  0.67113601  -0.00583095  0.74554034  1
  In  In82  1  0.33153452  0.00088443  0.25262488  1
  In  In83  1  0.16598827  0.16928799  0.48962359  1
  In  In84  1  -0.00919055  0.66559081  0.75032575  1
  In  In85  1  0.33264379  0.66492846  0.24389747  1
  Cu  Cu86  1  0.33523003  0.33868135  0.50157646  1
  Cu  Cu87  1  0.49804451  0.49796579  0.25042073  1
  Cu  Cu88  1  0.66910898  0.00572628  -0.00009979  1
  Cu  Cu89  1  0.33604740  0.65953176  0.50540070  1
  Cu  Cu90  1  0.50952955  0.82008600  0.26025415  1
  Cu  Cu91  1  0.66926641  0.33782603  0.49947646  1
  Cu  Cu92  1  0.66626530  0.65406029  -0.00080229  1
  Cu  Cu93  1  -0.00003362  0.00270924  0.00138950  1
  Cu  Cu94  1  -0.00931012  0.66173463  0.00462168  1
  Cu  Cu95  1  0.83388758  0.49720941  0.74945540  1
  Cu  Cu96  1  0.82894579  0.83128882  0.26114626  1
  Cu  Cu97  1  0.49554060  0.17877373  0.75985368  1
  Cu  Cu98  1  0.66720841  0.33812062  0.00231481  1
  Cu  Cu99  1  0.82911018  0.49978989  0.25253674  1
  Cu  Cu100  1  0.16895490  0.17454979  0.24120219  1
  Cu  Cu101  1  0.50274358  0.82350459  0.73995804  1
  Cu  Cu102  1  -0.00331105  0.66201253  0.49470059  1
  Cu  Cu103  1  0.82650635  0.16335843  0.74885426  1
  Cu  Cu104  1  0.34157410  0.66531101  -0.00420479  1
  Cu  Cu105  1  0.50881329  0.50438189  0.74922269  1
  Cu  Cu106  1  0.00220495  0.00097127  0.49533407  1
  Cu  Cu107  1  0.15966617  0.83237887  0.74844470  1
  Cu  Cu108  1  0.16046249  0.17094232  0.76046520  1
  Cu  Cu109  1  0.32882215  0.01464141  0.00038261  1
  Cu  Cu110  1  0.18076497  0.49975452  0.75240620  1
  Cu  Cu111  1  0.14986431  0.49992398  0.24666448  1
  Cu  Cu112  1  0.83667344  0.17287613  0.24794094  1
  Cu  Cu113  1  -0.00562279  0.34118041  0.49881177  1
  Cu  Cu114  1  0.67127079  0.00501805  0.50075806  1
  Se  Se115  1  0.07987740  0.08930973  0.05433027  1
  Se  Se116  1  0.08044621  0.08070244  0.55754038  1
  Se  Se117  1  0.09448203  0.44397605  0.05650028  1
  Se  Se118  1  0.08411048  0.41708686  0.55229439  1
  Se  Se119  1  0.06567500  0.74734397  0.06477187  1
  Se  Se120  1  0.07616318  0.73939035  0.55995347  1
  Se  Se121  1  0.42034507  0.08868947  0.05273409  1
  Se  Se122  1  0.40869894  0.08202935  0.55858711  1
  Se  Se123  1  0.41871118  0.40848082  0.04769557  1
  Se  Se124  1  0.42263105  0.41514816  0.55641949  1
  Se  Se125  1  0.42013459  0.74383744  0.05928242  1
  Se  Se126  1  0.41733858  0.74619856  0.55680488  1
  Se  Se127  1  0.75812387  0.08337134  0.05112449  1
  Se  Se128  1  0.75286250  0.09255380  0.55093293  1
  Se  Se129  1  0.75077842  0.42046291  0.05660360  1
  Se  Se130  1  0.75316028  0.41760651  0.55551618  1
  Se  Se131  1  0.74318415  0.74114106  0.05782784  1
  Se  Se132  1  0.75278285  0.75505190  0.54167599  1
  Se  Se133  1  0.25100042  0.26439559  0.04034242  1
  Se  Se134  1  0.25496355  0.25353547  0.55812910  1
  Se  Se135  1  0.25118221  0.59397365  0.05244682  1
  Se  Se136  1  0.24858168  0.57713535  0.55588463  1
  Se  Se137  1  0.25576650  0.93121386  0.06222311  1
  Se  Se138  1  0.25608683  0.92130117  0.56054779  1
  Se  Se139  1  0.58767879  0.25168497  0.05655929  1
  Se  Se140  1  0.58775475  0.25692431  0.56127743  1
  Se  Se141  1  0.57988833  0.57649970  0.05425089  1
  Se  Se142  1  0.60011628  0.59145130  0.54718953  1
  Se  Se143  1  0.59304816  0.92293830  0.06190161  1
  Se  Se144  1  0.58219075  0.92247076  0.54859428  1
  Se  Se145  1  0.90890689  0.24904683  0.05782617  1
  Se  Se146  1  0.91700132  0.25147785  0.55148028  1
  Se  Se147  1  0.90569543  0.58115961  0.05666334  1
  Se  Se148  1  0.91292389  0.57881473  0.54817023  1
  Se  Se149  1  0.92386353  0.91593071  0.05996237  1
  Se  Se150  1  0.92047758  0.91631303  0.54884688  1
  Se  Se151  1  0.07292959  0.26085565  0.43577241  1
  Se  Se152  1  0.06690311  0.26730260  0.94851723  1
  Se  Se153  1  0.08340393  0.57871195  0.44477797  1
  Se  Se154  1  0.08461601  0.58889700  0.95262533  1
  Se  Se155  1  0.07906150  0.91712420  0.43534880  1
  Se  Se156  1  0.07881649  0.91940137  0.94204075  1
  Se  Se157  1  0.41104999  0.25878842  0.43715226  1
  Se  Se158  1  0.43888008  0.23814799  0.94349658  1
  Se  Se159  1  0.42006291  0.57361535  0.45478713  1
  Se  Se160  1  0.42426438  0.58246361  0.94347947  1
  Se  Se161  1  0.40991126  0.92913188  0.45241740  1
  Se  Se162  1  0.40521522  0.93050127  0.94011284  1
  Se  Se163  1  0.75138179  0.25225608  0.44706474  1
  Se  Se164  1  0.74939702  0.24965148  0.95127430  1
  Se  Se165  1  0.72814878  0.59616877  0.44884902  1
  Se  Se166  1  0.75470252  0.57873301  0.94425510  1
  Se  Se167  1  0.75621161  0.91844074  0.45194331  1
  Se  Se168  1  0.73617349  0.92024956  0.93508825  1
  Se  Se169  1  0.25931979  0.06798474  0.44445464  1
  Se  Se170  1  0.23975366  0.09417269  0.95021093  1
  Se  Se171  1  0.24704918  0.41697587  0.44839547  1
  Se  Se172  1  0.24622927  0.43043056  0.94705064  1
  Se  Se173  1  0.25784004  0.73661544  0.43959020  1
  Se  Se174  1  0.25998740  0.75144281  0.94169812  1
  Se  Se175  1  0.59403618  0.08022505  0.43425773  1
  Se  Se176  1  0.57856594  0.08487628  0.95076902  1
  Se  Se177  1  0.58191894  0.41635432  0.44628739  1
  Se  Se178  1  0.58575539  0.41993994  0.94499512  1
  Se  Se179  1  0.55248369  0.77843132  0.43983071  1
  Se  Se180  1  0.58908473  0.73990049  0.93941819  1
  Se  Se181  1  0.91872671  0.08797701  0.44499669  1
  Se  Se182  1  0.91297906  0.07854092  0.94512130  1
  Se  Se183  1  0.90957657  0.42297687  0.44553193  1
  Se  Se184  1  0.92037629  0.40638645  0.95888206  1
  Se  Se185  1  0.91695366  0.74896135  0.44163851  1
  Se  Se186  1  0.92185658  0.74213651  0.93707674  1
  Se  Se187  1  0.24949273  0.24341988  0.30866833  1
  Se  Se188  1  0.24690612  0.25504248  0.80854461  1
  Se  Se189  1  0.24220669  0.57220327  0.30414191  1
  Se  Se190  1  0.25907878  0.58804173  0.80482011  1
  Se  Se191  1  0.25272652  0.90129607  0.31161799  1
  Se  Se192  1  0.23925273  0.91140758  0.81298395  1
  Se  Se193  1  0.58080517  0.24767401  0.29534617  1
  Se  Se194  1  0.58885330  0.25888085  0.80432801  1
  Se  Se195  1  0.57883524  0.57953031  0.30794575  1
  Se  Se196  1  0.59727179  0.58642268  0.80000778  1
  Se  Se197  1  0.59291204  0.90515378  0.31326072  1
  Se  Se198  1  0.57617772  0.90343347  0.80610354  1
  Se  Se199  1  0.91843454  0.25574090  0.30386446  1
  Se  Se200  1  0.90255713  0.24187908  0.81408638  1
  Se  Se201  1  0.91261415  0.58425441  0.30609077  1
  Se  Se202  1  0.92116882  0.56340403  0.81471388  1
  Se  Se203  1  0.91800239  0.91968258  0.30325750  1
  Se  Se204  1  0.89920102  0.90838093  0.79328898  1
  Se  Se205  1  0.09133687  0.08875730  0.29927431  1
  Se  Se206  1  0.07167627  0.08608649  0.80522963  1
  Se  Se207  1  0.07415234  0.41339012  0.30255184  1
  Se  Se208  1  0.09467850  0.42483813  0.81271809  1
  Se  Se209  1  0.09210186  0.75173057  0.29734628  1
  Se  Se210  1  0.08408351  0.75323327  0.81374479  1
  Se  Se211  1  0.43496084  0.08716528  0.30406498  1
  Se  Se212  1  0.41459801  0.09024647  0.81261238  1
  Se  Se213  1  0.41287815  0.42044940  0.30902812  1
  Se  Se214  1  0.42312742  0.42295270  0.80386424  1
  Se  Se215  1  0.42479435  0.73741017  0.31409405  1
  Se  Se216  1  0.41805357  0.74333883  0.79549086  1
  Se  Se217  1  0.75973869  0.08903843  0.31054956  1
  Se  Se218  1  0.74387412  0.08926710  0.81335872  1
  Se  Se219  1  0.74626497  0.41467944  0.30555493  1
  Se  Se220  1  0.75441558  0.41239453  0.80556260  1
  Se  Se221  1  0.74560018  0.74626388  0.31146980  1
  Se  Se222  1  0.76724787  0.75173974  0.79303971  1
  Se  Se223  1  0.25619914  0.09711515  0.18427743  1
  Se  Se224  1  0.23633954  0.09372416  0.69202838  1
  Se  Se225  1  0.22925676  0.42055910  0.18435013  1
  Se  Se226  1  0.25745087  0.41322434  0.69733242  1
  Se  Se227  1  0.24218465  0.76092671  0.18923898  1
  Se  Se228  1  0.24704813  0.74736653  0.70260916  1
  Se  Se229  1  0.58543630  0.08736107  0.18682110  1
  Se  Se230  1  0.57202051  0.09439516  0.69836993  1
  Se  Se231  1  0.58440311  0.41596998  0.19848217  1
  Se  Se232  1  0.59079200  0.41926042  0.69558876  1
  Se  Se233  1  0.58921788  0.73580534  0.20547438  1
  Se  Se234  1  0.58953045  0.74274853  0.68983854  1
  Se  Se235  1  0.92178494  0.08378326  0.20140860  1
  Se  Se236  1  0.90968544  0.08023696  0.69584180  1
  Se  Se237  1  0.91331441  0.41769614  0.19818044  1
  Se  Se238  1  0.91745705  0.41759307  0.69104081  1
  Se  Se239  1  0.91283841  0.74998073  0.20465343  1
  Se  Se240  1  0.91302947  0.74845008  0.67925894  1
  Se  Se241  1  0.08270977  0.25646282  0.19048939  1
  Se  Se242  1  0.08505400  0.24621193  0.69118986  1
  Se  Se243  1  0.07069495  0.58984354  0.19686485  1
  Se  Se244  1  0.08962648  0.57458268  0.69524006  1
  Se  Se245  1  0.09266409  0.91977985  0.20375489  1
  Se  Se246  1  0.07532384  0.92082766  0.70352047  1
  Se  Se247  1  0.42645241  0.24293405  0.18972616  1
  Se  Se248  1  0.41007984  0.25889634  0.70562945  1
  Se  Se249  1  0.41139282  0.56424131  0.18506532  1
  Se  Se250  1  0.42253825  0.58247048  0.69212621  1
  Se  Se251  1  0.43079043  0.90244152  0.19982719  1
  Se  Se252  1  0.42217610  0.91240171  0.68776325  1
  Se  Se253  1  0.74782357  0.25374595  0.19886394  1
  Se  Se254  1  0.74634344  0.25176394  0.69818197  1
  Se  Se255  1  0.74481803  0.58373599  0.19900710  1
  Se  Se256  1  0.75690779  0.58179697  0.69251675  1
  Se  Se257  1  0.76151044  0.90626250  0.18694215  1
  Se  Se258  1  0.74716586  0.90998655  0.67504996  1
