# generated using pymatgen
data_In86Cu29Se144
_symmetry_space_group_name_H-M   'P 1'
_cell_length_a   17.57346970
_cell_length_b   17.58093247
_cell_length_c   23.44229276
_cell_angle_alpha   90.00332207
_cell_angle_beta   90.00801793
_cell_angle_gamma   90.00141251
_symmetry_Int_Tables_number   1
_chemical_formula_structural   In86Cu29Se144
_chemical_formula_sum   'In86 Cu29 Se144'
_cell_volume   7242.68342744
_cell_formula_units_Z   1
loop_
 _symmetry_equiv_pos_site_id
 _symmetry_equiv_pos_as_xyz
  1  'x, y, z'
loop_
 _atom_site_type_symbol
 _atom_site_label
 _atom_site_symmetry_multiplicity
 _atom_site_fract_x
 _atom_site_fract_y
 _atom_site_fract_z
 _atom_site_occupancy
  In  In0  1  -0.01191645  0.16398036  0.13231339  1
  In  In1  1  0.01829916  0.17004101  0.62594578  1
  In  In2  1  0.01127697  0.50909108  0.11791388  1
  In  In3  1  -0.01397115  0.50059376  0.62103646  1
  In  In4  1  0.00349814  0.82909955  0.12878928  1
  In  In5  1  -0.00276723  0.82355438  0.62369250  1
  In  In6  1  0.34495642  0.17154485  0.12830851  1
  In  In7  1  0.34198458  0.16124432  0.62732089  1
  In  In8  1  0.33621336  0.50649669  0.12735997  1
  In  In9  1  0.34832640  0.48635894  0.63303508  1
  In  In10  1  0.32096817  0.81671005  0.11439515  1
  In  In11  1  0.33631750  0.83249804  0.62749115  1
  In  In12  1  0.67902047  0.17438153  0.12735402  1
  In  In13  1  0.64782818  0.18137974  0.63181177  1
  In  In14  1  0.65581791  0.49100544  0.11760691  1
  In  In15  1  0.65117300  0.48201641  0.61019205  1
  In  In16  1  0.66045668  0.83278676  0.10641408  1
  In  In17  1  0.65362579  0.85227741  0.64295425  1
  In  In18  1  0.15591341  0.00148395  0.36884507  1
  In  In19  1  0.16810493  -0.01599783  0.87871250  1
  In  In20  1  0.18770580  0.32685835  0.37084764  1
  In  In21  1  0.18029319  0.34793500  0.86885744  1
  In  In22  1  0.18317568  0.68060576  0.35906482  1
  In  In23  1  0.17503440  0.65908075  0.88074060  1
  In  In24  1  0.49654452  -0.00263738  0.38668300  1
  In  In25  1  0.50161823  -0.01065847  0.86268015  1
  In  In26  1  0.49790040  0.33638829  0.37997773  1
  In  In27  1  0.50765001  0.33950145  0.86749177  1
  In  In28  1  0.49512548  0.67179591  0.38254343  1
  In  In29  1  0.48452235  0.68053110  0.87662675  1
  In  In30  1  0.83458500  -0.00981979  0.37118749  1
  In  In31  1  0.82165217  -0.01178521  0.87263871  1
  In  In32  1  0.83092533  0.35247961  0.38089314  1
  In  In33  1  0.83432322  0.33739548  0.86694741  1
  In  In34  1  0.83353081  0.65587793  0.37191032  1
  In  In35  1  0.83075562  0.66344526  0.88693543  1
  In  In36  1  0.02046836  0.16163979  0.36813730  1
  In  In37  1  -0.01204705  0.17348147  0.87595636  1
  In  In38  1  -0.00821726  0.50457424  0.37270850  1
  In  In39  1  0.00373119  0.49926342  0.87928207  1
  In  In40  1  0.01525129  0.84296664  0.35722386  1
  In  In41  1  0.00380361  0.82820933  0.88585216  1
  In  In42  1  0.33877582  0.18030007  0.37551845  1
  In  In43  1  0.34200672  0.17059439  0.86705590  1
  In  In44  1  0.34132585  0.50288597  0.37375501  1
  In  In45  1  0.33660384  0.50612269  0.87415882  1
  In  In46  1  0.33657042  0.82811696  0.37917171  1
  In  In47  1  0.33344365  0.83029111  0.86888076  1
  In  In48  1  0.64524108  0.18161304  0.38988742  1
  In  In49  1  0.66205221  0.16215640  0.86372186  1
  In  In50  1  0.66812862  0.49250030  0.38707994  1
  In  In51  1  0.66991110  0.49202523  0.87886674  1
  In  In52  1  0.66139804  0.82651455  0.37820382  1
  In  In53  1  0.66450572  0.84102460  0.88021967  1
  In  In54  1  0.16969143  -0.02295345  0.12730344  1
  In  In55  1  0.18528821  -0.00130372  0.62519800  1
  In  In56  1  0.16415922  0.35155130  0.12568005  1
  In  In57  1  0.17389345  0.32791759  0.63277729  1
  In  In58  1  0.17217462  0.66959060  0.12982536  1
  In  In59  1  0.16704004  0.68133479  0.61959169  1
  In  In60  1  0.50617534  -0.01008241  0.12102193  1
  In  In61  1  0.49341720  -0.00084511  0.62729066  1
  In  In62  1  0.48834699  0.34387556  0.13450465  1
  In  In63  1  0.49842201  0.33270101  0.62061518  1
  In  In64  1  0.49315116  0.66295029  0.11939624  1
  In  In65  1  0.49217512  0.65596149  0.62406364  1
  In  In66  1  0.83959658  -0.00001205  0.12341362  1
  In  In67  1  0.81846546  -0.00904986  0.63345541  1
  In  In68  1  0.82256651  0.32848226  0.12569873  1
  In  In69  1  0.82020688  0.34542093  0.63291594  1
  In  In70  1  0.84035165  0.67254337  0.11566770  1
  In  In71  1  0.83499609  0.65937736  0.62417424  1
  In  In72  1  0.00264080  0.33452056  0.25286203  1
  In  In73  1  0.67179364  0.00649863  0.24829610  1
  In  In74  1  0.83336813  0.17171927  0.49924656  1
  In  In75  1  0.82705075  0.82450346  0.50412048  1
  In  In76  1  0.00378015  0.00528536  0.75700216  1
  In  In77  1  0.16584370  0.16678033  0.00606731  1
  In  In78  1  0.00009498  0.66436333  0.74540275  1
  In  In79  1  0.83024692  0.16086041  0.00243861  1
  In  In80  1  0.32715962  0.00312665  0.24962555  1
  In  In81  1  0.17726614  0.16252809  0.49746561  1
  In  In82  1  0.50312251  0.16548400  -0.00968360  1
  In  In83  1  0.66418683  0.66197821  0.24491002  1
  In  In84  1  0.66245565  0.66610208  0.75624718  1
  In  In85  1  0.17130570  0.50257193  0.49116187  1
  Cu  Cu86  1  0.49983280  0.49653224  0.25121114  1
  Cu  Cu87  1  0.33272138  0.35180867  0.00099789  1
  Cu  Cu88  1  -0.00007995  -0.01296993  0.00496241  1
  Cu  Cu89  1  0.17566256  0.50321132  0.24759666  1
  Cu  Cu90  1  0.00093302  0.33574756  0.50263255  1
  Cu  Cu91  1  0.00218058  0.34192032  -0.00512309  1
  Cu  Cu92  1  0.33547934  -0.01131979  0.50367360  1
  Cu  Cu93  1  0.83148614  0.49788343  0.24939172  1
  Cu  Cu94  1  0.33030167  0.66757109  0.50121793  1
  Cu  Cu95  1  0.66319714  0.65883503  -0.00366312  1
  Cu  Cu96  1  0.33612423  -0.00718998  -0.00695918  1
  Cu  Cu97  1  0.33471516  0.66834697  -0.00038778  1
  Cu  Cu98  1  0.00240237  0.66410377  0.00636203  1
  Cu  Cu99  1  0.82750150  0.17216601  0.25584429  1
  Cu  Cu100  1  0.49396900  0.83246843  0.25161125  1
  Cu  Cu101  1  0.00086512  -0.00925771  0.49191922  1
  Cu  Cu102  1  0.49814148  0.49784309  0.74700007  1
  Cu  Cu103  1  0.66324824  0.33107055  -0.00027206  1
  Cu  Cu104  1  0.17124345  0.83381147  0.74916914  1
  Cu  Cu105  1  0.82647937  0.49690852  0.74863334  1
  Cu  Cu106  1  0.16805189  0.50160101  0.75396685  1
  Cu  Cu107  1  0.50053612  0.16575746  0.74449798  1
  Cu  Cu108  1  0.83586403  0.17043638  0.74873942  1
  Cu  Cu109  1  0.66200751  0.66880590  0.50203988  1
  Cu  Cu110  1  0.50395238  0.17826129  0.25427960  1
  Cu  Cu111  1  0.66036502  0.00230639  0.51111541  1
  Cu  Cu112  1  -0.00079085  0.67282021  0.49596700  1
  Cu  Cu113  1  0.84007366  0.83063206  0.24295284  1
  Cu  Cu114  1  0.17064667  0.17501118  0.75200316  1
  Se  Se115  1  0.07325579  0.07601716  0.06327576  1
  Se  Se116  1  0.08111789  0.07027649  0.55434639  1
  Se  Se117  1  0.08846184  0.42192867  0.04783382  1
  Se  Se118  1  0.08626930  0.41422069  0.56041118  1
  Se  Se119  1  0.08635472  0.74794903  0.05859491  1
  Se  Se120  1  0.08123233  0.75674568  0.54839167  1
  Se  Se121  1  0.41065527  0.07690365  0.05428491  1
  Se  Se122  1  0.41494533  0.07994440  0.55269720  1
  Se  Se123  1  0.42189597  0.42515633  0.05680141  1
  Se  Se124  1  0.42239035  0.42393838  0.55226760  1
  Se  Se125  1  0.42249896  0.75371168  0.04896920  1
  Se  Se126  1  0.41501935  0.74707724  0.55722683  1
  Se  Se127  1  0.73535703  0.07064913  0.05781561  1
  Se  Se128  1  0.74595868  0.08373557  0.56391974  1
  Se  Se129  1  0.74977332  0.41193504  0.05294430  1
  Se  Se130  1  0.76575556  0.42922450  0.55350289  1
  Se  Se131  1  0.74752842  0.74399661  0.04781674  1
  Se  Se132  1  0.73361670  0.74733009  0.56954457  1
  Se  Se133  1  0.26017551  0.26160452  0.05917428  1
  Se  Se134  1  0.26061726  0.25610047  0.55753452  1
  Se  Se135  1  0.25264180  0.58722583  0.05760375  1
  Se  Se136  1  0.25421536  0.58409391  0.56215689  1
  Se  Se137  1  0.25056830  0.91402647  0.04803794  1
  Se  Se138  1  0.24774465  0.90714115  0.55340857  1
  Se  Se139  1  0.58289546  0.25345397  0.06173668  1
  Se  Se140  1  0.58064786  0.24957191  0.55077672  1
  Se  Se141  1  0.57782877  0.58033901  0.05206324  1
  Se  Se142  1  0.57777591  0.58280497  0.55148590  1
  Se  Se143  1  0.57639697  0.91727824  0.04332506  1
  Se  Se144  1  0.57915397  0.91319924  0.55942670  1
  Se  Se145  1  0.92547971  0.25837461  0.05550232  1
  Se  Se146  1  0.92473539  0.25537928  0.56395666  1
  Se  Se147  1  0.91410100  0.57619134  0.05110901  1
  Se  Se148  1  0.91660325  0.58865061  0.54840533  1
  Se  Se149  1  0.91405819  0.90780169  0.05859074  1
  Se  Se150  1  0.91720165  0.92469829  0.55885126  1
  Se  Se151  1  0.08251486  0.25915032  0.44225429  1
  Se  Se152  1  0.08297885  0.25680141  0.93911550  1
  Se  Se153  1  0.08106980  0.59510168  0.43512215  1
  Se  Se154  1  0.08363990  0.58409593  0.94721531  1
  Se  Se155  1  0.08655978  0.91084256  0.44043517  1
  Se  Se156  1  0.08961726  0.90956524  0.95316354  1
  Se  Se157  1  0.43097806  0.23699075  0.44711760  1
  Se  Se158  1  0.40860862  0.26403526  0.94248791  1
  Se  Se159  1  0.41427956  0.58431184  0.44878533  1
  Se  Se160  1  0.41887845  0.58500915  0.94642963  1
  Se  Se161  1  0.42037131  0.90531426  0.45094740  1
  Se  Se162  1  0.41896645  0.91502434  0.93636836  1
  Se  Se163  1  0.74169984  0.26848071  0.44965075  1
  Se  Se164  1  0.74285343  0.25021707  0.93915249  1
  Se  Se165  1  0.74803205  0.59045084  0.44679510  1
  Se  Se166  1  0.75050193  0.57275821  0.95016026  1
  Se  Se167  1  0.74008927  0.92575242  0.44657186  1
  Se  Se168  1  0.75912156  0.90819896  0.95003647  1
  Se  Se169  1  0.26201581  0.06870635  0.43632023  1
  Se  Se170  1  0.25706332  0.08320304  0.93980718  1
  Se  Se171  1  0.26648517  0.40480104  0.44523157  1
  Se  Se172  1  0.24754019  0.42959222  0.94576020  1
  Se  Se173  1  0.24621266  0.74766341  0.44565186  1
  Se  Se174  1  0.25272426  0.75235336  0.94391209  1
  Se  Se175  1  0.57885881  0.08189795  0.45353492  1
  Se  Se176  1  0.59257423  0.07173893  0.93684953  1
  Se  Se177  1  0.56757232  0.42895542  0.44993850  1
  Se  Se178  1  0.57905339  0.41428412  0.94693195  1
  Se  Se179  1  0.57955027  0.75527176  0.45119515  1
  Se  Se180  1  0.58535172  0.74590055  0.94185553  1
  Se  Se181  1  0.92472022  0.07962988  0.43790522  1
  Se  Se182  1  0.92440643  0.07072166  0.94330776  1
  Se  Se183  1  0.92239348  0.42315188  0.44972343  1
  Se  Se184  1  0.91115220  0.41621427  0.94139372  1
  Se  Se185  1  0.91861895  0.75280499  0.43426903  1
  Se  Se186  1  0.91853349  0.74591707  0.95164650  1
  Se  Se187  1  0.23627625  0.22333049  0.30386024  1
  Se  Se188  1  0.25731598  0.25702577  0.80309758  1
  Se  Se189  1  0.26175172  0.58328725  0.30123901  1
  Se  Se190  1  0.25188303  0.58733005  0.80328680  1
  Se  Se191  1  0.24468325  0.90687954  0.30829161  1
  Se  Se192  1  0.25095277  0.92124418  0.80168701  1
  Se  Se193  1  0.58729506  0.25957482  0.30759822  1
  Se  Se194  1  0.58309325  0.25080804  0.79871757  1
  Se  Se195  1  0.57896510  0.57916083  0.31217652  1
  Se  Se196  1  0.57244865  0.57473534  0.81469489  1
  Se  Se197  1  0.57834613  0.91395844  0.30739260  1
  Se  Se198  1  0.59880342  0.91708750  0.79940219  1
  Se  Se199  1  0.91117968  0.24804612  0.31743499  1
  Se  Se200  1  0.92017400  0.25434964  0.79971281  1
  Se  Se201  1  0.91634078  0.58363555  0.29744559  1
  Se  Se202  1  0.90759308  0.57834462  0.80753734  1
  Se  Se203  1  0.91594515  0.92002864  0.29699214  1
  Se  Se204  1  0.91967564  0.90523971  0.81020132  1
  Se  Se205  1  0.08032718  0.07618300  0.29292018  1
  Se  Se206  1  0.09544225  0.09528123  0.81700795  1
  Se  Se207  1  0.09705680  0.42442632  0.31207126  1
  Se  Se208  1  0.08118548  0.42006168  0.80518964  1
  Se  Se209  1  0.06791361  0.72928873  0.30176825  1
  Se  Se210  1  0.08909250  0.75305055  0.80797228  1
  Se  Se211  1  0.42887579  0.08484261  0.30797020  1
  Se  Se212  1  0.41954161  0.08266149  0.80079206  1
  Se  Se213  1  0.41586224  0.41302067  0.30483850  1
  Se  Se214  1  0.41398174  0.41738516  0.80448052  1
  Se  Se215  1  0.41674037  0.74753396  0.30674452  1
  Se  Se216  1  0.41159285  0.74830032  0.79725073  1
  Se  Se217  1  0.74776518  0.09546024  0.32018531  1
  Se  Se218  1  0.75801961  0.08388171  0.80302522  1
  Se  Se219  1  0.74689870  0.42271062  0.30685214  1
  Se  Se220  1  0.74171630  0.41340916  0.80098637  1
  Se  Se221  1  0.75509441  0.75724399  0.30508850  1
  Se  Se222  1  0.75808087  0.75054085  0.81395904  1
  Se  Se223  1  0.24210259  0.08975487  0.18298938  1
  Se  Se224  1  0.24917738  0.08900053  0.69718525  1
  Se  Se225  1  0.25662335  0.41637887  0.19620530  1
  Se  Se226  1  0.25098749  0.41718688  0.69940000  1
  Se  Se227  1  0.25531479  0.75245925  0.19807073  1
  Se  Se228  1  0.24997805  0.74725709  0.69547690  1
  Se  Se229  1  0.57473321  0.09446614  0.18949908  1
  Se  Se230  1  0.58454462  0.07833118  0.69485562  1
  Se  Se231  1  0.58703614  0.41588298  0.19840419  1
  Se  Se232  1  0.58165297  0.41479629  0.69316777  1
  Se  Se233  1  0.57843364  0.76009737  0.18855330  1
  Se  Se234  1  0.56904604  0.75074532  0.69579220  1
  Se  Se235  1  0.90400567  0.08515119  0.20108524  1
  Se  Se236  1  0.91567918  0.08914372  0.68802648  1
  Se  Se237  1  0.91420725  0.41970762  0.18800882  1
  Se  Se238  1  0.91849534  0.41830644  0.69745980  1
  Se  Se239  1  0.91865543  0.74010127  0.19418444  1
  Se  Se240  1  0.90212432  0.75809663  0.69542188  1
  Se  Se241  1  0.08926736  0.24717407  0.18864423  1
  Se  Se242  1  0.08207412  0.25517537  0.70178877  1
  Se  Se243  1  0.08650124  0.58105795  0.19549999  1
  Se  Se244  1  0.09125078  0.57550607  0.68523886  1
  Se  Se245  1  0.07731806  0.91802433  0.19856980  1
  Se  Se246  1  0.08616776  0.91237832  0.69047275  1
  Se  Se247  1  0.41236568  0.25517735  0.20357977  1
  Se  Se248  1  0.41706872  0.25268949  0.69420434  1
  Se  Se249  1  0.42252944  0.58586657  0.19773270  1
  Se  Se250  1  0.41207087  0.58508133  0.70115933  1
  Se  Se251  1  0.41655725  0.91205325  0.18933350  1
  Se  Se252  1  0.40008883  0.92982275  0.69534700  1
  Se  Se253  1  0.74567783  0.25687869  0.20411179  1
  Se  Se254  1  0.74725120  0.25019427  0.69688650  1
  Se  Se255  1  0.75464374  0.57530218  0.18384225  1
  Se  Se256  1  0.74507484  0.57585428  0.68918305  1
  Se  Se257  1  0.74886904  0.90569329  0.18752617  1
  Se  Se258  1  0.75303343  0.91221403  0.71005246  1
