# generated using pymatgen
data_In86Cu29Se144
_symmetry_space_group_name_H-M   'P 1'
_cell_length_a   17.57837204
_cell_length_b   17.58131187
_cell_length_c   23.43602948
_cell_angle_alpha   90.02179621
_cell_angle_beta   89.97367700
_cell_angle_gamma   90.00197190
_symmetry_Int_Tables_number   1
_chemical_formula_structural   In86Cu29Se144
_chemical_formula_sum   'In86 Cu29 Se144'
_cell_volume   7242.92332803
_cell_formula_units_Z   1
loop_
 _symmetry_equiv_pos_site_id
 _symmetry_equiv_pos_as_xyz
  1  'x, y, z'
loop_
 _atom_site_type_symbol
 _atom_site_label
 _atom_site_symmetry_multiplicity
 _atom_site_fract_x
 _atom_site_fract_y
 _atom_site_fract_z
 _atom_site_occupancy
  In  In0  1  0.01356130  0.15126222  0.13978496  1
  In  In1  1  -0.01110611  0.17732792  0.61934677  1
  In  In2  1  0.01296796  0.48649116  0.13534769  1
  In  In3  1  0.01529799  0.50549839  0.61659360  1
  In  In4  1  0.01079513  0.83237393  0.13290194  1
  In  In5  1  -0.00712982  0.82410861  0.61577210  1
  In  In6  1  0.32894823  0.18243759  0.13485941  1
  In  In7  1  0.33447478  0.16761137  0.63440959  1
  In  In8  1  0.33225308  0.49763892  0.12930119  1
  In  In9  1  0.32085446  0.48425730  0.61114529  1
  In  In10  1  0.30507288  0.84721731  0.14349595  1
  In  In11  1  0.32910099  0.84525459  0.62307408  1
  In  In12  1  0.66443572  0.16069122  0.12581068  1
  In  In13  1  0.68174026  0.17247618  0.62576283  1
  In  In14  1  0.66405497  0.50761932  0.12263757  1
  In  In15  1  0.65645858  0.48747049  0.60903081  1
  In  In16  1  0.68502846  0.83213829  0.12401228  1
  In  In17  1  0.67522479  0.82894386  0.61928459  1
  In  In18  1  0.14896963  -0.01832192  0.35383084  1
  In  In19  1  0.16918587  -0.00465232  0.88527035  1
  In  In20  1  0.17644429  0.34382272  0.37207012  1
  In  In21  1  0.17462583  0.32685420  0.88507553  1
  In  In22  1  0.16655531  0.66463950  0.37074234  1
  In  In23  1  0.15732361  0.67445906  0.88462711  1
  In  In24  1  0.49602568  -0.00698537  0.36687957  1
  In  In25  1  0.49629223  0.01996218  0.87451609  1
  In  In26  1  0.49385093  0.34061491  0.38165508  1
  In  In27  1  0.50479814  0.33740038  0.86280315  1
  In  In28  1  0.48791324  0.66005869  0.37243869  1
  In  In29  1  0.48354147  0.66180174  0.87953542  1
  In  In30  1  0.83434954  -0.00401366  0.37430826  1
  In  In31  1  0.82789049  -0.00664350  0.87874122  1
  In  In32  1  0.84145487  0.32655357  0.38913535  1
  In  In33  1  0.82845648  0.34639928  0.86245759  1
  In  In34  1  0.84603904  0.65513034  0.38126877  1
  In  In35  1  0.85971261  0.66024256  0.87196634  1
  In  In36  1  -0.01430104  0.16238294  0.36482104  1
  In  In37  1  0.00598987  0.17798484  0.87988019  1
  In  In38  1  0.00596988  0.50090312  0.37330396  1
  In  In39  1  -0.00313902  0.51050301  0.87268575  1
  In  In40  1  0.00998682  0.82466865  0.36881252  1
  In  In41  1  0.00896399  0.82731030  0.88521389  1
  In  In42  1  0.33087780  0.16371828  0.36841984  1
  In  In43  1  0.32970246  0.16011991  0.86682895  1
  In  In44  1  0.32827925  0.49326406  0.37929543  1
  In  In45  1  0.34003054  0.49361489  0.88454341  1
  In  In46  1  0.31010635  0.81223454  0.34974468  1
  In  In47  1  0.31560174  0.83473579  0.88023169  1
  In  In48  1  0.69889373  0.16661973  0.37921429  1
  In  In49  1  0.66021181  0.17797439  0.86831591  1
  In  In50  1  0.67061413  0.48431249  0.39818698  1
  In  In51  1  0.66729430  0.48490710  0.86822352  1
  In  In52  1  0.66890519  0.84699762  0.37400164  1
  In  In53  1  0.67839296  0.84228100  0.87756755  1
  In  In54  1  0.16548393  0.00286569  0.12654281  1
  In  In55  1  0.17696566  0.00010436  0.61921363  1
  In  In56  1  0.16893909  0.33446116  0.12545678  1
  In  In57  1  0.16664570  0.34237565  0.62393431  1
  In  In58  1  0.16797905  0.66492355  0.13387793  1
  In  In59  1  0.15784033  0.65990180  0.62086279  1
  In  In60  1  0.49762012  0.00150734  0.13210829  1
  In  In61  1  0.48790977  -0.00073883  0.62561875  1
  In  In62  1  0.48853020  0.33146202  0.12684809  1
  In  In63  1  0.48858221  0.34035495  0.63221502  1
  In  In64  1  0.49379083  0.64855577  0.12033253  1
  In  In65  1  0.50857614  0.66336959  0.62294223  1
  In  In66  1  0.86654951  -0.02003237  0.15095720  1
  In  In67  1  0.83802230  0.00364461  0.61314506  1
  In  In68  1  0.83711198  0.33863064  0.13122836  1
  In  In69  1  0.82246426  0.32877666  0.61250189  1
  In  In70  1  0.84097518  0.68088372  0.12564641  1
  In  In71  1  0.84281600  0.66976009  0.61586079  1
  In  In72  1  0.00006705  0.00113841  0.74083756  1
  In  In73  1  0.49781490  0.82991836  0.49937758  1
  In  In74  1  0.16291681  0.16752056  0.49601366  1
  In  In75  1  0.49686617  0.17015159  -0.00670910  1
  In  In76  1  0.50146705  0.16930048  0.49959269  1
  In  In77  1  0.66638310  0.00894818  0.74860587  1
  In  In78  1  0.48883209  0.82523617  0.00430041  1
  In  In79  1  0.67094194  0.66422003  0.74240559  1
  In  In80  1  0.32889485  0.66355221  0.75143518  1
  In  In81  1  -0.00321454  0.33889867  0.74640563  1
  In  In82  1  0.83716813  0.16238216  0.00277861  1
  In  In83  1  0.66765283  0.33187542  0.26402018  1
  In  In84  1  0.66366363  0.66569231  0.25078309  1
  In  In85  1  0.83463287  0.50436517  -0.00708447  1
  Cu  Cu86  1  -0.00159823  -0.00218130  0.48766047  1
  Cu  Cu87  1  0.84230706  0.82947862  0.74570291  1
  Cu  Cu88  1  0.17071194  0.16480359  0.75266907  1
  Cu  Cu89  1  0.33056355  0.33924433  0.00445310  1
  Cu  Cu90  1  0.49795516  0.49797822  0.25411539  1
  Cu  Cu91  1  0.50091270  0.82912207  0.24725429  1
  Cu  Cu92  1  0.67291083  0.66903057  0.50031807  1
  Cu  Cu93  1  0.32712244  0.66329259  0.49219258  1
  Cu  Cu94  1  0.66134854  0.33884559  -0.00924907  1
  Cu  Cu95  1  0.17074737  0.49681286  0.25233420  1
  Cu  Cu96  1  0.00987010  0.66992837  0.49434964  1
  Cu  Cu97  1  0.16872432  0.50120753  0.74762596  1
  Cu  Cu98  1  0.84556655  0.50329754  0.25492823  1
  Cu  Cu99  1  0.67089884  0.00484175  0.49599129  1
  Cu  Cu100  1  0.66427070  0.66430246  0.00038349  1
  Cu  Cu101  1  0.00715205  0.33194502  0.00568703  1
  Cu  Cu102  1  0.49655984  0.49945878  0.74684899  1
  Cu  Cu103  1  0.16104776  0.83170826  0.75841439  1
  Cu  Cu104  1  0.32196602  0.66455117  0.00867890  1
  Cu  Cu105  1  0.32521452  -0.00823262  0.49063689  1
  Cu  Cu106  1  0.16666366  0.17156985  0.24920057  1
  Cu  Cu107  1  0.32813943  0.00450067  0.00297655  1
  Cu  Cu108  1  0.49139332  0.84623163  0.74872555  1
  Cu  Cu109  1  -0.00017270  0.33794721  0.49736804  1
  Cu  Cu110  1  0.83862479  0.83189710  0.25315840  1
  Cu  Cu111  1  0.50449582  0.16514670  0.25278953  1
  Cu  Cu112  1  0.67755235  -0.00747050  0.00566175  1
  Cu  Cu113  1  0.00212564  -0.00610531  0.01251646  1
  Cu  Cu114  1  0.00242545  0.66794639  0.00652319  1
  Se  Se115  1  0.08411059  0.08726579  0.05566966  1
  Se  Se116  1  0.07090778  0.07594470  0.55727676  1
  Se  Se117  1  0.08842669  0.42013505  0.05465135  1
  Se  Se118  1  0.09070842  0.41607310  0.54709736  1
  Se  Se119  1  0.08741379  0.74743530  0.06155760  1
  Se  Se120  1  0.09028502  0.75360301  0.55095875  1
  Se  Se121  1  0.41193733  0.08406979  0.06034642  1
  Se  Se122  1  0.40135517  0.07478615  0.55179753  1
  Se  Se123  1  0.41838901  0.41938807  0.05641437  1
  Se  Se124  1  0.42868919  0.42349077  0.55234162  1
  Se  Se125  1  0.39792531  0.74794701  0.07111565  1
  Se  Se126  1  0.40467198  0.73991877  0.55937880  1
  Se  Se127  1  0.75580177  0.07105925  0.06703572  1
  Se  Se128  1  0.75167467  0.08898984  0.54998600  1
  Se  Se129  1  0.74500108  0.41127086  0.05483745  1
  Se  Se130  1  0.75589900  0.42277960  0.54392132  1
  Se  Se131  1  0.75207029  0.74447744  0.05045303  1
  Se  Se132  1  0.75797567  0.75501456  0.54832243  1
  Se  Se133  1  0.25155079  0.24967670  0.05548397  1
  Se  Se134  1  0.25401500  0.25022172  0.55976305  1
  Se  Se135  1  0.24372882  0.57811542  0.06264343  1
  Se  Se136  1  0.24601910  0.58367798  0.55195530  1
  Se  Se137  1  0.24858334  0.91843364  0.05659843  1
  Se  Se138  1  0.24353366  0.90974864  0.54646509  1
  Se  Se139  1  0.58958877  0.25777265  0.05588715  1
  Se  Se140  1  0.58401401  0.25475108  0.56558657  1
  Se  Se141  1  0.58102657  0.57730004  0.04782187  1
  Se  Se142  1  0.58162340  0.58788083  0.54738084  1
  Se  Se143  1  0.58501744  0.91783776  0.05931658  1
  Se  Se144  1  0.58873611  0.92676319  0.55758057  1
  Se  Se145  1  0.92344504  0.25384682  0.06354051  1
  Se  Se146  1  0.91321161  0.25020664  0.54355758  1
  Se  Se147  1  0.92261497  0.58162936  0.06333637  1
  Se  Se148  1  0.92775060  0.58649033  0.54942558  1
  Se  Se149  1  0.91852717  0.90916328  0.06277861  1
  Se  Se150  1  0.91870498  0.91638818  0.54855682  1
  Se  Se151  1  0.07422859  0.25428654  0.43363931  1
  Se  Se152  1  0.08961763  0.24534626  0.95414055  1
  Se  Se153  1  0.09047001  0.58155913  0.44322414  1
  Se  Se154  1  0.07815047  0.58158550  0.94847614  1
  Se  Se155  1  0.08630047  0.91482941  0.44007619  1
  Se  Se156  1  0.08567497  0.91406274  0.95369257  1
  Se  Se157  1  0.40099092  0.25193916  0.44482077  1
  Se  Se158  1  0.40730473  0.26183883  0.93714370  1
  Se  Se159  1  0.41552716  0.57936216  0.44618566  1
  Se  Se160  1  0.41088737  0.58572770  0.95558440  1
  Se  Se161  1  0.40738030  0.90930625  0.43424287  1
  Se  Se162  1  0.41197358  0.92711759  0.94220711  1
  Se  Se163  1  0.72817745  0.27391293  0.44851790  1
  Se  Se164  1  0.75033785  0.25763689  0.93965877  1
  Se  Se165  1  0.75624161  0.58235437  0.45077445  1
  Se  Se166  1  0.74232322  0.59135054  0.93157356  1
  Se  Se167  1  0.75323877  0.91470595  0.44860238  1
  Se  Se168  1  0.76142604  0.90848768  0.95437894  1
  Se  Se169  1  0.24358197  0.07323984  0.43313602  1
  Se  Se170  1  0.25156615  0.08957968  0.94532393  1
  Se  Se171  1  0.24742752  0.41395704  0.45155118  1
  Se  Se172  1  0.24539035  0.42259180  0.95149207  1
  Se  Se173  1  0.25003065  0.75174015  0.43944511  1
  Se  Se174  1  0.24525519  0.75182285  0.95371986  1
  Se  Se175  1  0.58556747  0.07744708  0.43611435  1
  Se  Se176  1  0.60151956  0.07710248  0.94529926  1
  Se  Se177  1  0.56793696  0.41663988  0.45736801  1
  Se  Se178  1  0.57546912  0.42003725  0.94009571  1
  Se  Se179  1  0.58953432  0.74310543  0.43651587  1
  Se  Se180  1  0.58653733  0.74689452  0.93821639  1
  Se  Se181  1  0.91267529  0.08600705  0.44312258  1
  Se  Se182  1  0.92965191  0.07114290  0.94274169  1
  Se  Se183  1  0.91903679  0.42650368  0.44606388  1
  Se  Se184  1  0.92477288  0.40407585  0.94036645  1
  Se  Se185  1  0.92349480  0.75167439  0.44204625  1
  Se  Se186  1  0.91721889  0.74661740  0.94991779  1
  Se  Se187  1  0.25080563  0.25277641  0.30333579  1
  Se  Se188  1  0.24730654  0.25408771  0.80558292  1
  Se  Se189  1  0.25464927  0.57926828  0.30658389  1
  Se  Se190  1  0.24137876  0.57875943  0.81611765  1
  Se  Se191  1  0.27198463  0.93862055  0.30318247  1
  Se  Se192  1  0.24454403  0.91920733  0.80698287  1
  Se  Se193  1  0.57806352  0.23887213  0.32104352  1
  Se  Se194  1  0.57739629  0.24608393  0.79603163  1
  Se  Se195  1  0.58634262  0.56904516  0.31475695  1
  Se  Se196  1  0.57252656  0.58513762  0.80663740  1
  Se  Se197  1  0.58368234  0.91314834  0.29898948  1
  Se  Se198  1  0.57761066  0.91508903  0.81137023  1
  Se  Se199  1  0.90013419  0.25366973  0.30581282  1
  Se  Se200  1  0.91239641  0.24228475  0.80739591  1
  Se  Se201  1  0.92831872  0.59095411  0.30315374  1
  Se  Se202  1  0.90224912  0.56222299  0.79834419  1
  Se  Se203  1  0.92185319  0.91432905  0.30747149  1
  Se  Se204  1  0.91702369  0.91156532  0.80882110  1
  Se  Se205  1  0.07886506  0.08826922  0.29830443  1
  Se  Se206  1  0.08588934  0.08642914  0.80981071  1
  Se  Se207  1  0.08343173  0.41403961  0.30323339  1
  Se  Se208  1  0.09080660  0.41961121  0.81081159  1
  Se  Se209  1  0.10894389  0.76389544  0.29830569  1
  Se  Se210  1  0.07733802  0.74601368  0.80729507  1
  Se  Se211  1  0.41618278  0.08169891  0.30128626  1
  Se  Se212  1  0.42188532  0.08993305  0.79832011  1
  Se  Se213  1  0.41435129  0.41414635  0.30670673  1
  Se  Se214  1  0.41085055  0.42245786  0.80356322  1
  Se  Se215  1  0.41925731  0.74104723  0.29625263  1
  Se  Se216  1  0.41761327  0.76216410  0.80964901  1
  Se  Se217  1  0.74180228  0.06954667  0.30624838  1
  Se  Se218  1  0.76147108  0.09166649  0.81043804  1
  Se  Se219  1  0.75845187  0.42944160  0.31448744  1
  Se  Se220  1  0.74695614  0.42028411  0.79139367  1
  Se  Se221  1  0.75623866  0.75054310  0.31225932  1
  Se  Se222  1  0.75880879  0.75345848  0.80748894  1
  Se  Se223  1  0.25019246  0.08746003  0.19523580  1
  Se  Se224  1  0.24737759  0.07903819  0.69590722  1
  Se  Se225  1  0.25300014  0.41189984  0.19801892  1
  Se  Se226  1  0.25169709  0.41714113  0.69590287  1
  Se  Se227  1  0.22967643  0.75709264  0.21011741  1
  Se  Se228  1  0.24213580  0.75639205  0.69224099  1
  Se  Se229  1  0.58542176  0.08233936  0.19788700  1
  Se  Se230  1  0.57646953  0.09099469  0.68488157  1
  Se  Se231  1  0.58278105  0.42023090  0.19407359  1
  Se  Se232  1  0.58445558  0.42220234  0.69309448  1
  Se  Se233  1  0.57844297  0.75099434  0.18243899  1
  Se  Se234  1  0.57492186  0.76587332  0.69244900  1
  Se  Se235  1  0.90150637  0.10384234  0.20110163  1
  Se  Se236  1  0.90440628  0.09429181  0.69102688  1
  Se  Se237  1  0.92083594  0.41223051  0.20275690  1
  Se  Se238  1  0.91674435  0.41990166  0.67632967  1
  Se  Se239  1  0.92311788  0.74813279  0.20113117  1
  Se  Se240  1  0.92222103  0.74424861  0.69311828  1
  Se  Se241  1  0.08327434  0.25686513  0.19672769  1
  Se  Se242  1  0.08946722  0.24126992  0.69053402  1
  Se  Se243  1  0.08400095  0.58038773  0.20168883  1
  Se  Se244  1  0.08272490  0.58378097  0.69750793  1
  Se  Se245  1  0.07058580  0.93767920  0.19611383  1
  Se  Se246  1  0.09081579  0.90709742  0.68694808  1
  Se  Se247  1  0.42070901  0.25375964  0.20457994  1
  Se  Se248  1  0.41316842  0.25254136  0.70015859  1
  Se  Se249  1  0.41653242  0.58145050  0.19931367  1
  Se  Se250  1  0.41674474  0.57923988  0.68625334  1
  Se  Se251  1  0.41609662  0.91460711  0.19719490  1
  Se  Se252  1  0.40406905  0.92498181  0.69814307  1
  Se  Se253  1  0.74948193  0.24807316  0.19331022  1
  Se  Se254  1  0.75848622  0.25525383  0.69542014  1
  Se  Se255  1  0.76164696  0.57742936  0.19211930  1
  Se  Se256  1  0.74994583  0.57852819  0.67543502  1
  Se  Se257  1  0.75085723  0.91313392  0.20088876  1
  Se  Se258  1  0.75915990  0.91292506  0.69101013  1
