# generated using pymatgen
data_In86Cu29Se144
_symmetry_space_group_name_H-M   'P 1'
_cell_length_a   17.58672816
_cell_length_b   17.58203412
_cell_length_c   23.44820851
_cell_angle_alpha   90.01754851
_cell_angle_beta   89.97533618
_cell_angle_gamma   89.98379507
_symmetry_Int_Tables_number   1
_chemical_formula_structural   In86Cu29Se144
_chemical_formula_sum   'In86 Cu29 Se144'
_cell_volume   7250.42991239
_cell_formula_units_Z   1
loop_
 _symmetry_equiv_pos_site_id
 _symmetry_equiv_pos_as_xyz
  1  'x, y, z'
loop_
 _atom_site_type_symbol
 _atom_site_label
 _atom_site_symmetry_multiplicity
 _atom_site_fract_x
 _atom_site_fract_y
 _atom_site_fract_z
 _atom_site_occupancy
  In  In0  1  -0.00679392  0.16083663  0.12233559  1
  In  In1  1  0.00499769  0.17483815  0.61440544  1
  In  In2  1  0.00944433  0.51851319  0.11109642  1
  In  In3  1  0.00106963  0.48771785  0.62398400  1
  In  In4  1  0.01197375  0.82149710  0.12827821  1
  In  In5  1  0.00236022  0.83644083  0.62564615  1
  In  In6  1  0.31923427  0.16538830  0.12247701  1
  In  In7  1  0.33027830  0.16899349  0.63143380  1
  In  In8  1  0.32729360  0.51141678  0.12411285  1
  In  In9  1  0.33678349  0.49770262  0.62580451  1
  In  In10  1  0.34062016  0.84167080  0.11809673  1
  In  In11  1  0.33427572  0.83473119  0.63448553  1
  In  In12  1  0.67247655  0.16377512  0.12893180  1
  In  In13  1  0.66563525  0.16655044  0.63292119  1
  In  In14  1  0.67747526  0.49397781  0.13030720  1
  In  In15  1  0.65696121  0.51031998  0.63696558  1
  In  In16  1  0.65905846  0.83908206  0.12628957  1
  In  In17  1  0.66118358  0.84291509  0.63752695  1
  In  In18  1  0.17266536  0.00691001  0.36223001  1
  In  In19  1  0.17325643  -0.00281118  0.88244441  1
  In  In20  1  0.16663969  0.33541692  0.38331852  1
  In  In21  1  0.16615540  0.32792685  0.87966854  1
  In  In22  1  0.16221527  0.66525987  0.37311313  1
  In  In23  1  0.17433211  0.65640560  0.88467305  1
  In  In24  1  0.49495550  0.00052126  0.36923959  1
  In  In25  1  0.49010252  -0.00359640  0.86549402  1
  In  In26  1  0.50561863  0.32610313  0.38004290  1
  In  In27  1  0.50286869  0.32800584  0.85569728  1
  In  In28  1  0.49877806  0.65157093  0.37691472  1
  In  In29  1  0.50658325  0.67586838  0.87390736  1
  In  In30  1  0.83857365  0.00388694  0.36666563  1
  In  In31  1  0.83992968  0.00415279  0.87838684  1
  In  In32  1  0.81841555  0.33203939  0.37655013  1
  In  In33  1  0.82432944  0.33816632  0.88168797  1
  In  In34  1  0.83506600  0.66852074  0.36393982  1
  In  In35  1  0.81819369  0.66114979  0.87781458  1
  In  In36  1  0.00857787  0.15554829  0.37800788  1
  In  In37  1  -0.00084931  0.16190365  0.88798385  1
  In  In38  1  0.00692700  0.51087331  0.36976164  1
  In  In39  1  -0.00188266  0.50457850  0.89091874  1
  In  In40  1  -0.00198908  0.82888360  0.35927464  1
  In  In41  1  0.00243045  0.83883492  0.88521801  1
  In  In42  1  0.32912063  0.15364948  0.38143129  1
  In  In43  1  0.32918288  0.16203872  0.86296220  1
  In  In44  1  0.33369008  0.49748057  0.38811823  1
  In  In45  1  0.32451341  0.49194341  0.86757287  1
  In  In46  1  0.32409366  0.84026670  0.37248061  1
  In  In47  1  0.33571991  0.83605594  0.87518278  1
  In  In48  1  0.67035476  0.17112185  0.37332081  1
  In  In49  1  0.67418687  0.17221233  0.86456209  1
  In  In50  1  0.66595943  0.49259204  0.36961764  1
  In  In51  1  0.67259977  0.49874840  0.86506832  1
  In  In52  1  0.67122457  0.83989301  0.36711280  1
  In  In53  1  0.66207346  0.81884080  0.87198130  1
  In  In54  1  0.16804155  -0.00070706  0.12532742  1
  In  In55  1  0.17126592  0.01677795  0.62090554  1
  In  In56  1  0.17198090  0.33608063  0.11885670  1
  In  In57  1  0.18976739  0.34904584  0.60653290  1
  In  In58  1  0.14819103  0.66051062  0.10714119  1
  In  In59  1  0.18193410  0.66543166  0.63009281  1
  In  In60  1  0.50695248  -0.00251758  0.12895660  1
  In  In61  1  0.49561817  0.01360577  0.64290612  1
  In  In62  1  0.50830464  0.34455102  0.12417738  1
  In  In63  1  0.47733343  0.34401679  0.64051906  1
  In  In64  1  0.49393446  0.68148263  0.12317103  1
  In  In65  1  0.50809175  0.65917933  0.63131045  1
  In  In66  1  0.82463867  0.00777766  0.12979386  1
  In  In67  1  0.81506776  0.01392556  0.62917106  1
  In  In68  1  0.82868998  0.33073665  0.11988183  1
  In  In69  1  0.83930841  0.32474298  0.62647920  1
  In  In70  1  0.84480849  0.65416886  0.12742166  1
  In  In71  1  0.82292932  0.66023778  0.63586778  1
  In  In72  1  0.49802790  0.16412422  -0.01601019  1
  In  In73  1  -0.00486014  0.66697969  0.76278625  1
  In  In74  1  0.83095202  0.83767307  0.50556453  1
  In  In75  1  0.33696497  0.33153652  0.24724024  1
  In  In76  1  0.83635181  0.82691881  0.00381246  1
  In  In77  1  0.50194972  0.50131449  -0.00949972  1
  In  In78  1  0.49330090  0.17433594  0.51111279  1
  In  In79  1  0.16510744  0.83604600  0.49581830  1
  In  In80  1  -0.00296447  0.33594333  0.25012802  1
  In  In81  1  0.33468491  0.67302071  0.25128192  1
  In  In82  1  0.00100596  -0.00350846  0.75843808  1
  In  In83  1  0.00103454  0.33324983  0.74799867  1
  In  In84  1  0.50072401  0.83535221  0.49367783  1
  In  In85  1  0.83477299  0.49513962  0.50130317  1
  Cu  Cu86  1  0.00261476  0.00157465  0.00692497  1
  Cu  Cu87  1  -0.00369414  0.00483083  0.49246770  1
  Cu  Cu88  1  0.00124629  0.32847356  0.49836753  1
  Cu  Cu89  1  0.82918076  0.83242553  0.24088125  1
  Cu  Cu90  1  0.32801910  0.67443302  -0.00124322  1
  Cu  Cu91  1  -0.00144908  0.33045484  0.00451558  1
  Cu  Cu92  1  0.83575479  0.16554686  0.75105525  1
  Cu  Cu93  1  0.66985482  0.32510125  -0.00375193  1
  Cu  Cu94  1  0.33308720  0.00391159  -0.00464302  1
  Cu  Cu95  1  0.66421201  0.66217680  -0.00204927  1
  Cu  Cu96  1  0.49309368  0.50596155  0.75131085  1
  Cu  Cu97  1  0.32541997  0.33785427  -0.00498041  1
  Cu  Cu98  1  0.83684839  0.50277281  0.24761158  1
  Cu  Cu99  1  0.33887953  0.65835838  0.50695127  1
  Cu  Cu100  1  0.66134747  0.00976247  0.50593249  1
  Cu  Cu101  1  0.49732148  0.82926634  0.75330158  1
  Cu  Cu102  1  0.66104630  0.33846354  0.50054643  1
  Cu  Cu103  1  0.50487831  0.83859582  0.24607277  1
  Cu  Cu104  1  0.50425157  0.16887789  0.25332749  1
  Cu  Cu105  1  0.51246215  0.49846060  0.25289310  1
  Cu  Cu106  1  0.66553387  -0.00245905  0.00434145  1
  Cu  Cu107  1  0.66368980  0.65853881  0.50445435  1
  Cu  Cu108  1  0.17160912  0.17341024  0.74846030  1
  Cu  Cu109  1  0.16900249  0.83209418  0.24364197  1
  Cu  Cu110  1  0.16517591  0.16123896  0.24984773  1
  Cu  Cu111  1  0.16708954  0.50027655  0.75000198  1
  Cu  Cu112  1  0.82894626  0.16743819  0.24838794  1
  Cu  Cu113  1  0.00159229  0.66293952  0.49475695  1
  Cu  Cu114  1  0.17684378  0.83773100  0.75658977  1
  Se  Se115  1  0.08788074  0.08721474  0.05689606  1
  Se  Se116  1  0.08166227  0.08297131  0.54873554  1
  Se  Se117  1  0.08452315  0.41596404  0.05320036  1
  Se  Se118  1  0.08166193  0.41758440  0.54923284  1
  Se  Se119  1  0.08240474  0.76031515  0.04400297  1
  Se  Se120  1  0.07910005  0.74192772  0.55831979  1
  Se  Se121  1  0.41483160  0.08282224  0.05635606  1
  Se  Se122  1  0.40987815  0.07103604  0.56138012  1
  Se  Se123  1  0.40866188  0.41428397  0.05566729  1
  Se  Se124  1  0.40771330  0.40531379  0.55700583  1
  Se  Se125  1  0.41792217  0.75490966  0.04735762  1
  Se  Se126  1  0.41584866  0.74785152  0.56089119  1
  Se  Se127  1  0.74783607  0.08449896  0.05364756  1
  Se  Se128  1  0.74643395  0.09561036  0.55342155  1
  Se  Se129  1  0.74444100  0.41424245  0.05153305  1
  Se  Se130  1  0.74290854  0.41359245  0.56442043  1
  Se  Se131  1  0.74207937  0.74003668  0.06277918  1
  Se  Se132  1  0.73991292  0.74396041  0.56218549  1
  Se  Se133  1  0.24892317  0.24962596  0.04903911  1
  Se  Se134  1  0.24112779  0.23026814  0.55686292  1
  Se  Se135  1  0.24985432  0.58360931  0.04895633  1
  Se  Se136  1  0.24815451  0.57970072  0.55648979  1
  Se  Se137  1  0.25148385  0.92173215  0.05243699  1
  Se  Se138  1  0.25547889  0.91874195  0.55945301  1
  Se  Se139  1  0.58279336  0.25009900  0.05457866  1
  Se  Se140  1  0.58524883  0.26356968  0.56786733  1
  Se  Se141  1  0.58346385  0.58460676  0.06187384  1
  Se  Se142  1  0.57986457  0.57625984  0.55598516  1
  Se  Se143  1  0.57778942  0.91566324  0.05267153  1
  Se  Se144  1  0.58245051  0.92415291  0.56094464  1
  Se  Se145  1  0.91291371  0.24592027  0.05432637  1
  Se  Se146  1  0.91153895  0.24942325  0.54827802  1
  Se  Se147  1  0.90589856  0.57740969  0.04669075  1
  Se  Se148  1  0.92062995  0.59212675  0.56099673  1
  Se  Se149  1  0.91992139  0.92094408  0.06577426  1
  Se  Se150  1  0.92263697  0.93156478  0.56116782  1
  Se  Se151  1  0.08431688  0.24476227  0.44539139  1
  Se  Se152  1  0.08387195  0.24866430  0.95058710  1
  Se  Se153  1  0.08867083  0.58066591  0.44635354  1
  Se  Se154  1  0.08327866  0.58756766  0.95350635  1
  Se  Se155  1  0.07190736  0.91885462  0.43331535  1
  Se  Se156  1  0.08563739  0.92092372  0.95163203  1
  Se  Se157  1  0.40361269  0.25640915  0.44405136  1
  Se  Se158  1  0.40813747  0.26360308  0.93375003  1
  Se  Se159  1  0.42390525  0.57769617  0.45320072  1
  Se  Se160  1  0.40590299  0.59073876  0.93725116  1
  Se  Se161  1  0.40375843  0.92757894  0.44330679  1
  Se  Se162  1  0.41906570  0.92056900  0.94441854  1
  Se  Se163  1  0.74347686  0.25154093  0.44996808  1
  Se  Se164  1  0.75188871  0.23868932  0.94511757  1
  Se  Se165  1  0.75024381  0.58960793  0.44068727  1
  Se  Se166  1  0.74185684  0.57321974  0.94666197  1
  Se  Se167  1  0.74129179  0.92760768  0.44477525  1
  Se  Se168  1  0.74643865  0.91618157  0.94258734  1
  Se  Se169  1  0.23933478  0.07444702  0.44484992  1
  Se  Se170  1  0.25363306  0.09267269  0.94329748  1
  Se  Se171  1  0.25052405  0.41310082  0.45134747  1
  Se  Se172  1  0.24239577  0.42381290  0.94442931  1
  Se  Se173  1  0.26173567  0.73891875  0.44382352  1
  Se  Se174  1  0.24705775  0.75885446  0.94444106  1
  Se  Se175  1  0.57922702  0.08456843  0.44299767  1
  Se  Se176  1  0.59439544  0.07240838  0.93376948  1
  Se  Se177  1  0.58231782  0.42065980  0.44394908  1
  Se  Se178  1  0.58597211  0.40187558  0.93564512  1
  Se  Se179  1  0.59507001  0.74295010  0.43910632  1
  Se  Se180  1  0.58190124  0.75147733  0.95101254  1
  Se  Se181  1  0.90793920  0.08638255  0.44269876  1
  Se  Se182  1  0.91356787  0.08060711  0.95513076  1
  Se  Se183  1  0.92492786  0.41127533  0.43571734  1
  Se  Se184  1  0.91421379  0.41182206  0.95015097  1
  Se  Se185  1  0.92022056  0.74797405  0.44078198  1
  Se  Se186  1  0.92162260  0.73616651  0.94183469  1
  Se  Se187  1  0.24460902  0.24443063  0.30854930  1
  Se  Se188  1  0.24970719  0.26026959  0.80309781  1
  Se  Se189  1  0.25264816  0.57561008  0.30995810  1
  Se  Se190  1  0.24733823  0.58690754  0.80323688  1
  Se  Se191  1  0.25229989  0.91651968  0.29598606  1
  Se  Se192  1  0.25608888  0.92681788  0.80731178  1
  Se  Se193  1  0.58614332  0.25427478  0.30484294  1
  Se  Se194  1  0.57981279  0.23528723  0.79446573  1
  Se  Se195  1  0.59024650  0.58811424  0.30468440  1
  Se  Se196  1  0.57976835  0.58357318  0.80640442  1
  Se  Se197  1  0.58412169  0.92317553  0.30286132  1
  Se  Se198  1  0.58287813  0.91018232  0.80683953  1
  Se  Se199  1  0.91031875  0.24427971  0.31147991  1
  Se  Se200  1  0.91747132  0.24229111  0.81241533  1
  Se  Se201  1  0.92222516  0.58572579  0.29937394  1
  Se  Se202  1  0.90742608  0.56790077  0.81320231  1
  Se  Se203  1  0.91211376  0.91473337  0.29725672  1
  Se  Se204  1  0.90870573  0.90166264  0.81046547  1
  Se  Se205  1  0.07524890  0.07853694  0.29748942  1
  Se  Se206  1  0.09139287  0.09448891  0.81052463  1
  Se  Se207  1  0.09523963  0.42142523  0.30576199  1
  Se  Se208  1  0.08370492  0.42597084  0.81177603  1
  Se  Se209  1  0.08928825  0.74575023  0.29841666  1
  Se  Se210  1  0.09242554  0.75942958  0.81392719  1
  Se  Se211  1  0.41453319  0.08995055  0.30417475  1
  Se  Se212  1  0.43223348  0.10017916  0.79960929  1
  Se  Se213  1  0.42421311  0.42232729  0.31030138  1
  Se  Se214  1  0.41106425  0.41539176  0.79843991  1
  Se  Se215  1  0.42872508  0.76067434  0.31279305  1
  Se  Se216  1  0.41283553  0.74696902  0.80638183  1
  Se  Se217  1  0.74584960  0.08356430  0.30339113  1
  Se  Se218  1  0.75829965  0.07738694  0.80448673  1
  Se  Se219  1  0.75485181  0.41722362  0.30037434  1
  Se  Se220  1  0.73887012  0.39589468  0.80376532  1
  Se  Se221  1  0.74835701  0.75155568  0.29997482  1
  Se  Se222  1  0.75388325  0.74707856  0.80444718  1
  Se  Se223  1  0.25238225  0.08068824  0.19704983  1
  Se  Se224  1  0.25061992  0.08048250  0.70037835  1
  Se  Se225  1  0.24461495  0.42596895  0.19387527  1
  Se  Se226  1  0.24783694  0.41655290  0.69445433  1
  Se  Se227  1  0.24884782  0.75201714  0.18243827  1
  Se  Se228  1  0.25376696  0.74932898  0.70246415  1
  Se  Se229  1  0.58500881  0.08508387  0.19648927  1
  Se  Se230  1  0.61706337  0.05368480  0.69452582  1
  Se  Se231  1  0.59126125  0.41220555  0.19878897  1
  Se  Se232  1  0.57684066  0.41862298  0.70049007  1
  Se  Se233  1  0.58276754  0.74856691  0.19543737  1
  Se  Se234  1  0.58343715  0.74870554  0.69937294  1
  Se  Se235  1  0.91510556  0.08487200  0.19752400  1
  Se  Se236  1  0.92257116  0.09101848  0.69108977  1
  Se  Se237  1  0.91554570  0.42449157  0.18431466  1
  Se  Se238  1  0.90467853  0.42709408  0.69611056  1
  Se  Se239  1  0.91777452  0.74791551  0.19401469  1
  Se  Se240  1  0.91475281  0.75594619  0.69298679  1
  Se  Se241  1  0.09030884  0.24667515  0.19026914  1
  Se  Se242  1  0.09418106  0.25139045  0.68551929  1
  Se  Se243  1  0.08725117  0.58620886  0.18946935  1
  Se  Se244  1  0.08263799  0.58034895  0.69269760  1
  Se  Se245  1  0.08313952  0.91737047  0.19429330  1
  Se  Se246  1  0.09550450  0.91354533  0.69331247  1
  Se  Se247  1  0.42693386  0.24226709  0.18519109  1
  Se  Se248  1  0.43373547  0.22603209  0.69834136  1
  Se  Se249  1  0.42804370  0.57658600  0.19400010  1
  Se  Se250  1  0.41058804  0.58764340  0.69556944  1
  Se  Se251  1  0.41605807  0.91861533  0.19494730  1
  Se  Se252  1  0.41586407  0.91770276  0.70247072  1
  Se  Se253  1  0.74975189  0.25467214  0.19544579  1
  Se  Se254  1  0.75475556  0.25030813  0.69756622  1
  Se  Se255  1  0.74999768  0.58677446  0.19751420  1
  Se  Se256  1  0.74574569  0.58229740  0.70655289  1
  Se  Se257  1  0.74322262  0.91969315  0.19513264  1
  Se  Se258  1  0.76989700  0.90564571  0.69286070  1
