# generated using pymatgen
data_In86Cu29Se144
_symmetry_space_group_name_H-M   'P 1'
_cell_length_a   17.58414980
_cell_length_b   17.57914583
_cell_length_c   23.44461851
_cell_angle_alpha   90.01891898
_cell_angle_beta   90.00428056
_cell_angle_gamma   90.00864749
_symmetry_Int_Tables_number   1
_chemical_formula_structural   In86Cu29Se144
_chemical_formula_sum   'In86 Cu29 Se144'
_cell_volume   7247.06712652
_cell_formula_units_Z   1
loop_
 _symmetry_equiv_pos_site_id
 _symmetry_equiv_pos_as_xyz
  1  'x, y, z'
loop_
 _atom_site_type_symbol
 _atom_site_label
 _atom_site_symmetry_multiplicity
 _atom_site_fract_x
 _atom_site_fract_y
 _atom_site_fract_z
 _atom_site_occupancy
  In  In0  1  0.01123702  0.15706873  0.13459564  1
  In  In1  1  -0.00900908  0.14568229  0.60552862  1
  In  In2  1  -0.00791355  0.50676027  0.13673851  1
  In  In3  1  -0.00836329  0.50669161  0.61918019  1
  In  In4  1  -0.00430925  0.83819988  0.13560179  1
  In  In5  1  0.01126865  0.83834975  0.61836324  1
  In  In6  1  0.34169937  0.17149714  0.11633211  1
  In  In7  1  0.33516301  0.16506511  0.61762489  1
  In  In8  1  0.33295761  0.48737385  0.12388895  1
  In  In9  1  0.34896559  0.48327442  0.63475450  1
  In  In10  1  0.34254912  0.83338642  0.11781939  1
  In  In11  1  0.32179827  0.84689386  0.63931110  1
  In  In12  1  0.65836854  0.16380589  0.12299562  1
  In  In13  1  0.67782257  0.18139747  0.62094553  1
  In  In14  1  0.67460987  0.50446445  0.11983606  1
  In  In15  1  0.65199911  0.49027740  0.61179469  1
  In  In16  1  0.65854347  0.84009962  0.13521470  1
  In  In17  1  0.67471201  0.83726364  0.62325248  1
  In  In18  1  0.13198802  0.03491091  0.42085272  1
  In  In19  1  0.18134781  0.01585167  0.86613084  1
  In  In20  1  0.15936969  0.32652777  0.36984160  1
  In  In21  1  0.16927837  0.31422626  0.87421981  1
  In  In22  1  0.16353486  0.68142817  0.37873270  1
  In  In23  1  0.16960357  0.65492863  0.87331624  1
  In  In24  1  0.50895372  -0.00211114  0.37441490  1
  In  In25  1  0.47431941  0.02575969  0.89915122  1
  In  In26  1  0.49611047  0.33496152  0.37348863  1
  In  In27  1  0.49972237  0.33240836  0.87199787  1
  In  In28  1  0.49962313  0.65895540  0.37573619  1
  In  In29  1  0.49660187  0.67557465  0.87935610  1
  In  In30  1  0.84366760  0.01120990  0.37104246  1
  In  In31  1  0.83802759  -0.00655506  0.86525228  1
  In  In32  1  0.83701591  0.32211365  0.38168331  1
  In  In33  1  0.83578975  0.34647238  0.87573308  1
  In  In34  1  0.82158343  0.65529529  0.36973637  1
  In  In35  1  0.82320041  0.66712439  0.87474495  1
  In  In36  1  -0.00595530  0.16928669  0.37855212  1
  In  In37  1  0.01594592  0.16760120  0.87557673  1
  In  In38  1  -0.01348757  0.48583745  0.36758804  1
  In  In39  1  -0.00915312  0.49260573  0.87924978  1
  In  In40  1  0.00988997  0.84511743  0.37118229  1
  In  In41  1  -0.01012955  0.84817866  0.87272206  1
  In  In42  1  0.32075032  0.16930869  0.38747592  1
  In  In43  1  0.33075760  0.16928274  0.87162425  1
  In  In44  1  0.34964543  0.49781716  0.37569206  1
  In  In45  1  0.34792746  0.50829196  0.86566847  1
  In  In46  1  0.31606269  0.83594141  0.38296443  1
  In  In47  1  0.34729752  0.84682319  0.86306574  1
  In  In48  1  0.67409219  0.15740847  0.37877519  1
  In  In49  1  0.64708547  0.15690936  0.87303253  1
  In  In50  1  0.65896265  0.51041450  0.38177213  1
  In  In51  1  0.67291915  0.49347598  0.87953709  1
  In  In52  1  0.66528394  0.83529210  0.36548185  1
  In  In53  1  0.66503827  0.83200396  0.87441367  1
  In  In54  1  0.16411120  -0.00103251  0.12419538  1
  In  In55  1  0.17078830  -0.00052855  0.61603696  1
  In  In56  1  0.17534716  0.32287806  0.13679312  1
  In  In57  1  0.18413019  0.32525762  0.62771032  1
  In  In58  1  0.16611286  0.66086824  0.13190175  1
  In  In59  1  0.16866388  0.68044898  0.62216842  1
  In  In60  1  0.51154272  0.01347472  0.10735031  1
  In  In61  1  0.48059402  0.00650635  0.62332971  1
  In  In62  1  0.48883500  0.32452929  0.11660336  1
  In  In63  1  0.50272091  0.32944582  0.62369199  1
  In  In64  1  0.51326231  0.67472405  0.11868550  1
  In  In65  1  0.50375532  0.64967526  0.62357039  1
  In  In66  1  0.83510278  0.00301752  0.13432519  1
  In  In67  1  0.83883986  0.01739045  0.62738430  1
  In  In68  1  0.82995502  0.34494573  0.12531356  1
  In  In69  1  0.82161325  0.31913175  0.62176235  1
  In  In70  1  0.83381254  0.66180383  0.13480069  1
  In  In71  1  0.83870555  0.66574585  0.61720779  1
  In  In72  1  0.83484552  0.83563710  0.49937945  1
  In  In73  1  0.66670843  0.33264944  0.24746912  1
  In  In74  1  0.82724883  0.83382632  -0.00302491  1
  In  In75  1  0.00374759  0.67445789  0.74051539  1
  In  In76  1  0.66698588  0.67020603  0.75049193  1
  In  In77  1  0.16692447  0.49878030  0.50279025  1
  In  In78  1  0.16869458  0.49142025  0.00552092  1
  In  In79  1  0.49491503  0.82974066  0.49973805  1
  In  In80  1  0.82771017  0.17045298  0.00212127  1
  In  In81  1  0.66095777  0.00495457  0.75079629  1
  In  In82  1  0.33336944  0.66600585  0.25285010  1
  In  In83  1  0.32944621  -0.00172269  0.25471228  1
  In  In84  1  0.17197887  0.83650565  0.00051834  1
  In  In85  1  0.00374263  0.32769934  0.74990132  1
  Cu  Cu86  1  0.65764892  0.33291796  -0.00128748  1
  Cu  Cu87  1  0.66341248  0.33507538  0.49703041  1
  Cu  Cu88  1  0.82859519  0.50162578  0.74778356  1
  Cu  Cu89  1  0.49671348  0.83573021  0.75318174  1
  Cu  Cu90  1  0.50156906  0.49854064  0.25020580  1
  Cu  Cu91  1  0.34027358  0.66911623  -0.00634103  1
  Cu  Cu92  1  0.66886054  0.65994111  0.00021147  1
  Cu  Cu93  1  0.00462258  0.00792508  0.00247110  1
  Cu  Cu94  1  0.16459232  0.83809403  0.74709746  1
  Cu  Cu95  1  0.33798181  0.66314774  0.50424113  1
  Cu  Cu96  1  0.34051770  0.33361115  0.50268290  1
  Cu  Cu97  1  0.66482023  0.00607831  0.49989855  1
  Cu  Cu98  1  0.16043692  0.83990876  0.25357454  1
  Cu  Cu99  1  0.49349356  0.16974540  0.74926717  1
  Cu  Cu100  1  0.83645866  0.82832080  0.25539125  1
  Cu  Cu101  1  0.49968214  0.83482325  0.24830620  1
  Cu  Cu102  1  0.50496912  0.49339850  0.74761508  1
  Cu  Cu103  1  0.17500038  0.49746237  0.75027998  1
  Cu  Cu104  1  0.33536648  0.33379941  -0.00396107  1
  Cu  Cu105  1  -0.00878553  0.66124571  0.49315023  1
  Cu  Cu106  1  0.16489668  0.16258979  0.26089721  1
  Cu  Cu107  1  0.00104341  0.33123450  0.49631429  1
  Cu  Cu108  1  0.16439383  0.49865271  0.25155483  1
  Cu  Cu109  1  0.83058108  0.49736299  0.25164460  1
  Cu  Cu110  1  0.83871305  0.16358358  0.25655482  1
  Cu  Cu111  1  0.16810942  0.15921375  0.74406073  1
  Cu  Cu112  1  0.49622901  0.16274213  0.24210224  1
  Cu  Cu113  1  -0.00672089  0.66328057  0.01153910  1
  Cu  Cu114  1  -0.00098415  0.33390613  0.00184778  1
  Se  Se115  1  0.08897447  0.08866002  0.05520697  1
  Se  Se116  1  0.09328257  0.08206179  0.54232920  1
  Se  Se117  1  0.07659759  0.41009288  0.06868968  1
  Se  Se118  1  0.07879441  0.40627968  0.56312729  1
  Se  Se119  1  0.07832350  0.74699282  0.06257313  1
  Se  Se120  1  0.07467481  0.74044201  0.54978075  1
  Se  Se121  1  0.41153739  0.08209820  0.04719980  1
  Se  Se122  1  0.41544888  0.08434081  0.54542906  1
  Se  Se123  1  0.41702305  0.41955748  0.04897980  1
  Se  Se124  1  0.42403678  0.41872654  0.55336285  1
  Se  Se125  1  0.42234395  0.74919586  0.05046575  1
  Se  Se126  1  0.41075801  0.74609068  0.56807486  1
  Se  Se127  1  0.74533690  0.07111681  0.05870915  1
  Se  Se128  1  0.75043276  0.08499596  0.55476591  1
  Se  Se129  1  0.74689603  0.41314273  0.05009416  1
  Se  Se130  1  0.75079165  0.41235412  0.55309435  1
  Se  Se131  1  0.74570473  0.74361889  0.06216241  1
  Se  Se132  1  0.73915611  0.74168744  0.55207527  1
  Se  Se133  1  0.25072865  0.25771674  0.05496826  1
  Se  Se134  1  0.25059608  0.24968993  0.54814937  1
  Se  Se135  1  0.25914115  0.59374039  0.05726036  1
  Se  Se136  1  0.25958940  0.58126367  0.56624957  1
  Se  Se137  1  0.26314610  0.93019252  0.05465194  1
  Se  Se138  1  0.24439302  0.89802308  0.55587330  1
  Se  Se139  1  0.58021516  0.24541458  0.05210359  1
  Se  Se140  1  0.58350170  0.24866891  0.55170342  1
  Se  Se141  1  0.58215569  0.57802723  0.05217514  1
  Se  Se142  1  0.58651149  0.58891056  0.54682586  1
  Se  Se143  1  0.57980830  0.90291437  0.05610633  1
  Se  Se144  1  0.58652509  0.92410344  0.55950335  1
  Se  Se145  1  0.92288465  0.25194592  0.06494836  1
  Se  Se146  1  0.91583999  0.25112490  0.55195943  1
  Se  Se147  1  0.91028166  0.57887516  0.06110228  1
  Se  Se148  1  0.90867051  0.57743471  0.54505115  1
  Se  Se149  1  0.92280305  0.92328897  0.05712360  1
  Se  Se150  1  0.92270835  0.92874298  0.55579756  1
  Se  Se151  1  0.08650036  0.24885454  0.44604476  1
  Se  Se152  1  0.08450195  0.25100969  0.95159581  1
  Se  Se153  1  0.07687774  0.58081759  0.43655189  1
  Se  Se154  1  0.07477381  0.58646413  0.94801833  1
  Se  Se155  1  0.09167859  0.89959024  0.45182386  1
  Se  Se156  1  0.08152975  0.92618978  0.94024891  1
  Se  Se157  1  0.41933672  0.25072581  0.44476524  1
  Se  Se158  1  0.41681715  0.25030255  0.94130256  1
  Se  Se159  1  0.42014357  0.58205710  0.44966474  1
  Se  Se160  1  0.42182330  0.58013362  0.94479145  1
  Se  Se161  1  0.40978109  0.92403329  0.44174767  1
  Se  Se162  1  0.42136026  0.90418214  0.94636090  1
  Se  Se163  1  0.74723814  0.24645701  0.44845235  1
  Se  Se164  1  0.74091686  0.25636186  0.93707168  1
  Se  Se165  1  0.75608511  0.57678518  0.44808871  1
  Se  Se166  1  0.75579859  0.58049380  0.94702370  1
  Se  Se167  1  0.74275082  0.92405845  0.43891744  1
  Se  Se168  1  0.74278125  0.93048227  0.93991429  1
  Se  Se169  1  0.26626969  0.06917532  0.45630860  1
  Se  Se170  1  0.24503978  0.09407965  0.94356390  1
  Se  Se171  1  0.25683881  0.41161044  0.44047771  1
  Se  Se172  1  0.25519039  0.41399209  0.93479738  1
  Se  Se173  1  0.25012194  0.74438126  0.45474532  1
  Se  Se174  1  0.25568809  0.74591083  0.93588036  1
  Se  Se175  1  0.57932439  0.08593084  0.44624289  1
  Se  Se176  1  0.58695895  0.08272626  0.95482225  1
  Se  Se177  1  0.57909276  0.41614295  0.44267453  1
  Se  Se178  1  0.57876045  0.41784123  0.94321810  1
  Se  Se179  1  0.59031289  0.74704314  0.43974952  1
  Se  Se180  1  0.59115874  0.74746747  0.94571755  1
  Se  Se181  1  0.91187502  0.08758618  0.44828009  1
  Se  Se182  1  0.91954186  0.08049397  0.94080838  1
  Se  Se183  1  0.91456084  0.41496344  0.44784211  1
  Se  Se184  1  0.91303531  0.41873369  0.95430741  1
  Se  Se185  1  0.91775556  0.74684778  0.43285868  1
  Se  Se186  1  0.92567441  0.74303286  0.94209137  1
  Se  Se187  1  0.25389009  0.24727034  0.30727282  1
  Se  Se188  1  0.24897089  0.24717476  0.79676378  1
  Se  Se189  1  0.24334219  0.57727675  0.31514964  1
  Se  Se190  1  0.25477787  0.58601413  0.80062248  1
  Se  Se191  1  0.23313012  0.92069878  0.31623696  1
  Se  Se192  1  0.25105775  0.91991579  0.79989613  1
  Se  Se193  1  0.57905737  0.23968392  0.30598579  1
  Se  Se194  1  0.58154796  0.24837458  0.80176246  1
  Se  Se195  1  0.58220226  0.58336794  0.30300836  1
  Se  Se196  1  0.58036391  0.57777363  0.81022484  1
  Se  Se197  1  0.58390220  0.92117826  0.29829138  1
  Se  Se198  1  0.57309130  0.91788564  0.81375827  1
  Se  Se199  1  0.91871086  0.25385559  0.30467736  1
  Se  Se200  1  0.91350520  0.24511686  0.81419668  1
  Se  Se201  1  0.91587525  0.58276113  0.30235718  1
  Se  Se202  1  0.91404898  0.58165588  0.80457147  1
  Se  Se203  1  0.91770139  0.91842463  0.30416419  1
  Se  Se204  1  0.92233253  0.92169044  0.79417216  1
  Se  Se205  1  0.08694261  0.08032438  0.31977960  1
  Se  Se206  1  0.08156342  0.08204826  0.80000207  1
  Se  Se207  1  0.08082199  0.41279530  0.30192191  1
  Se  Se208  1  0.09135136  0.42329734  0.81210613  1
  Se  Se209  1  0.08110215  0.74856418  0.30260435  1
  Se  Se210  1  0.08865329  0.75791616  0.81191940  1
  Se  Se211  1  0.42019389  0.09109694  0.31160116  1
  Se  Se212  1  0.41799831  0.08255045  0.80663404  1
  Se  Se213  1  0.41625647  0.41417135  0.29936921  1
  Se  Se214  1  0.41693701  0.41204266  0.79960274  1
  Se  Se215  1  0.41784901  0.76188789  0.31319186  1
  Se  Se216  1  0.41629959  0.74374786  0.80135964  1
  Se  Se217  1  0.74795017  0.08019194  0.30198792  1
  Se  Se218  1  0.75539604  0.09440204  0.80812653  1
  Se  Se219  1  0.75106234  0.41800332  0.31388183  1
  Se  Se220  1  0.74933381  0.41735254  0.80274679  1
  Se  Se221  1  0.74662040  0.74596036  0.30166882  1
  Se  Se222  1  0.76330216  0.76465141  0.80241628  1
  Se  Se223  1  0.24593542  0.09249191  0.19204580  1
  Se  Se224  1  0.25329471  0.08093142  0.68754331  1
  Se  Se225  1  0.25243975  0.41838822  0.20016061  1
  Se  Se226  1  0.25560085  0.40907269  0.70078258  1
  Se  Se227  1  0.24594815  0.76365678  0.19310218  1
  Se  Se228  1  0.24757655  0.74662585  0.70119648  1
  Se  Se229  1  0.58100062  0.07844641  0.19288375  1
  Se  Se230  1  0.57542584  0.09254229  0.68567380  1
  Se  Se231  1  0.57627088  0.41857204  0.18520390  1
  Se  Se232  1  0.58847326  0.41292743  0.69282318  1
  Se  Se233  1  0.58274836  0.74505277  0.20075572  1
  Se  Se234  1  0.57607713  0.76055978  0.68920211  1
  Se  Se235  1  0.92253066  0.07992338  0.20212301  1
  Se  Se236  1  0.92408692  0.09410860  0.69549492  1
  Se  Se237  1  0.91434456  0.41226172  0.20050584  1
  Se  Se238  1  0.91300677  0.42080028  0.69075976  1
  Se  Se239  1  0.91967204  0.74624649  0.19995965  1
  Se  Se240  1  0.90863149  0.76253034  0.68552639  1
  Se  Se241  1  0.08457808  0.24735308  0.20390221  1
  Se  Se242  1  0.08571525  0.23908323  0.68405050  1
  Se  Se243  1  0.08243417  0.58667535  0.20234929  1
  Se  Se244  1  0.09357438  0.57324542  0.68839242  1
  Se  Se245  1  0.08198597  0.92521704  0.19765907  1
  Se  Se246  1  0.08604779  0.92080348  0.69034687  1
  Se  Se247  1  0.41297643  0.25040556  0.19430965  1
  Se  Se248  1  0.41326433  0.24966545  0.69000726  1
  Se  Se249  1  0.42140508  0.58028671  0.18845247  1
  Se  Se250  1  0.42095002  0.58151431  0.69928275  1
  Se  Se251  1  0.42203797  0.91727795  0.18943116  1
  Se  Se252  1  0.41627876  0.92443781  0.70184454  1
  Se  Se253  1  0.75920590  0.23902333  0.19046069  1
  Se  Se254  1  0.75044021  0.24945197  0.70149934  1
  Se  Se255  1  0.74425292  0.57944379  0.19962761  1
  Se  Se256  1  0.75124260  0.58062899  0.68577287  1
  Se  Se257  1  0.75572377  0.91252141  0.19854647  1
  Se  Se258  1  0.75774229  0.91801104  0.69233684  1
