# generated using pymatgen
data_In86Cu29Se144
_symmetry_space_group_name_H-M   'P 1'
_cell_length_a   17.56920833
_cell_length_b   17.57020424
_cell_length_c   23.43198766
_cell_angle_alpha   89.99468602
_cell_angle_beta   89.99638796
_cell_angle_gamma   90.00972583
_symmetry_Int_Tables_number   1
_chemical_formula_structural   In86Cu29Se144
_chemical_formula_sum   'In86 Cu29 Se144'
_cell_volume   7233.32740959
_cell_formula_units_Z   1
loop_
 _symmetry_equiv_pos_site_id
 _symmetry_equiv_pos_as_xyz
  1  'x, y, z'
loop_
 _atom_site_type_symbol
 _atom_site_label
 _atom_site_symmetry_multiplicity
 _atom_site_fract_x
 _atom_site_fract_y
 _atom_site_fract_z
 _atom_site_occupancy
  In  In0  1  0.00874790  0.17034848  0.12049351  1
  In  In1  1  -0.00812337  0.16451654  0.61941121  1
  In  In2  1  -0.01070606  0.50781888  0.12933382  1
  In  In3  1  0.00516819  0.51069348  0.61925538  1
  In  In4  1  -0.00728167  0.82617545  0.12835357  1
  In  In5  1  0.00976075  0.82807455  0.62793102  1
  In  In6  1  0.32171557  0.15596598  0.12333952  1
  In  In7  1  0.32324190  0.17081437  0.62577431  1
  In  In8  1  0.34420430  0.50827108  0.13176598  1
  In  In9  1  0.37738042  0.51212913  0.61294003  1
  In  In10  1  0.34231925  0.82943191  0.12961872  1
  In  In11  1  0.33266722  0.83292837  0.62808220  1
  In  In12  1  0.67617015  0.17465352  0.11459645  1
  In  In13  1  0.68116516  0.16656230  0.62707983  1
  In  In14  1  0.66915497  0.48519789  0.12707626  1
  In  In15  1  0.66135954  0.49619458  0.63360968  1
  In  In16  1  0.65696259  0.84424068  0.11945968  1
  In  In17  1  0.64239993  0.83157626  0.61537921  1
  In  In18  1  0.17041505  -0.00678595  0.38102187  1
  In  In19  1  0.16637654  0.00324174  0.87060571  1
  In  In20  1  0.15022415  0.33781604  0.37867592  1
  In  In21  1  0.15475938  0.32612286  0.87547581  1
  In  In22  1  0.17743827  0.67364729  0.37204739  1
  In  In23  1  0.16941294  0.67467055  0.86224876  1
  In  In24  1  0.48749243  -0.00055781  0.37514469  1
  In  In25  1  0.49464010  0.01125833  0.88120237  1
  In  In26  1  0.51594498  0.33157159  0.37289255  1
  In  In27  1  0.49956800  0.32049545  0.87311056  1
  In  In28  1  0.49674784  0.67966421  0.38884395  1
  In  In29  1  0.50980628  0.67239682  0.86332037  1
  In  In30  1  0.84773721  0.00474854  0.37785349  1
  In  In31  1  0.84179966  0.00190953  0.87372846  1
  In  In32  1  0.83112777  0.33884473  0.37800866  1
  In  In33  1  0.82797999  0.33914881  0.88249376  1
  In  In34  1  0.83401387  0.64155324  0.38247009  1
  In  In35  1  0.82697388  0.66194826  0.86559678  1
  In  In36  1  -0.01468452  0.18879913  0.39403545  1
  In  In37  1  0.00346580  0.15243480  0.88998303  1
  In  In38  1  -0.00847902  0.48944400  0.36981852  1
  In  In39  1  -0.01185176  0.49228977  0.87062061  1
  In  In40  1  0.01676986  0.83647753  0.37652684  1
  In  In41  1  -0.00333477  0.83739041  0.86348396  1
  In  In42  1  0.33539933  0.14869942  0.37462416  1
  In  In43  1  0.33876749  0.15505983  0.87852990  1
  In  In44  1  0.32956788  0.51837597  0.37725471  1
  In  In45  1  0.33179091  0.50367368  0.86694273  1
  In  In46  1  0.33434608  0.83309014  0.37921431  1
  In  In47  1  0.33904682  0.84312688  0.86820945  1
  In  In48  1  0.66582495  0.18445656  0.37309262  1
  In  In49  1  0.65825317  0.17409347  0.88087172  1
  In  In50  1  0.68182347  0.49208459  0.39294980  1
  In  In51  1  0.67431676  0.51119185  0.86158304  1
  In  In52  1  0.65561900  0.82465771  0.38788111  1
  In  In53  1  0.66542529  0.81627715  0.87178788  1
  In  In54  1  0.16875846  0.01609080  0.12518107  1
  In  In55  1  0.16966463  0.00059940  0.62851482  1
  In  In56  1  0.16308979  0.31519786  0.12767342  1
  In  In57  1  0.17471959  0.32801448  0.61189558  1
  In  In58  1  0.16843326  0.66918760  0.13097157  1
  In  In59  1  0.16164208  0.67656540  0.62738590  1
  In  In60  1  0.49628758  -0.01030208  0.11478995  1
  In  In61  1  0.50469657  -0.02315246  0.62279331  1
  In  In62  1  0.51472290  0.33801273  0.12848534  1
  In  In63  1  0.51098565  0.36920831  0.61920143  1
  In  In64  1  0.49313820  0.67178929  0.12874865  1
  In  In65  1  0.49488933  0.66332071  0.63520778  1
  In  In66  1  0.83436976  0.01179725  0.11673279  1
  In  In67  1  0.83077783  0.01896963  0.62630726  1
  In  In68  1  0.83281073  0.33341882  0.12529576  1
  In  In69  1  0.82579460  0.32282201  0.61606967  1
  In  In70  1  0.84713059  0.66693729  0.12412909  1
  In  In71  1  0.83919616  0.65773318  0.62685616  1
  In  In72  1  -0.00321501  0.33155332  0.74684926  1
  In  In73  1  0.16571403  0.50023435  0.49875602  1
  In  In74  1  0.82867413  0.83709712  0.00076645  1
  In  In75  1  0.01230307  0.00157115  0.24694605  1
  In  In76  1  0.32778385  0.33503783  0.25060527  1
  In  In77  1  0.83001323  0.83634282  0.50429597  1
  In  In78  1  0.66891379  0.66180414  0.26340116  1
  In  In79  1  0.16536520  0.83837378  -0.00995769  1
  In  In80  1  0.33671982  0.33639300  0.74018739  1
  In  In81  1  0.66842691  -0.00496660  0.74728855  1
  In  In82  1  0.16426141  0.49494264  -0.00502486  1
  In  In83  1  0.50319434  0.49535478  0.00127271  1
  In  In84  1  0.66790575  0.00282491  0.24061016  1
  In  In85  1  0.49894509  0.16565489  0.49821760  1
  Cu  Cu86  1  -0.00469796  0.32854884  0.00226138  1
  Cu  Cu87  1  0.16503663  0.83772337  0.74718120  1
  Cu  Cu88  1  0.50197660  0.50626047  0.25453392  1
  Cu  Cu89  1  0.15953900  0.50322769  0.25383723  1
  Cu  Cu90  1  0.66802070  0.33578806  0.50212944  1
  Cu  Cu91  1  0.33378862  0.67422452  0.50399582  1
  Cu  Cu92  1  0.49936562  0.16712402  0.25081668  1
  Cu  Cu93  1  0.49895564  0.16561409  0.75238095  1
  Cu  Cu94  1  0.49429281  0.83149403  0.74825618  1
  Cu  Cu95  1  0.66732668  0.66016965  -0.00823074  1
  Cu  Cu96  1  0.16798127  0.16311931  0.75138828  1
  Cu  Cu97  1  0.83341406  0.49393442  0.25317119  1
  Cu  Cu98  1  0.83382281  0.50141348  0.74780282  1
  Cu  Cu99  1  0.83841630  0.17214459  0.74962357  1
  Cu  Cu100  1  0.33081158  0.00027204  -0.00285778  1
  Cu  Cu101  1  0.17907357  0.83058515  0.25476897  1
  Cu  Cu102  1  -0.00339170  0.66261937  -0.00301486  1
  Cu  Cu103  1  -0.00013741  0.66837975  0.50069164  1
  Cu  Cu104  1  0.34214381  0.66865631  0.00328730  1
  Cu  Cu105  1  0.83492180  0.82355742  0.24986711  1
  Cu  Cu106  1  0.67034353  0.33371730  -0.00028343  1
  Cu  Cu107  1  0.83194282  0.17772384  0.25172762  1
  Cu  Cu108  1  0.15894335  0.16405677  0.25367528  1
  Cu  Cu109  1  0.83343939  0.83106617  0.74391517  1
  Cu  Cu110  1  0.00598634  0.00607049  0.50298772  1
  Cu  Cu111  1  0.33486407  0.31950248  -0.00033483  1
  Cu  Cu112  1  0.49539974  0.83431279  0.25375606  1
  Cu  Cu113  1  0.33350851  -0.00783687  0.50289324  1
  Cu  Cu114  1  0.17213624  0.50586288  0.73866488  1
  Se  Se115  1  0.07922453  0.07739641  0.05338643  1
  Se  Se116  1  0.08946861  0.08659324  0.55879152  1
  Se  Se117  1  0.07827855  0.41064091  0.06173620  1
  Se  Se118  1  0.07169433  0.40723272  0.55301245  1
  Se  Se119  1  0.07868923  0.74368658  0.05420162  1
  Se  Se120  1  0.08509224  0.75204003  0.55031628  1
  Se  Se121  1  0.41200036  0.08285512  0.05436661  1
  Se  Se122  1  0.41368986  0.07477291  0.56246423  1
  Se  Se123  1  0.40642408  0.40661292  0.06065959  1
  Se  Se124  1  0.39142883  0.38769415  0.55698169  1
  Se  Se125  1  0.42345047  0.75482019  0.05383796  1
  Se  Se126  1  0.41977493  0.75050674  0.56162302  1
  Se  Se127  1  0.72807424  0.06317716  0.05410429  1
  Se  Se128  1  0.74814720  0.08543822  0.55123202  1
  Se  Se129  1  0.75343774  0.41812191  0.05265592  1
  Se  Se130  1  0.74622640  0.42175637  0.55825926  1
  Se  Se131  1  0.74134313  0.73956138  0.05996695  1
  Se  Se132  1  0.74417110  0.74286153  0.56251153  1
  Se  Se133  1  0.24518420  0.24422396  0.05324126  1
  Se  Se134  1  0.25669105  0.24542542  0.54547921  1
  Se  Se135  1  0.25671958  0.58609314  0.05663871  1
  Se  Se136  1  0.25521111  0.58744045  0.56224189  1
  Se  Se137  1  0.25368579  0.91820714  0.05947235  1
  Se  Se138  1  0.24767279  0.91323975  0.55849642  1
  Se  Se139  1  0.58112290  0.25536960  0.05228300  1
  Se  Se140  1  0.58631634  0.25493040  0.56241605  1
  Se  Se141  1  0.59069141  0.58862952  0.06278474  1
  Se  Se142  1  0.55031504  0.55326212  0.57098873  1
  Se  Se143  1  0.58119266  0.91430550  0.04384695  1
  Se  Se144  1  0.59502665  0.93222077  0.54374765  1
  Se  Se145  1  0.91272125  0.24601553  0.05729893  1
  Se  Se146  1  0.91946620  0.25245256  0.55050139  1
  Se  Se147  1  0.91332830  0.57998407  0.04969772  1
  Se  Se148  1  0.91557457  0.58258595  0.54882263  1
  Se  Se149  1  0.92906477  0.92240892  0.05736121  1
  Se  Se150  1  0.92346993  0.92521030  0.56315900  1
  Se  Se151  1  0.09801942  0.24230448  0.45153016  1
  Se  Se152  1  0.08404996  0.24811060  0.95132574  1
  Se  Se153  1  0.07804930  0.58984135  0.43568038  1
  Se  Se154  1  0.08020118  0.59010673  0.93429547  1
  Se  Se155  1  0.08580595  0.91621964  0.45302237  1
  Se  Se156  1  0.06746553  0.92608034  0.93879641  1
  Se  Se157  1  0.41356323  0.25308548  0.43309178  1
  Se  Se158  1  0.42108290  0.24162329  0.94569734  1
  Se  Se159  1  0.41407324  0.58638006  0.45161182  1
  Se  Se160  1  0.41492186  0.58555312  0.94041015  1
  Se  Se161  1  0.42066076  0.91302484  0.44924594  1
  Se  Se162  1  0.41506513  0.91663229  0.94501650  1
  Se  Se163  1  0.74990401  0.25190537  0.44777318  1
  Se  Se164  1  0.75252508  0.24670219  0.94828552  1
  Se  Se165  1  0.73105809  0.60430424  0.45371288  1
  Se  Se166  1  0.75354150  0.57975380  0.94087155  1
  Se  Se167  1  0.74700084  0.92626985  0.43828284  1
  Se  Se168  1  0.74146786  0.91796408  0.93377300  1
  Se  Se169  1  0.25312191  0.07824863  0.44940337  1
  Se  Se170  1  0.24457339  0.08217586  0.94506703  1
  Se  Se171  1  0.25693437  0.41328862  0.43728952  1
  Se  Se172  1  0.26059321  0.40421445  0.93815479  1
  Se  Se173  1  0.24775532  0.75323537  0.44912392  1
  Se  Se174  1  0.25965924  0.74216812  0.94001494  1
  Se  Se175  1  0.58892078  0.08146386  0.43365892  1
  Se  Se176  1  0.58629965  0.08233048  0.94722973  1
  Se  Se177  1  0.57904710  0.41548132  0.45025194  1
  Se  Se178  1  0.59135868  0.41247481  0.93619817  1
  Se  Se179  1  0.58117165  0.75015396  0.46261847  1
  Se  Se180  1  0.57970471  0.74457333  0.94527237  1
  Se  Se181  1  0.91485734  0.08566419  0.45421006  1
  Se  Se182  1  0.90189823  0.08568422  0.95157516  1
  Se  Se183  1  0.90482688  0.43087937  0.44554084  1
  Se  Se184  1  0.91835919  0.41817249  0.94964608  1
  Se  Se185  1  0.92017827  0.74952520  0.43875623  1
  Se  Se186  1  0.91859540  0.74731688  0.93785442  1
  Se  Se187  1  0.24307650  0.24377101  0.31284310  1
  Se  Se188  1  0.24832808  0.24837810  0.80841171  1
  Se  Se189  1  0.24991060  0.58566344  0.29956599  1
  Se  Se190  1  0.25181428  0.58604970  0.79824750  1
  Se  Se191  1  0.25496504  0.91904903  0.30831752  1
  Se  Se192  1  0.24797289  0.92007716  0.80256109  1
  Se  Se193  1  0.58669268  0.25320579  0.29510799  1
  Se  Se194  1  0.58661451  0.24851437  0.80095749  1
  Se  Se195  1  0.57715118  0.57755314  0.32339813  1
  Se  Se196  1  0.57750845  0.57816606  0.79707850  1
  Se  Se197  1  0.58440772  0.91268957  0.30877651  1
  Se  Se198  1  0.57577775  0.91110687  0.80994707  1
  Se  Se199  1  0.91614355  0.25452266  0.30923123  1
  Se  Se200  1  0.91659828  0.24599347  0.81614488  1
  Se  Se201  1  0.91595841  0.58292061  0.30223636  1
  Se  Se202  1  0.92006840  0.58320814  0.80071320  1
  Se  Se203  1  0.91649118  0.91007656  0.30483232  1
  Se  Se204  1  0.91121699  0.92002417  0.79700244  1
  Se  Se205  1  0.08055580  0.08997854  0.32039267  1
  Se  Se206  1  0.07839588  0.08859787  0.80658360  1
  Se  Se207  1  0.07876352  0.41251314  0.29996337  1
  Se  Se208  1  0.09424337  0.42531289  0.80189904  1
  Se  Se209  1  0.08706847  0.75122788  0.30338145  1
  Se  Se210  1  0.07886642  0.75199969  0.79749083  1
  Se  Se211  1  0.41672758  0.07904162  0.29794023  1
  Se  Se212  1  0.41553348  0.07994001  0.80200813  1
  Se  Se213  1  0.41870602  0.42291231  0.31160621  1
  Se  Se214  1  0.42626913  0.42030028  0.80633023  1
  Se  Se215  1  0.41819455  0.74880443  0.31005210  1
  Se  Se216  1  0.41097792  0.74801401  0.80228489  1
  Se  Se217  1  0.75693732  0.08774699  0.30798582  1
  Se  Se218  1  0.75267013  0.09106405  0.80700179  1
  Se  Se219  1  0.74415643  0.41933572  0.30835873  1
  Se  Se220  1  0.75659271  0.41418715  0.80349845  1
  Se  Se221  1  0.75863314  0.75648513  0.31928809  1
  Se  Se222  1  0.74843746  0.74793185  0.79627651  1
  Se  Se223  1  0.24809781  0.08329446  0.20347864  1
  Se  Se224  1  0.25452131  0.08313090  0.69873636  1
  Se  Se225  1  0.23840967  0.42572900  0.18783363  1
  Se  Se226  1  0.24800546  0.42508053  0.67851837  1
  Se  Se227  1  0.25816873  0.74628370  0.19691087  1
  Se  Se228  1  0.24918059  0.75079185  0.69784223  1
  Se  Se229  1  0.57541921  0.09127022  0.18344746  1
  Se  Se230  1  0.57706305  0.08565366  0.68773433  1
  Se  Se231  1  0.58475113  0.42047154  0.20380586  1
  Se  Se232  1  0.59319378  0.40311668  0.70481343  1
  Se  Se233  1  0.58491074  0.75627586  0.19786739  1
  Se  Se234  1  0.58350639  0.75221716  0.69731224  1
  Se  Se235  1  0.91072592  0.09041651  0.19468059  1
  Se  Se236  1  0.92094836  0.08665743  0.69848828  1
  Se  Se237  1  0.91647825  0.41417755  0.19600553  1
  Se  Se238  1  0.91231564  0.42265465  0.68489855  1
  Se  Se239  1  0.92269982  0.74085059  0.20161154  1
  Se  Se240  1  0.91943603  0.74738020  0.69269441  1
  Se  Se241  1  0.07583637  0.24803000  0.20130774  1
  Se  Se242  1  0.09371388  0.24642492  0.68921094  1
  Se  Se243  1  0.08082709  0.58624244  0.19448737  1
  Se  Se244  1  0.07967774  0.58847304  0.69462790  1
  Se  Se245  1  0.09885456  0.90424103  0.18786676  1
  Se  Se246  1  0.07978309  0.92201464  0.69648600  1
  Se  Se247  1  0.41820285  0.24792768  0.18837106  1
  Se  Se248  1  0.43027190  0.24670753  0.68386279  1
  Se  Se249  1  0.41885540  0.59095785  0.20366369  1
  Se  Se250  1  0.40672810  0.58519332  0.70363980  1
  Se  Se251  1  0.42065576  0.92017665  0.19571009  1
  Se  Se252  1  0.41342132  0.91974712  0.69817758  1
  Se  Se253  1  0.74558514  0.25211883  0.19386211  1
  Se  Se254  1  0.75272888  0.25419468  0.69858325  1
  Se  Se255  1  0.75508343  0.57957666  0.19265693  1
  Se  Se256  1  0.74869739  0.58501787  0.69634580  1
  Se  Se257  1  0.76299133  0.90599006  0.18764086  1
  Se  Se258  1  0.75327690  0.90779186  0.68123304  1
