# generated using pymatgen
data_In86Cu29Se144
_symmetry_space_group_name_H-M   'P 1'
_cell_length_a   17.58674633
_cell_length_b   17.58461809
_cell_length_c   23.44906169
_cell_angle_alpha   90.02074653
_cell_angle_beta   90.01116038
_cell_angle_gamma   90.00357264
_symmetry_Int_Tables_number   1
_chemical_formula_structural   In86Cu29Se144
_chemical_formula_sum   'In86 Cu29 Se144'
_cell_volume   7251.76750239
_cell_formula_units_Z   1
loop_
 _symmetry_equiv_pos_site_id
 _symmetry_equiv_pos_as_xyz
  1  'x, y, z'
loop_
 _atom_site_type_symbol
 _atom_site_label
 _atom_site_symmetry_multiplicity
 _atom_site_fract_x
 _atom_site_fract_y
 _atom_site_fract_z
 _atom_site_occupancy
  In  In0  1  0.01647618  0.18299022  0.11370919  1
  In  In1  1  0.00965979  0.16698782  0.60800337  1
  In  In2  1  -0.00637884  0.48666981  0.12308680  1
  In  In3  1  0.00658302  0.49176914  0.63755234  1
  In  In4  1  0.00604752  0.82586167  0.11991158  1
  In  In5  1  -0.01197866  0.83610495  0.63337833  1
  In  In6  1  0.32418562  0.17571887  0.12726995  1
  In  In7  1  0.32111789  0.17803325  0.64164325  1
  In  In8  1  0.31961318  0.49157941  0.11955501  1
  In  In9  1  0.33161346  0.49543567  0.63976093  1
  In  In10  1  0.34364236  0.83551152  0.11486619  1
  In  In11  1  0.32673906  0.83972766  0.63627035  1
  In  In12  1  0.66912578  0.16523285  0.12744133  1
  In  In13  1  0.67521958  0.15992913  0.63000361  1
  In  In14  1  0.67742087  0.48894577  0.13700506  1
  In  In15  1  0.65629374  0.49549087  0.62447666  1
  In  In16  1  0.65813944  0.84112592  0.12986609  1
  In  In17  1  0.68354450  0.83570345  0.62252464  1
  In  In18  1  0.18283333  0.00835900  0.36877317  1
  In  In19  1  0.17266430  -0.00333538  0.87959419  1
  In  In20  1  0.15219071  0.32064556  0.35873910  1
  In  In21  1  0.16918548  0.33633654  0.87987867  1
  In  In22  1  0.17124737  0.67284523  0.37587891  1
  In  In23  1  0.16725443  0.66444974  0.87366314  1
  In  In24  1  0.49847418  -0.00321024  0.36761664  1
  In  In25  1  0.49192679  -0.00634393  0.87030560  1
  In  In26  1  0.50011918  0.33333714  0.36027428  1
  In  In27  1  0.49251024  0.32767665  0.87104612  1
  In  In28  1  0.49964215  0.65003452  0.37016168  1
  In  In29  1  0.50424087  0.68199038  0.88397547  1
  In  In30  1  0.82619981  0.01071641  0.38469125  1
  In  In31  1  0.83473411  0.01974197  0.87437751  1
  In  In32  1  0.82795850  0.32292719  0.36628516  1
  In  In33  1  0.83511321  0.33437973  0.87890643  1
  In  In34  1  0.83038049  0.67757983  0.37673495  1
  In  In35  1  0.82849635  0.64867835  0.87919435  1
  In  In36  1  -0.00904891  0.17112570  0.38676774  1
  In  In37  1  -0.00393599  0.17415062  0.87915023  1
  In  In38  1  0.00484271  0.48637278  0.36572431  1
  In  In39  1  -0.00142876  0.49819636  0.87811846  1
  In  In40  1  -0.00797467  0.82008424  0.37399002  1
  In  In41  1  0.01648922  0.83624919  0.87446954  1
  In  In42  1  0.33080787  0.16481553  0.37054696  1
  In  In43  1  0.32326690  0.16677594  0.87099792  1
  In  In44  1  0.33438716  0.49245070  0.36680801  1
  In  In45  1  0.31510706  0.48540422  0.87255590  1
  In  In46  1  0.31941239  0.83941739  0.37553631  1
  In  In47  1  0.33577421  0.83268409  0.87697849  1
  In  In48  1  0.67741748  0.17317123  0.36658915  1
  In  In49  1  0.67594607  0.17810736  0.87119696  1
  In  In50  1  0.66599456  0.49033160  0.34055189  1
  In  In51  1  0.68408705  0.50057451  0.88530632  1
  In  In52  1  0.67540149  0.84545475  0.36481433  1
  In  In53  1  0.65191518  0.83124304  0.88028249  1
  In  In54  1  0.17993158  0.01217853  0.11497884  1
  In  In55  1  0.16238872  0.03197017  0.63523610  1
  In  In56  1  0.17057500  0.33258315  0.12453799  1
  In  In57  1  0.16530209  0.31926078  0.63482792  1
  In  In58  1  0.16079924  0.66002212  0.10942290  1
  In  In59  1  0.16977546  0.66229365  0.64108594  1
  In  In60  1  0.50369745  -0.00596225  0.12802677  1
  In  In61  1  0.49685065  0.00456070  0.63468382  1
  In  In62  1  0.49915156  0.33954522  0.13482477  1
  In  In63  1  0.50185142  0.33337432  0.63495135  1
  In  In64  1  0.50266897  0.67628493  0.12002759  1
  In  In65  1  0.49759930  0.65534084  0.63089044  1
  In  In66  1  0.81864215  0.00741151  0.12675793  1
  In  In67  1  0.83594317  -0.00553748  0.61802736  1
  In  In68  1  0.83982587  0.33428411  0.12642088  1
  In  In69  1  0.84737351  0.32006085  0.63200274  1
  In  In70  1  0.82787857  0.64797897  0.12158096  1
  In  In71  1  0.83312521  0.67923634  0.62771910  1
  In  In72  1  0.50410539  0.16743395  0.49889342  1
  In  In73  1  -0.00213152  0.00209475  0.25143273  1
  In  In74  1  0.66866349  0.66355349  0.75330850  1
  In  In75  1  0.83600220  0.83460641  0.00261558  1
  In  In76  1  -0.00533223  0.65903941  0.23999983  1
  In  In77  1  0.49878378  0.50115081  0.00768229  1
  In  In78  1  0.49960608  0.83412179  0.49611457  1
  In  In79  1  0.49612297  0.16601496  -0.00773912  1
  In  In80  1  0.33592427  0.66228280  0.24411340  1
  In  In81  1  0.49882557  0.49149121  0.48657345  1
  In  In82  1  0.00138778  0.00519586  0.75050712  1
  In  In83  1  0.16469983  0.49862151  0.49194655  1
  In  In84  1  0.82942301  0.50483273  0.49677600  1
  In  In85  1  0.14027440  0.85750678  0.51255821  1
  Cu  Cu86  1  0.66859386  0.66875492  0.49298304  1
  Cu  Cu87  1  0.32488319  0.01610817  0.50317394  1
  Cu  Cu88  1  0.33750257  -0.00458680  -0.00342672  1
  Cu  Cu89  1  0.16177257  0.49607174  0.75864310  1
  Cu  Cu90  1  -0.00648858  0.66955200  0.50437396  1
  Cu  Cu91  1  0.82968535  0.17037582  0.75046759  1
  Cu  Cu92  1  0.49898233  0.16080747  0.24597394  1
  Cu  Cu93  1  0.00597222  0.66629442  -0.00239132  1
  Cu  Cu94  1  0.83544658  0.49355139  0.75571315  1
  Cu  Cu95  1  0.67001646  0.33467363  0.00334302  1
  Cu  Cu96  1  0.67161990  -0.00013773  0.50008589  1
  Cu  Cu97  1  0.49624583  0.83228838  0.24661480  1
  Cu  Cu98  1  0.83255320  0.83535129  0.74884060  1
  Cu  Cu99  1  0.50320673  0.16905576  0.75376813  1
  Cu  Cu100  1  0.00200991  0.32892657  0.49884229  1
  Cu  Cu101  1  0.83949952  0.16902218  0.24935676  1
  Cu  Cu102  1  0.17083057  0.17077415  0.24211931  1
  Cu  Cu103  1  -0.00092053  0.33634596  -0.00096686  1
  Cu  Cu104  1  0.66537484  0.00130538  0.00438629  1
  Cu  Cu105  1  0.49854403  0.50039337  0.75622475  1
  Cu  Cu106  1  0.82231738  0.83285454  0.24921535  1
  Cu  Cu107  1  0.33171857  0.66438021  -0.00550940  1
  Cu  Cu108  1  0.32317519  0.67423598  0.50722934  1
  Cu  Cu109  1  0.50131632  0.83364776  0.75383649  1
  Cu  Cu110  1  0.17286835  0.83593190  0.24302804  1
  Cu  Cu111  1  0.67570003  0.32994202  0.49452169  1
  Cu  Cu112  1  0.32946733  0.32967968  0.50629539  1
  Cu  Cu113  1  0.17292491  0.83204429  0.75667058  1
  Cu  Cu114  1  0.00079913  0.00536749  -0.00452890  1
  Se  Se115  1  0.08734186  0.08615516  0.04898728  1
  Se  Se116  1  0.07548134  0.06002652  0.55081321  1
  Se  Se117  1  0.08483047  0.41528977  0.05479201  1
  Se  Se118  1  0.08040623  0.41066858  0.55817393  1
  Se  Se119  1  0.08809416  0.75675382  0.04488811  1
  Se  Se120  1  0.07942019  0.73916961  0.56724409  1
  Se  Se121  1  0.41317510  0.07825144  0.05916253  1
  Se  Se122  1  0.41152955  0.08762299  0.56354530  1
  Se  Se123  1  0.40909689  0.40097982  0.05600486  1
  Se  Se124  1  0.41188924  0.41325120  0.56055245  1
  Se  Se125  1  0.41871170  0.74662485  0.04577736  1
  Se  Se126  1  0.41276976  0.74717719  0.56324256  1
  Se  Se127  1  0.74878486  0.08930324  0.05113602  1
  Se  Se128  1  0.75168855  0.08480676  0.55423029  1
  Se  Se129  1  0.75247881  0.41661784  0.05787248  1
  Se  Se130  1  0.74793490  0.41043719  0.56046463  1
  Se  Se131  1  0.74622718  0.75045134  0.06406964  1
  Se  Se132  1  0.75096725  0.74621968  0.55027550  1
  Se  Se133  1  0.23388184  0.23580482  0.05442334  1
  Se  Se134  1  0.24826978  0.24640394  0.55975184  1
  Se  Se135  1  0.25028707  0.57832280  0.04607050  1
  Se  Se136  1  0.25209844  0.58230158  0.56281283  1
  Se  Se137  1  0.25107899  0.91414531  0.05049753  1
  Se  Se138  1  0.25276184  0.92994207  0.56383193  1
  Se  Se139  1  0.58265363  0.25494236  0.05836596  1
  Se  Se140  1  0.59128502  0.26000359  0.55895874  1
  Se  Se141  1  0.59584163  0.58225359  0.06516556  1
  Se  Se142  1  0.58533686  0.58909696  0.55044946  1
  Se  Se143  1  0.58098970  0.91606840  0.05279646  1
  Se  Se144  1  0.58638257  0.92393790  0.55953282  1
  Se  Se145  1  0.91469615  0.25130910  0.05204692  1
  Se  Se146  1  0.91280010  0.24853275  0.54893417  1
  Se  Se147  1  0.92557159  0.58489293  0.05459874  1
  Se  Se148  1  0.92260970  0.58226540  0.56489297  1
  Se  Se149  1  0.92347817  0.92975053  0.06214855  1
  Se  Se150  1  0.92394042  0.91147790  0.55420646  1
  Se  Se151  1  0.09052286  0.25157696  0.44477843  1
  Se  Se152  1  0.08301662  0.25165738  0.94757635  1
  Se  Se153  1  0.07007479  0.59455411  0.43911789  1
  Se  Se154  1  0.08639380  0.58148396  0.94374976  1
  Se  Se155  1  0.07739400  0.92399203  0.42557560  1
  Se  Se156  1  0.08591255  0.91796772  0.94931376  1
  Se  Se157  1  0.41552647  0.26074987  0.44100628  1
  Se  Se158  1  0.40092951  0.26001381  0.94409407  1
  Se  Se159  1  0.39820496  0.59178355  0.44414855  1
  Se  Se160  1  0.41336606  0.58171970  0.93675792  1
  Se  Se161  1  0.40300491  0.93040538  0.44546025  1
  Se  Se162  1  0.42376802  0.91188475  0.94683601  1
  Se  Se163  1  0.75747817  0.24353115  0.44405033  1
  Se  Se164  1  0.75188250  0.25018521  0.94896860  1
  Se  Se165  1  0.73478191  0.57968529  0.43042552  1
  Se  Se166  1  0.74980403  0.58715357  0.95797076  1
  Se  Se167  1  0.74969318  0.91163631  0.44637771  1
  Se  Se168  1  0.74837680  0.92537723  0.94032083  1
  Se  Se169  1  0.24539840  0.09551067  0.44574525  1
  Se  Se170  1  0.25449444  0.08242710  0.94713366  1
  Se  Se171  1  0.25591633  0.40497076  0.43849240  1
  Se  Se172  1  0.23937000  0.42477307  0.95324716  1
  Se  Se173  1  0.24150723  0.75893294  0.45377342  1
  Se  Se174  1  0.24856297  0.75015026  0.94277705  1
  Se  Se175  1  0.59081585  0.07594049  0.43770887  1
  Se  Se176  1  0.59144320  0.07790103  0.93623789  1
  Se  Se177  1  0.59949502  0.40821920  0.43098494  1
  Se  Se178  1  0.58519643  0.40883981  0.94235096  1
  Se  Se179  1  0.58529490  0.74491085  0.43318255  1
  Se  Se180  1  0.59525804  0.74336175  0.95592220  1
  Se  Se181  1  0.92422129  0.07321141  0.45004181  1
  Se  Se182  1  0.91391093  0.09091566  0.94975607  1
  Se  Se183  1  0.92128726  0.41103792  0.44070748  1
  Se  Se184  1  0.91243041  0.42078933  0.94905552  1
  Se  Se185  1  0.91096422  0.75219664  0.45144570  1
  Se  Se186  1  0.92361291  0.74683954  0.93818416  1
  Se  Se187  1  0.25588588  0.25107590  0.29951561  1
  Se  Se188  1  0.24956095  0.25928722  0.80598775  1
  Se  Se189  1  0.23878669  0.57945039  0.30573132  1
  Se  Se190  1  0.25035904  0.58256754  0.80363349  1
  Se  Se191  1  0.25428742  0.91942372  0.29709300  1
  Se  Se192  1  0.25444917  0.91795766  0.80788572  1
  Se  Se193  1  0.58435530  0.24367467  0.29930063  1
  Se  Se194  1  0.58599238  0.25542847  0.80443266  1
  Se  Se195  1  0.57305642  0.58219239  0.29233114  1
  Se  Se196  1  0.58075311  0.57764498  0.81718745  1
  Se  Se197  1  0.58135975  0.91723444  0.29871827  1
  Se  Se198  1  0.58666253  0.91666630  0.80472223  1
  Se  Se199  1  0.92664536  0.24644004  0.30489930  1
  Se  Se200  1  0.91326992  0.25025496  0.80664604  1
  Se  Se201  1  0.91129037  0.58101654  0.31246447  1
  Se  Se202  1  0.91572002  0.58186237  0.80626237  1
  Se  Se203  1  0.90659339  0.90942565  0.30877316  1
  Se  Se204  1  0.91132302  0.91372371  0.81241717  1
  Se  Se205  1  0.08940044  0.09465341  0.30681491  1
  Se  Se206  1  0.08972781  0.09007822  0.81325876  1
  Se  Se207  1  0.09613556  0.42563704  0.29507598  1
  Se  Se208  1  0.07779612  0.41199719  0.80954388  1
  Se  Se209  1  0.08983224  0.75477691  0.29996637  1
  Se  Se210  1  0.08384229  0.74798863  0.80240568  1
  Se  Se211  1  0.41489418  0.08189160  0.30332435  1
  Se  Se212  1  0.41756725  0.08817195  0.80696816  1
  Se  Se213  1  0.42332515  0.42526053  0.29785986  1
  Se  Se214  1  0.41226042  0.41608126  0.80553794  1
  Se  Se215  1  0.41688390  0.75655001  0.31198023  1
  Se  Se216  1  0.42124336  0.74903682  0.80775778  1
  Se  Se217  1  0.75774804  0.08153959  0.30219164  1
  Se  Se218  1  0.74624214  0.08445116  0.80082282  1
  Se  Se219  1  0.77120313  0.41471935  0.29151264  1
  Se  Se220  1  0.74818787  0.41561988  0.80894147  1
  Se  Se221  1  0.74406928  0.74415172  0.30182380  1
  Se  Se222  1  0.75612968  0.75621410  0.81357948  1
  Se  Se223  1  0.25348945  0.08004678  0.19625987  1
  Se  Se224  1  0.26536928  0.07136111  0.70489771  1
  Se  Se225  1  0.25247229  0.41228565  0.19617785  1
  Se  Se226  1  0.24151618  0.41268659  0.69998761  1
  Se  Se227  1  0.24482712  0.74984717  0.18208048  1
  Se  Se228  1  0.25718468  0.74641156  0.70401988  1
  Se  Se229  1  0.58593038  0.07996202  0.19417846  1
  Se  Se230  1  0.58506269  0.08575049  0.69851106  1
  Se  Se231  1  0.58812045  0.41078946  0.20267922  1
  Se  Se232  1  0.58437799  0.41993965  0.70131213  1
  Se  Se233  1  0.58151548  0.74913737  0.19665188  1
  Se  Se234  1  0.58205579  0.75659278  0.68933394  1
  Se  Se235  1  0.91829898  0.09271680  0.18493241  1
  Se  Se236  1  0.91051849  0.09037695  0.68860050  1
  Se  Se237  1  0.91064273  0.42151429  0.19983593  1
  Se  Se238  1  0.91893509  0.41020901  0.70158657  1
  Se  Se239  1  0.90541486  0.75892062  0.18732565  1
  Se  Se240  1  0.91730553  0.74587532  0.70380427  1
  Se  Se241  1  0.08154442  0.25474225  0.19625255  1
  Se  Se242  1  0.06923128  0.23920592  0.69195093  1
  Se  Se243  1  0.09274341  0.57467895  0.18621114  1
  Se  Se244  1  0.07997822  0.58245416  0.70486030  1
  Se  Se245  1  0.08866694  0.91638522  0.18677298  1
  Se  Se246  1  0.09456789  0.91228085  0.69242161  1
  Se  Se247  1  0.41620247  0.24730923  0.19561997  1
  Se  Se248  1  0.41761361  0.25459605  0.70278941  1
  Se  Se249  1  0.42047423  0.57585046  0.18010842  1
  Se  Se250  1  0.41488960  0.58425234  0.70367034  1
  Se  Se251  1  0.41188593  0.91440450  0.19365879  1
  Se  Se252  1  0.41737438  0.91756981  0.70102518  1
  Se  Se253  1  0.75407708  0.24828639  0.19371616  1
  Se  Se254  1  0.74574259  0.25540962  0.69689526  1
  Se  Se255  1  0.75214990  0.58468179  0.20120448  1
  Se  Se256  1  0.75773456  0.57282976  0.69018196  1
  Se  Se257  1  0.74484484  0.92245904  0.19762595  1
  Se  Se258  1  0.75358273  0.92107423  0.69502232  1
