# generated using pymatgen
data_In86Cu29Se144
_symmetry_space_group_name_H-M   'P 1'
_cell_length_a   17.57487875
_cell_length_b   17.57666652
_cell_length_c   23.44079065
_cell_angle_alpha   89.99938437
_cell_angle_beta   90.00641903
_cell_angle_gamma   89.99791639
_symmetry_Int_Tables_number   1
_chemical_formula_structural   In86Cu29Se144
_chemical_formula_sum   'In86 Cu29 Se144'
_cell_volume   7241.04261921
_cell_formula_units_Z   1
loop_
 _symmetry_equiv_pos_site_id
 _symmetry_equiv_pos_as_xyz
  1  'x, y, z'
loop_
 _atom_site_type_symbol
 _atom_site_label
 _atom_site_symmetry_multiplicity
 _atom_site_fract_x
 _atom_site_fract_y
 _atom_site_fract_z
 _atom_site_occupancy
  In  In0  1  -0.00937502  0.16573353  0.12352061  1
  In  In1  1  -0.00363806  0.16899419  0.62863778  1
  In  In2  1  0.00895488  0.48834950  0.11730609  1
  In  In3  1  -0.01941938  0.50448333  0.64272621  1
  In  In4  1  -0.00159564  0.84539533  0.12279905  1
  In  In5  1  -0.00443149  0.83038674  0.63394358  1
  In  In6  1  0.34472656  0.15356617  0.13679102  1
  In  In7  1  0.33044364  0.17788081  0.61772946  1
  In  In8  1  0.33360568  0.50632828  0.12835115  1
  In  In9  1  0.34592514  0.50299083  0.62057093  1
  In  In10  1  0.34454409  0.82829811  0.13080182  1
  In  In11  1  0.33272788  0.82381740  0.62282221  1
  In  In12  1  0.65879763  0.17435429  0.13326650  1
  In  In13  1  0.67501478  0.15538020  0.61965550  1
  In  In14  1  0.66193942  0.50267951  0.13418044  1
  In  In15  1  0.66365090  0.49873524  0.62975584  1
  In  In16  1  0.66429914  0.83671479  0.12491501  1
  In  In17  1  0.65128865  0.83487897  0.62141140  1
  In  In18  1  0.17916164  0.01505744  0.36723885  1
  In  In19  1  0.16201047  0.00763874  0.87574335  1
  In  In20  1  0.16412884  0.31917803  0.37658406  1
  In  In21  1  0.16971650  0.34331917  0.87946273  1
  In  In22  1  0.17559205  0.65435207  0.37517729  1
  In  In23  1  0.15884731  0.65624021  0.86781320  1
  In  In24  1  0.49550443  -0.01118941  0.37215210  1
  In  In25  1  0.50948758  0.00625521  0.88970844  1
  In  In26  1  0.51116627  0.34351043  0.36880194  1
  In  In27  1  0.50789251  0.32395460  0.87598041  1
  In  In28  1  0.50417370  0.66723681  0.37503607  1
  In  In29  1  0.50847291  0.67401230  0.86868252  1
  In  In30  1  0.84217310  0.00758916  0.36768857  1
  In  In31  1  0.82618997  -0.01595324  0.87521585  1
  In  In32  1  0.82498083  0.33806562  0.38512856  1
  In  In33  1  0.83808916  0.34414242  0.85539844  1
  In  In34  1  0.81613312  0.67306185  0.37987574  1
  In  In35  1  0.83793769  0.67298112  0.86643721  1
  In  In36  1  0.00761247  0.16252437  0.38271992  1
  In  In37  1  0.00588676  0.16485916  0.86438564  1
  In  In38  1  -0.00194831  0.48544029  0.38269874  1
  In  In39  1  0.00047839  0.50577516  0.86632519  1
  In  In40  1  -0.01411876  0.83894355  0.37629549  1
  In  In41  1  -0.00987558  0.82297634  0.86829434  1
  In  In42  1  0.32549441  0.15511738  0.37048957  1
  In  In43  1  0.35425777  0.17954772  0.88062754  1
  In  In44  1  0.34839778  0.51506212  0.36349442  1
  In  In45  1  0.31382350  0.49525734  0.87756714  1
  In  In46  1  0.35365112  0.84973471  0.36557585  1
  In  In47  1  0.35134160  0.83263359  0.88019013  1
  In  In48  1  0.67462994  0.17300225  0.37135528  1
  In  In49  1  0.65347160  0.17611129  0.87247471  1
  In  In50  1  0.66457750  0.49930452  0.37840916  1
  In  In51  1  0.67847802  0.50597725  0.85348124  1
  In  In52  1  0.65727944  0.82497589  0.36842054  1
  In  In53  1  0.67364264  0.83499965  0.88670467  1
  In  In54  1  0.16266502  0.00590994  0.13488310  1
  In  In55  1  0.15352436  -0.00295229  0.62254631  1
  In  In56  1  0.17445234  0.35023943  0.11525141  1
  In  In57  1  0.16277199  0.31929565  0.62245637  1
  In  In58  1  0.18029069  0.66333270  0.12189184  1
  In  In59  1  0.16700919  0.66291444  0.63375442  1
  In  In60  1  0.50641760  -0.00278525  0.12952837  1
  In  In61  1  0.51247269  -0.00867017  0.61260254  1
  In  In62  1  0.50608441  0.32432240  0.13169990  1
  In  In63  1  0.48769438  0.34363526  0.62425805  1
  In  In64  1  0.49546768  0.67766858  0.12739472  1
  In  In65  1  0.50229374  0.66742162  0.62712451  1
  In  In66  1  0.83748516  -0.00323450  0.13009355  1
  In  In67  1  0.82911395  0.01687336  0.62028378  1
  In  In68  1  0.83170999  0.32668956  0.12492141  1
  In  In69  1  0.82912614  0.33331346  0.62983312  1
  In  In70  1  0.81504781  0.66547529  0.12506100  1
  In  In71  1  0.83319320  0.65259871  0.63812276  1
  In  In72  1  0.82329178  0.83652549  0.50358962  1
  In  In73  1  0.16970494  0.83072237  0.00469193  1
  In  In74  1  0.66746962  0.00024088  0.74631006  1
  In  In75  1  -0.00103112  0.66987343  0.25659648  1
  In  In76  1  0.00144154  0.32861504  0.24633232  1
  In  In77  1  0.33362704  -0.00141524  0.75781393  1
  In  In78  1  0.33256186  0.33542844  0.75251723  1
  In  In79  1  0.17529291  0.16826687  -0.00443682  1
  In  In80  1  0.82871005  0.16863975  0.00174384  1
  In  In81  1  0.83704317  0.50647033  -0.01288034  1
  In  In82  1  0.49912310  0.16464263  0.49373538  1
  In  In83  1  0.16719963  0.49137421  0.50534225  1
  In  In84  1  0.17251928  0.84020752  0.49422611  1
  In  In85  1  0.49942927  0.49617127  -0.00177475  1
  Cu  Cu86  1  0.16502641  0.82813924  0.74971945  1
  Cu  Cu87  1  0.66458656  0.33503878  0.50220560  1
  Cu  Cu88  1  0.50235612  0.49950404  0.24980943  1
  Cu  Cu89  1  -0.01501470  0.32950034  0.50706216  1
  Cu  Cu90  1  0.67190834  0.33862428  -0.00050606  1
  Cu  Cu91  1  0.16755242  0.83334938  0.24633538  1
  Cu  Cu92  1  -0.00393880  0.66498741  -0.00915692  1
  Cu  Cu93  1  0.50034359  0.83273546  0.75062558  1
  Cu  Cu94  1  -0.00822056  -0.00300759  -0.00128391  1
  Cu  Cu95  1  -0.00263847  0.66266541  0.51436743  1
  Cu  Cu96  1  0.33062250  0.65906060  0.00211361  1
  Cu  Cu97  1  0.16469008  0.16160515  0.74816011  1
  Cu  Cu98  1  0.83535369  0.16471852  0.74525750  1
  Cu  Cu99  1  0.66247524  0.65667802  0.50259659  1
  Cu  Cu100  1  0.50380144  0.83153699  0.24809575  1
  Cu  Cu101  1  0.50101643  0.16392841  0.25654578  1
  Cu  Cu102  1  0.83349020  0.16729061  0.24925056  1
  Cu  Cu103  1  0.16845186  0.16682433  0.25155919  1
  Cu  Cu104  1  0.17480618  0.50139418  0.24606475  1
  Cu  Cu105  1  0.83173653  0.83009330  0.75138839  1
  Cu  Cu106  1  0.82815054  0.83520684  0.25119860  1
  Cu  Cu107  1  -0.00021139  0.01226677  0.49916982  1
  Cu  Cu108  1  0.34708220  0.67216989  0.49688841  1
  Cu  Cu109  1  0.49660615  0.50539306  0.74716732  1
  Cu  Cu110  1  0.66227222  0.67949250  -0.00091034  1
  Cu  Cu111  1  0.82666945  0.50042032  0.25635495  1
  Cu  Cu112  1  0.16592530  0.49980692  0.74986544  1
  Cu  Cu113  1  0.34495328  0.00108774  0.00917591  1
  Cu  Cu114  1  0.33248993  0.33635864  0.49387827  1
  Se  Se115  1  0.07742448  0.07714147  0.05459923  1
  Se  Se116  1  0.08280260  0.09087098  0.55620728  1
  Se  Se117  1  0.08527973  0.41486116  0.04336169  1
  Se  Se118  1  0.06901159  0.41218113  0.56500461  1
  Se  Se119  1  0.07355417  0.73908477  0.05972504  1
  Se  Se120  1  0.08409593  0.74921741  0.56020317  1
  Se  Se121  1  0.42707764  0.08670592  0.05995560  1
  Se  Se122  1  0.40954601  0.07789519  0.55728402  1
  Se  Se123  1  0.41652840  0.41074240  0.06418145  1
  Se  Se124  1  0.41590645  0.41979733  0.54578832  1
  Se  Se125  1  0.41143747  0.74762334  0.05219410  1
  Se  Se126  1  0.42519150  0.75422027  0.55459834  1
  Se  Se127  1  0.74430822  0.08280728  0.06591484  1
  Se  Se128  1  0.73506097  0.06574760  0.54590631  1
  Se  Se129  1  0.74964630  0.42192051  0.05838721  1
  Se  Se130  1  0.74670340  0.41602467  0.55969657  1
  Se  Se131  1  0.75051186  0.75553695  0.05330587  1
  Se  Se132  1  0.74417045  0.73718960  0.56366920  1
  Se  Se133  1  0.26055845  0.24492306  0.06570209  1
  Se  Se134  1  0.24800444  0.25391606  0.54577930  1
  Se  Se135  1  0.24737504  0.57288243  0.05071195  1
  Se  Se136  1  0.25706874  0.59551735  0.55406610  1
  Se  Se137  1  0.25464704  0.92633810  0.06389286  1
  Se  Se138  1  0.25807419  0.92624346  0.55936009  1
  Se  Se139  1  0.59141775  0.25696784  0.05537444  1
  Se  Se140  1  0.58186802  0.25464455  0.56094458  1
  Se  Se141  1  0.58895522  0.59001642  0.05753055  1
  Se  Se142  1  0.57810435  0.57772251  0.55840674  1
  Se  Se143  1  0.56935710  0.90442305  0.05723261  1
  Se  Se144  1  0.59093378  0.91401877  0.54160692  1
  Se  Se145  1  0.92769390  0.26378768  0.05209838  1
  Se  Se146  1  0.90548840  0.24281217  0.55970131  1
  Se  Se147  1  0.92035475  0.58977410  0.06057814  1
  Se  Se148  1  0.91183151  0.57835718  0.56138543  1
  Se  Se149  1  0.90932710  0.91528550  0.05227527  1
  Se  Se150  1  0.92592706  0.92223041  0.55773600  1
  Se  Se151  1  0.07687872  0.25631374  0.45183637  1
  Se  Se152  1  0.07641618  0.25207712  0.94018726  1
  Se  Se153  1  0.07612007  0.58871969  0.44713169  1
  Se  Se154  1  0.08103802  0.57981995  0.94282136  1
  Se  Se155  1  0.07546685  0.92805262  0.43798420  1
  Se  Se156  1  0.07769059  0.91716099  0.94181355  1
  Se  Se157  1  0.41260348  0.25711077  0.43261702  1
  Se  Se158  1  0.42553397  0.25990795  0.95339237  1
  Se  Se159  1  0.42266927  0.58095605  0.44484877  1
  Se  Se160  1  0.41243927  0.58754084  0.93632395  1
  Se  Se161  1  0.41517464  0.91881233  0.44913554  1
  Se  Se162  1  0.42325459  0.91769963  0.95171599  1
  Se  Se163  1  0.74685420  0.24803338  0.45123589  1
  Se  Se164  1  0.75227863  0.26380466  0.93558715  1
  Se  Se165  1  0.75114392  0.57947113  0.44896412  1
  Se  Se166  1  0.73675545  0.59506192  0.93699311  1
  Se  Se167  1  0.74875007  0.91779372  0.43005814  1
  Se  Se168  1  0.74096728  0.93078270  0.95328101  1
  Se  Se169  1  0.23983766  0.09332592  0.44740804  1
  Se  Se170  1  0.26863063  0.07323153  0.94006416  1
  Se  Se171  1  0.25486072  0.41907857  0.43231239  1
  Se  Se172  1  0.26794555  0.39653498  0.94994301  1
  Se  Se173  1  0.26102894  0.74588821  0.43697208  1
  Se  Se174  1  0.25299723  0.74163222  0.93930073  1
  Se  Se175  1  0.58915949  0.07797992  0.43401707  1
  Se  Se176  1  0.59231571  0.09512948  0.95066553  1
  Se  Se177  1  0.58071715  0.41809623  0.44898710  1
  Se  Se178  1  0.60014877  0.42214346  0.93536652  1
  Se  Se179  1  0.58781690  0.74594540  0.44677281  1
  Se  Se180  1  0.57372776  0.75660133  0.94613597  1
  Se  Se181  1  0.90991626  0.08859836  0.44611628  1
  Se  Se182  1  0.91994932  0.08172429  0.93751569  1
  Se  Se183  1  0.90940675  0.41970672  0.45435828  1
  Se  Se184  1  0.92379710  0.40776694  0.93605951  1
  Se  Se185  1  0.92112694  0.74179716  0.44911945  1
  Se  Se186  1  0.91022058  0.75106202  0.94472218  1
  Se  Se187  1  0.25107691  0.25111449  0.30385419  1
  Se  Se188  1  0.24585354  0.23774307  0.81177341  1
  Se  Se189  1  0.25516841  0.59008045  0.29643177  1
  Se  Se190  1  0.25251377  0.58237622  0.80085271  1
  Se  Se191  1  0.24868885  0.91519642  0.30410660  1
  Se  Se192  1  0.24219958  0.90415350  0.81557719  1
  Se  Se193  1  0.58738813  0.25143903  0.30310010  1
  Se  Se194  1  0.58368464  0.25635286  0.79760442  1
  Se  Se195  1  0.58516506  0.58137999  0.30634040  1
  Se  Se196  1  0.58289756  0.58967832  0.79694985  1
  Se  Se197  1  0.58537620  0.91786911  0.30040366  1
  Se  Se198  1  0.57812104  0.91530018  0.81128027  1
  Se  Se199  1  0.91256418  0.24773761  0.31254720  1
  Se  Se200  1  0.92033571  0.24666543  0.79827064  1
  Se  Se201  1  0.91173484  0.57588508  0.31610742  1
  Se  Se202  1  0.89803083  0.56914292  0.80371812  1
  Se  Se203  1  0.91840689  0.91710939  0.29848626  1
  Se  Se204  1  0.91471184  0.91648374  0.80249170  1
  Se  Se205  1  0.07913274  0.08708170  0.30366594  1
  Se  Se206  1  0.08211179  0.07292436  0.79760740  1
  Se  Se207  1  0.09209432  0.42322373  0.30650229  1
  Se  Se208  1  0.08762003  0.41464279  0.80508619  1
  Se  Se209  1  0.09251615  0.75929896  0.31551586  1
  Se  Se210  1  0.07911624  0.74493144  0.80214676  1
  Se  Se211  1  0.41571130  0.07783590  0.30483007  1
  Se  Se212  1  0.42997978  0.08792372  0.81070619  1
  Se  Se213  1  0.41685284  0.41484138  0.30042178  1
  Se  Se214  1  0.42233596  0.42573265  0.81290204  1
  Se  Se215  1  0.42069384  0.74766358  0.30321706  1
  Se  Se216  1  0.41395760  0.75002708  0.80206037  1
  Se  Se217  1  0.74979451  0.08359474  0.30142714  1
  Se  Se218  1  0.75518681  0.08950841  0.81023766  1
  Se  Se219  1  0.74776306  0.41342040  0.30931207  1
  Se  Se220  1  0.74120757  0.40688071  0.78876303  1
  Se  Se221  1  0.74714658  0.74601944  0.30028284  1
  Se  Se222  1  0.74249627  0.75711424  0.80786387  1
  Se  Se223  1  0.25237949  0.07811579  0.20331442  1
  Se  Se224  1  0.24915800  0.08595058  0.68926264  1
  Se  Se225  1  0.25445682  0.41419981  0.19470327  1
  Se  Se226  1  0.24441494  0.42177500  0.68535254  1
  Se  Se227  1  0.24991944  0.74925398  0.19411717  1
  Se  Se228  1  0.25259858  0.74954940  0.69712772  1
  Se  Se229  1  0.58519411  0.08270459  0.20063467  1
  Se  Se230  1  0.57201316  0.08593458  0.68790954  1
  Se  Se231  1  0.58602231  0.41236608  0.19960922  1
  Se  Se232  1  0.57392657  0.41497817  0.69563928  1
  Se  Se233  1  0.58830220  0.74737044  0.19571734  1
  Se  Se234  1  0.58496820  0.75117658  0.69742499  1
  Se  Se235  1  0.91963479  0.08453701  0.19753235  1
  Se  Se236  1  0.91808371  0.07661933  0.69584597  1
  Se  Se237  1  0.90965714  0.42758456  0.19244143  1
  Se  Se238  1  0.92363014  0.39635689  0.70145280  1
  Se  Se239  1  0.91058532  0.75374834  0.19078282  1
  Se  Se240  1  0.91626821  0.74448294  0.70068632  1
  Se  Se241  1  0.09444103  0.24471800  0.18408322  1
  Se  Se242  1  0.08290887  0.24936214  0.69871805  1
  Se  Se243  1  0.08502585  0.57902274  0.19147600  1
  Se  Se244  1  0.07951855  0.58474996  0.70027416  1
  Se  Se245  1  0.07952205  0.91618426  0.19789992  1
  Se  Se246  1  0.08413100  0.91421026  0.69748683  1
  Se  Se247  1  0.41900366  0.24854877  0.20208369  1
  Se  Se248  1  0.42002234  0.24138760  0.69386484  1
  Se  Se249  1  0.42128358  0.58519375  0.19485010  1
  Se  Se250  1  0.41138972  0.58820557  0.69545865  1
  Se  Se251  1  0.41730576  0.91829509  0.19906882  1
  Se  Se252  1  0.42238499  0.91504142  0.69034132  1
  Se  Se253  1  0.75135669  0.25477763  0.19860000  1
  Se  Se254  1  0.74500289  0.24046988  0.69268814  1
  Se  Se255  1  0.74650628  0.58521434  0.20190208  1
  Se  Se256  1  0.73894629  0.58203032  0.70258819  1
  Se  Se257  1  0.74735566  0.91839801  0.19584835  1
  Se  Se258  1  0.75708690  0.90897953  0.68530617  1
