# generated using pymatgen
data_In86Cu29Se144
_symmetry_space_group_name_H-M   'P 1'
_cell_length_a   17.59935024
_cell_length_b   17.60439009
_cell_length_c   23.46082365
_cell_angle_alpha   89.98422857
_cell_angle_beta   90.00278671
_cell_angle_gamma   89.98880007
_symmetry_Int_Tables_number   1
_chemical_formula_structural   In86Cu29Se144
_chemical_formula_sum   'In86 Cu29 Se144'
_cell_volume   7268.76866390
_cell_formula_units_Z   1
loop_
 _symmetry_equiv_pos_site_id
 _symmetry_equiv_pos_as_xyz
  1  'x, y, z'
loop_
 _atom_site_type_symbol
 _atom_site_label
 _atom_site_symmetry_multiplicity
 _atom_site_fract_x
 _atom_site_fract_y
 _atom_site_fract_z
 _atom_site_occupancy
  In  In0  1  -0.00918982  0.17136471  0.12825389  1
  In  In1  1  -0.02130174  0.16097417  0.62648983  1
  In  In2  1  -0.00120565  0.50024676  0.12031363  1
  In  In3  1  0.00386192  0.50596493  0.63212584  1
  In  In4  1  0.01413498  0.82840984  0.14151859  1
  In  In5  1  0.00514126  0.83623652  0.61792947  1
  In  In6  1  0.34139711  0.16511593  0.12573180  1
  In  In7  1  0.33597377  0.16412488  0.63129114  1
  In  In8  1  0.32883462  0.50133875  0.12358828  1
  In  In9  1  0.32073853  0.49710547  0.62959193  1
  In  In10  1  0.31319984  0.84624784  0.13785186  1
  In  In11  1  0.33378633  0.84370745  0.62316468  1
  In  In12  1  0.66470896  0.16691262  0.11818255  1
  In  In13  1  0.68887504  0.16736472  0.63729952  1
  In  In14  1  0.66525606  0.50080218  0.11292235  1
  In  In15  1  0.67014534  0.50612210  0.64008205  1
  In  In16  1  0.68300927  0.83699792  0.12836727  1
  In  In17  1  0.68328886  0.81309394  0.62702960  1
  In  In18  1  0.12940252  -0.05108910  0.32341906  1
  In  In19  1  0.15371806  -0.01492390  0.87174139  1
  In  In20  1  0.16102744  0.33185151  0.36075607  1
  In  In21  1  0.18261691  0.32935858  0.87959810  1
  In  In22  1  0.16136683  0.67026328  0.36965067  1
  In  In23  1  0.15493354  0.67784000  0.88360976  1
  In  In24  1  0.49067264  -0.00640200  0.36619550  1
  In  In25  1  0.50025950  0.01545098  0.87842643  1
  In  In26  1  0.49110902  0.33835307  0.37218214  1
  In  In27  1  0.49965061  0.33223695  0.87843564  1
  In  In28  1  0.49683045  0.68020627  0.37165252  1
  In  In29  1  0.50187689  0.65352881  0.87824889  1
  In  In30  1  0.83260179  0.00196943  0.37741218  1
  In  In31  1  0.85063890  0.00093181  0.87625106  1
  In  In32  1  0.83251477  0.32826891  0.37385252  1
  In  In33  1  0.82525919  0.33699063  0.87853895  1
  In  In34  1  0.84836857  0.66787882  0.37871147  1
  In  In35  1  0.82945053  0.64514562  0.85381146  1
  In  In36  1  -0.00556270  0.15726119  0.36955148  1
  In  In37  1  -0.00374414  0.14641864  0.87913291  1
  In  In38  1  0.00060196  0.51180510  0.35871326  1
  In  In39  1  -0.00893287  0.50976033  0.88401375  1
  In  In40  1  -0.00962817  0.82838958  0.38153539  1
  In  In41  1  0.00617239  0.83174059  0.87209658  1
  In  In42  1  0.31824023  0.15702498  0.36135356  1
  In  In43  1  0.33765243  0.17039755  0.87322691  1
  In  In44  1  0.32771815  0.49827549  0.36349426  1
  In  In45  1  0.34536077  0.49388092  0.88828137  1
  In  In46  1  0.30602333  0.81193884  0.34452478  1
  In  In47  1  0.31378755  0.82930013  0.87640366  1
  In  In48  1  0.68314273  0.16297015  0.38180809  1
  In  In49  1  0.66085555  0.17257042  0.88207451  1
  In  In50  1  0.67359864  0.48963197  0.37404427  1
  In  In51  1  0.67069828  0.49274288  0.87203315  1
  In  In52  1  0.66116586  0.84575390  0.37892739  1
  In  In53  1  0.68554221  0.83017086  0.86932314  1
  In  In54  1  0.16799234  -0.00203092  0.13078662  1
  In  In55  1  0.17422630  -0.00686412  0.62548006  1
  In  In56  1  0.15189595  0.34610388  0.12744506  1
  In  In57  1  0.16972139  0.33920982  0.63358499  1
  In  In58  1  0.16726226  0.67043241  0.12761112  1
  In  In59  1  0.15302343  0.67469662  0.62377173  1
  In  In60  1  0.49431891  0.01315796  0.12600553  1
  In  In61  1  0.49066867  -0.00586109  0.62647542  1
  In  In62  1  0.49648863  0.33194622  0.11741308  1
  In  In63  1  0.50151548  0.33702340  0.63588331  1
  In  In64  1  0.49595918  0.65122993  0.11973862  1
  In  In65  1  0.51044310  0.67190908  0.62736311  1
  In  In66  1  0.82887335  0.00655945  0.13490343  1
  In  In67  1  0.84735051  0.01180567  0.61926855  1
  In  In68  1  0.84261896  0.34346548  0.11465334  1
  In  In69  1  0.83287209  0.32303578  0.63238349  1
  In  In70  1  0.84653236  0.66605140  0.12724704  1
  In  In71  1  0.83052529  0.67421170  0.62516311  1
  In  In72  1  0.50497807  0.83714402  0.50350746  1
  In  In73  1  0.83616281  0.50738329  0.50332802  1
  In  In74  1  0.66708117  -0.00078094  0.75130699  1
  In  In75  1  0.67272830  0.33182896  0.25275475  1
  In  In76  1  0.00053656  0.32891094  0.75611385  1
  In  In77  1  0.49940354  0.50288749  0.51243271  1
  In  In78  1  0.49546573  0.83336802  0.00355079  1
  In  In79  1  0.84796224  0.83395243  0.00242836  1
  In  In80  1  0.16584984  0.16408187  0.00613868  1
  In  In81  1  0.16088459  0.15724406  0.49186405  1
  In  In82  1  0.33707519  0.66114684  0.75572575  1
  In  In83  1  0.66523768  0.66701844  0.24925248  1
  In  In84  1  0.50161191  0.16442415  0.50671105  1
  In  In85  1  0.16333975  0.50581840  0.48908959  1
  Cu  Cu86  1  0.66463266  0.33382111  -0.00330622  1
  Cu  Cu87  1  0.49657391  0.17007200  0.75544622  1
  Cu  Cu88  1  0.32890290  0.32164408  0.49776241  1
  Cu  Cu89  1  0.50739961  0.17084732  0.24371178  1
  Cu  Cu90  1  0.33070809  0.66887925  0.48928777  1
  Cu  Cu91  1  -0.00148770  0.66773915  0.00316509  1
  Cu  Cu92  1  0.49478006  0.49743304  0.24624446  1
  Cu  Cu93  1  0.16772968  0.16065601  0.75521146  1
  Cu  Cu94  1  0.83452001  0.83858485  0.25377262  1
  Cu  Cu95  1  0.16239922  0.50243575  0.24220757  1
  Cu  Cu96  1  0.50296292  0.49491369  0.75973788  1
  Cu  Cu97  1  0.67374491  0.00400049  0.50328289  1
  Cu  Cu98  1  0.49679417  0.83523184  0.24516458  1
  Cu  Cu99  1  0.32333936  -0.01534024  0.49102965  1
  Cu  Cu100  1  0.33622798  0.33797006  0.00115958  1
  Cu  Cu101  1  -0.00474605  0.33803085  0.50109855  1
  Cu  Cu102  1  0.67029125  0.66128716  -0.00750362  1
  Cu  Cu103  1  -0.00198431  0.33298993  0.00077370  1
  Cu  Cu104  1  0.16997778  0.17363642  0.24097031  1
  Cu  Cu105  1  0.83578708  0.16458747  0.25233180  1
  Cu  Cu106  1  0.67016261  0.00663666  0.00328910  1
  Cu  Cu107  1  0.84492455  0.82999150  0.74669139  1
  Cu  Cu108  1  0.16362991  0.83538693  0.74887983  1
  Cu  Cu109  1  0.32824841  0.00069270  0.00531484  1
  Cu  Cu110  1  -0.00032820  -0.00316438  0.49043894  1
  Cu  Cu111  1  0.49921107  0.83458432  0.74651823  1
  Cu  Cu112  1  0.17497319  0.49597106  0.75800443  1
  Cu  Cu113  1  0.32423901  0.67002219  0.00378847  1
  Cu  Cu114  1  0.67204187  0.33109236  0.50269609  1
  Se  Se115  1  0.07421050  0.07581669  0.06306907  1
  Se  Se116  1  0.07236866  0.07611982  0.55937506  1
  Se  Se117  1  0.08236539  0.42031790  0.04784230  1
  Se  Se118  1  0.08134648  0.41323622  0.55823651  1
  Se  Se119  1  0.07769689  0.75111409  0.05987073  1
  Se  Se120  1  0.09468695  0.76058563  0.54879107  1
  Se  Se121  1  0.41630861  0.08657259  0.04926227  1
  Se  Se122  1  0.40014178  0.06855804  0.55228795  1
  Se  Se123  1  0.41797356  0.42402713  0.05374988  1
  Se  Se124  1  0.40300581  0.40402455  0.55969857  1
  Se  Se125  1  0.40425293  0.75003115  0.06585046  1
  Se  Se126  1  0.41003311  0.73943790  0.55785065  1
  Se  Se127  1  0.75771788  0.08454420  0.05657603  1
  Se  Se128  1  0.75248602  0.09118645  0.55603710  1
  Se  Se129  1  0.74992623  0.41758011  0.04798909  1
  Se  Se130  1  0.74644079  0.41560679  0.56363524  1
  Se  Se131  1  0.74706996  0.74120686  0.05555906  1
  Se  Se132  1  0.76103241  0.75269494  0.54637426  1
  Se  Se133  1  0.25349722  0.26025040  0.06268236  1
  Se  Se134  1  0.24703573  0.24846867  0.55976241  1
  Se  Se135  1  0.24341111  0.58371196  0.05615946  1
  Se  Se136  1  0.25555169  0.58890621  0.55485015  1
  Se  Se137  1  0.24414851  0.91786262  0.05586946  1
  Se  Se138  1  0.24299450  0.90701079  0.55023233  1
  Se  Se139  1  0.58170312  0.25035905  0.05090433  1
  Se  Se140  1  0.59115307  0.25555062  0.56533115  1
  Se  Se141  1  0.58163379  0.58364557  0.04549084  1
  Se  Se142  1  0.60034848  0.59222893  0.55888584  1
  Se  Se143  1  0.59237691  0.92088707  0.06093921  1
  Se  Se144  1  0.59682537  0.92377059  0.56647399  1
  Se  Se145  1  0.91558827  0.24622748  0.05045285  1
  Se  Se146  1  0.91461599  0.25454849  0.55527084  1
  Se  Se147  1  0.91185397  0.58230487  0.05101376  1
  Se  Se148  1  0.93180484  0.59320223  0.55950443  1
  Se  Se149  1  0.92323663  0.91643779  0.07452187  1
  Se  Se150  1  0.91785445  0.92005309  0.55136317  1
  Se  Se151  1  0.07568310  0.26039106  0.43943419  1
  Se  Se152  1  0.07814091  0.25168308  0.94024578  1
  Se  Se153  1  0.06592108  0.59546025  0.44026354  1
  Se  Se154  1  0.08417281  0.58377413  0.95078314  1
  Se  Se155  1  0.08432849  0.92763812  0.42920472  1
  Se  Se156  1  0.07649566  0.91340677  0.94729526  1
  Se  Se157  1  0.40998738  0.24405838  0.43886748  1
  Se  Se158  1  0.41391230  0.24988139  0.94718022  1
  Se  Se159  1  0.41354903  0.58281997  0.43832788  1
  Se  Se160  1  0.41513690  0.59127873  0.95395540  1
  Se  Se161  1  0.41045910  0.90706650  0.43556994  1
  Se  Se162  1  0.40712040  0.92165405  0.94053619  1
  Se  Se163  1  0.75757277  0.25130791  0.45045528  1
  Se  Se164  1  0.75152558  0.24847677  0.94909642  1
  Se  Se165  1  0.74216123  0.58807607  0.43919915  1
  Se  Se166  1  0.75482341  0.58278704  0.93745179  1
  Se  Se167  1  0.75031492  0.91856773  0.44766932  1
  Se  Se168  1  0.74760489  0.92192490  0.94502274  1
  Se  Se169  1  0.24715453  0.06807758  0.43252075  1
  Se  Se170  1  0.25042532  0.07754907  0.93904071  1
  Se  Se171  1  0.25398893  0.40521879  0.43807176  1
  Se  Se172  1  0.24811732  0.41967290  0.95179079  1
  Se  Se173  1  0.25012055  0.75171370  0.43623844  1
  Se  Se174  1  0.24107597  0.75608907  0.95389723  1
  Se  Se175  1  0.58474080  0.07372140  0.44236940  1
  Se  Se176  1  0.58166833  0.08659265  0.95233500  1
  Se  Se177  1  0.58575112  0.40840960  0.44695095  1
  Se  Se178  1  0.58266928  0.41972155  0.94379434  1
  Se  Se179  1  0.59116700  0.74085153  0.44506037  1
  Se  Se180  1  0.59216601  0.75144330  0.93955923  1
  Se  Se181  1  0.91446172  0.08790504  0.44675290  1
  Se  Se182  1  0.91650839  0.07691879  0.95517686  1
  Se  Se183  1  0.92316342  0.41986314  0.43741080  1
  Se  Se184  1  0.91418059  0.41569949  0.94640354  1
  Se  Se185  1  0.90172628  0.75892755  0.45410777  1
  Se  Se186  1  0.91699286  0.73748130  0.93512722  1
  Se  Se187  1  0.25412056  0.25736229  0.29572418  1
  Se  Se188  1  0.25107948  0.24794153  0.80305614  1
  Se  Se189  1  0.24242028  0.58353436  0.30171671  1
  Se  Se190  1  0.24774310  0.57992467  0.82069443  1
  Se  Se191  1  0.27501580  0.94273129  0.30454143  1
  Se  Se192  1  0.24904606  0.91662434  0.80209130  1
  Se  Se193  1  0.58147931  0.24222289  0.31485405  1
  Se  Se194  1  0.58225931  0.25020490  0.80799969  1
  Se  Se195  1  0.57503426  0.57242852  0.31062310  1
  Se  Se196  1  0.58645391  0.58390696  0.80584976  1
  Se  Se197  1  0.58096356  0.91399226  0.30124882  1
  Se  Se198  1  0.57646846  0.91032122  0.81372205  1
  Se  Se199  1  0.91715465  0.25049810  0.30477637  1
  Se  Se200  1  0.91219584  0.24014973  0.81542964  1
  Se  Se201  1  0.90876088  0.59136440  0.29794042  1
  Se  Se202  1  0.94146015  0.58714022  0.79853464  1
  Se  Se203  1  0.91628117  0.91941526  0.30976603  1
  Se  Se204  1  0.92046684  0.91427669  0.80415458  1
  Se  Se205  1  0.09706554  0.09468937  0.30594810  1
  Se  Se206  1  0.08084990  0.07829841  0.80398640  1
  Se  Se207  1  0.07870039  0.41859591  0.29634009  1
  Se  Se208  1  0.09126812  0.41796482  0.81643140  1
  Se  Se209  1  0.08121232  0.76174574  0.30780594  1
  Se  Se210  1  0.08508834  0.74703268  0.80112204  1
  Se  Se211  1  0.42337301  0.09123101  0.30072129  1
  Se  Se212  1  0.41460369  0.08106747  0.80353130  1
  Se  Se213  1  0.41177284  0.41195159  0.29830233  1
  Se  Se214  1  0.41368415  0.41566023  0.80977808  1
  Se  Se215  1  0.41766001  0.74289812  0.29275794  1
  Se  Se216  1  0.42410284  0.75701157  0.81412980  1
  Se  Se217  1  0.74906582  0.08269119  0.30473499  1
  Se  Se218  1  0.75142402  0.08495756  0.81579808  1
  Se  Se219  1  0.76790930  0.42851414  0.30137636  1
  Se  Se220  1  0.75729119  0.41766154  0.80213245  1
  Se  Se221  1  0.75003400  0.75748168  0.31193327  1
  Se  Se222  1  0.75506056  0.74815002  0.79547836  1
  Se  Se223  1  0.25352671  0.08636289  0.19255512  1
  Se  Se224  1  0.24957379  0.08114249  0.69525101  1
  Se  Se225  1  0.24818708  0.41708615  0.19337542  1
  Se  Se226  1  0.25644491  0.41126869  0.70521462  1
  Se  Se227  1  0.24670538  0.74840699  0.20178765  1
  Se  Se228  1  0.25084726  0.75274824  0.69301262  1
  Se  Se229  1  0.58931548  0.08532041  0.19237995  1
  Se  Se230  1  0.57386379  0.09063853  0.69032077  1
  Se  Se231  1  0.58269196  0.42087479  0.19049259  1
  Se  Se232  1  0.58705194  0.41645090  0.70241294  1
  Se  Se233  1  0.57674983  0.75459375  0.18388364  1
  Se  Se234  1  0.58731800  0.75161098  0.69935023  1
  Se  Se235  1  0.92211046  0.08149105  0.20140875  1
  Se  Se236  1  0.90880939  0.08459291  0.70291249  1
  Se  Se237  1  0.92361659  0.41091845  0.18939292  1
  Se  Se238  1  0.91452062  0.42137276  0.69490148  1
  Se  Se239  1  0.91405912  0.75219039  0.20053186  1
  Se  Se240  1  0.92579138  0.75086947  0.68851295  1
  Se  Se241  1  0.07865227  0.25334637  0.19375937  1
  Se  Se242  1  0.08781272  0.23806157  0.69047521  1
  Se  Se243  1  0.07735823  0.58578763  0.19105465  1
  Se  Se244  1  0.09930392  0.57772260  0.69723740  1
  Se  Se245  1  0.08785175  0.92222723  0.20569923  1
  Se  Se246  1  0.08325506  0.91821949  0.69235535  1
  Se  Se247  1  0.42183944  0.25346281  0.19301290  1
  Se  Se248  1  0.41417330  0.25147020  0.69816907  1
  Se  Se249  1  0.41295277  0.58322747  0.19498662  1
  Se  Se250  1  0.42725670  0.57270260  0.69135245  1
  Se  Se251  1  0.41754402  0.92248087  0.19237466  1
  Se  Se252  1  0.41153041  0.91791509  0.69978540  1
  Se  Se253  1  0.75882715  0.24570048  0.18883441  1
  Se  Se254  1  0.74730988  0.26028220  0.70814497  1
  Se  Se255  1  0.75080649  0.57711343  0.18761903  1
  Se  Se256  1  0.76171996  0.58765371  0.69803272  1
  Se  Se257  1  0.74735644  0.92098355  0.20397074  1
  Se  Se258  1  0.75977033  0.91336191  0.69015851  1
