# generated using pymatgen
data_In86Cu29Se144
_symmetry_space_group_name_H-M   'P 1'
_cell_length_a   17.58452565
_cell_length_b   17.58597861
_cell_length_c   23.44153705
_cell_angle_alpha   89.98715140
_cell_angle_beta   89.99306453
_cell_angle_gamma   89.99565909
_symmetry_Int_Tables_number   1
_chemical_formula_structural   In86Cu29Se144
_chemical_formula_sum   'In86 Cu29 Se144'
_cell_volume   7249.08625540
_cell_formula_units_Z   1
loop_
 _symmetry_equiv_pos_site_id
 _symmetry_equiv_pos_as_xyz
  1  'x, y, z'
loop_
 _atom_site_type_symbol
 _atom_site_label
 _atom_site_symmetry_multiplicity
 _atom_site_fract_x
 _atom_site_fract_y
 _atom_site_fract_z
 _atom_site_occupancy
  In  In0  1  -0.00450921  0.17328147  0.13371947  1
  In  In1  1  0.00801166  0.17009334  0.61403977  1
  In  In2  1  -0.02102049  0.48533758  0.13887965  1
  In  In3  1  -0.00644963  0.49934847  0.60513530  1
  In  In4  1  0.01254237  0.83861693  0.13348734  1
  In  In5  1  -0.00783578  0.84087719  0.62001951  1
  In  In6  1  0.32222562  0.17648127  0.12961697  1
  In  In7  1  0.33293848  0.17026394  0.62367573  1
  In  In8  1  0.35375532  0.48482520  0.14290284  1
  In  In9  1  0.33000984  0.50383731  0.62558481  1
  In  In10  1  0.33938702  0.82177352  0.13265609  1
  In  In11  1  0.33833140  0.84023142  0.63576437  1
  In  In12  1  0.67147853  0.15820579  0.13232227  1
  In  In13  1  0.67705837  0.19028919  0.60432389  1
  In  In14  1  0.64224002  0.51881601  0.16208547  1
  In  In15  1  0.66843470  0.48766840  0.61608981  1
  In  In16  1  0.65513185  0.84000511  0.12902088  1
  In  In17  1  0.66462603  0.82532337  0.61981074  1
  In  In18  1  0.18150697  0.01275841  0.36970921  1
  In  In19  1  0.17976214  0.00421696  0.87649739  1
  In  In20  1  0.16623368  0.33313364  0.37669436  1
  In  In21  1  0.16888546  0.32033145  0.87820844  1
  In  In22  1  0.15997909  0.64836703  0.37789736  1
  In  In23  1  0.17809933  0.64787721  0.87698611  1
  In  In24  1  0.51236104  0.01462713  0.36391146  1
  In  In25  1  0.48872366  -0.00349978  0.87947436  1
  In  In26  1  0.49454673  0.33231823  0.36314032  1
  In  In27  1  0.50671371  0.33754547  0.87136656  1
  In  In28  1  0.49914647  0.65033623  0.35901357  1
  In  In29  1  0.49079659  0.67064085  0.88642055  1
  In  In30  1  0.83267496  -0.00034565  0.37471805  1
  In  In31  1  0.84956295  0.00863346  0.87593693  1
  In  In32  1  0.83543433  0.32671508  0.37491739  1
  In  In33  1  0.81863681  0.33084657  0.87419877  1
  In  In34  1  0.83245112  0.67601453  0.38247205  1
  In  In35  1  0.83511616  0.66189132  0.87131188  1
  In  In36  1  0.00289114  0.16439081  0.37643369  1
  In  In37  1  0.00174312  0.16795350  0.88276765  1
  In  In38  1  0.01185075  0.49731455  0.38609980  1
  In  In39  1  -0.00721394  0.50511221  0.87188772  1
  In  In40  1  -0.01929269  0.82997481  0.37827071  1
  In  In41  1  0.00306203  0.84214718  0.87718538  1
  In  In42  1  0.33357604  0.17033765  0.37496071  1
  In  In43  1  0.32582039  0.16033264  0.86656815  1
  In  In44  1  0.32908519  0.48965723  0.36299208  1
  In  In45  1  0.34342863  0.50980849  0.86708050  1
  In  In46  1  0.34159513  0.83916439  0.36918243  1
  In  In47  1  0.34483476  0.83635473  0.86729443  1
  In  In48  1  0.66970428  0.16828716  0.37584476  1
  In  In49  1  0.66659963  0.18403270  0.87694565  1
  In  In50  1  0.67415741  0.50121736  0.35693805  1
  In  In51  1  0.66497985  0.48004362  0.87210020  1
  In  In52  1  0.67276788  0.83899797  0.36895012  1
  In  In53  1  0.66212966  0.81761569  0.88120982  1
  In  In54  1  0.15278692  0.01205771  0.13677338  1
  In  In55  1  0.18030653  0.00923498  0.62147558  1
  In  In56  1  0.17333843  0.32434027  0.12942232  1
  In  In57  1  0.16999599  0.33375477  0.62014790  1
  In  In58  1  0.16956454  0.67965525  0.12828390  1
  In  In59  1  0.17784130  0.66466151  0.62220795  1
  In  In60  1  0.50792577  -0.01020925  0.12866487  1
  In  In61  1  0.48283437  0.01207697  0.63122417  1
  In  In62  1  0.49638678  0.33789112  0.13453618  1
  In  In63  1  0.50959076  0.32545483  0.62540502  1
  In  In64  1  0.49736910  0.66722820  0.12634296  1
  In  In65  1  0.49580776  0.66728896  0.62624593  1
  In  In66  1  0.82289357  0.01499006  0.13623945  1
  In  In67  1  0.83362088  0.00659475  0.61432352  1
  In  In68  1  0.83273136  0.33252825  0.13937282  1
  In  In69  1  0.83177474  0.33448078  0.61177606  1
  In  In70  1  0.81792614  0.64687484  0.13088283  1
  In  In71  1  0.82543507  0.65946791  0.60311738  1
  In  In72  1  0.17714083  0.84195571  -0.00423290  1
  In  In73  1  0.16039187  0.83058804  0.49863728  1
  In  In74  1  0.00238487  0.67000534  0.25016100  1
  In  In75  1  0.49578792  0.16603570  0.00066006  1
  In  In76  1  -0.00031067  0.66231033  0.75124792  1
  In  In77  1  0.00441693  0.33000569  0.73446218  1
  In  In78  1  0.82378843  0.84569201  0.01331058  1
  In  In79  1  0.00818187  0.00012326  0.75096712  1
  In  In80  1  0.82292988  0.48742731  0.00573828  1
  In  In81  1  0.50420161  0.83593216  0.49970509  1
  In  In82  1  0.50775703  0.49180298  0.48741467  1
  In  In83  1  0.65471049  0.65714724  0.73621203  1
  In  In84  1  0.17286674  0.49436820  0.01013927  1
  In  In85  1  0.65731613  0.00544091  0.75475388  1
  Cu  Cu86  1  0.65510678  0.65405731  0.00595128  1
  Cu  Cu87  1  0.66890423  0.00076240  0.00601737  1
  Cu  Cu88  1  -0.00172751  -0.00352663  0.49666270  1
  Cu  Cu89  1  0.33372354  0.33572514  0.49518935  1
  Cu  Cu90  1  0.00062339  0.32711321  0.49442429  1
  Cu  Cu91  1  0.16560223  0.17562205  0.25312857  1
  Cu  Cu92  1  0.32760463  0.66358281  0.49754695  1
  Cu  Cu93  1  0.50260188  0.82887654  0.25042942  1
  Cu  Cu94  1  0.33810122  0.33582169  0.00553737  1
  Cu  Cu95  1  0.34550716  0.66247915  0.00471856  1
  Cu  Cu96  1  0.82777126  0.83108104  0.25142515  1
  Cu  Cu97  1  0.16606521  0.49428422  0.74619477  1
  Cu  Cu98  1  -0.00584394  0.32637687  0.00729421  1
  Cu  Cu99  1  0.83332249  0.17449933  0.74286658  1
  Cu  Cu100  1  0.66813216  0.33356914  0.00567296  1
  Cu  Cu101  1  0.17351882  0.82626676  0.74958321  1
  Cu  Cu102  1  0.33018869  -0.00010410  0.00278708  1
  Cu  Cu103  1  0.49911493  0.49836145  0.74542292  1
  Cu  Cu104  1  0.49413753  0.16193182  0.24970935  1
  Cu  Cu105  1  0.50209918  0.17349706  0.74725250  1
  Cu  Cu106  1  0.82515797  0.82757159  0.73854718  1
  Cu  Cu107  1  0.66618619  0.00401558  0.49384010  1
  Cu  Cu108  1  -0.00486929  0.02205428  0.01041180  1
  Cu  Cu109  1  0.83460174  0.16214880  0.25828037  1
  Cu  Cu110  1  -0.00945484  0.66973296  0.00026024  1
  Cu  Cu111  1  0.33692382  0.00991648  0.49700080  1
  Cu  Cu112  1  0.17059255  0.84028307  0.25462976  1
  Cu  Cu113  1  0.66376384  0.66722082  0.48954227  1
  Cu  Cu114  1  0.16502279  0.49628545  0.25228239  1
  Se  Se115  1  0.08545588  0.09759884  0.06197559  1
  Se  Se116  1  0.08467469  0.07373070  0.55275732  1
  Se  Se117  1  0.06957568  0.41244003  0.06547044  1
  Se  Se118  1  0.08389832  0.40983185  0.54959174  1
  Se  Se119  1  0.07727526  0.75016272  0.05274381  1
  Se  Se120  1  0.07460321  0.74154732  0.56140065  1
  Se  Se121  1  0.40993901  0.07795021  0.06501389  1
  Se  Se122  1  0.41995136  0.09173293  0.55192263  1
  Se  Se123  1  0.42130885  0.41725542  0.05855893  1
  Se  Se124  1  0.41529244  0.41642646  0.55568550  1
  Se  Se125  1  0.42091057  0.75550449  0.05475879  1
  Se  Se126  1  0.40555375  0.74594383  0.55522756  1
  Se  Se127  1  0.75227349  0.08604469  0.05483769  1
  Se  Se128  1  0.75134950  0.08813408  0.54641411  1
  Se  Se129  1  0.73479119  0.41311902  0.07429456  1
  Se  Se130  1  0.75384237  0.42176500  0.54365019  1
  Se  Se131  1  0.74084740  0.73753338  0.06077436  1
  Se  Se132  1  0.74338268  0.75469897  0.54389022  1
  Se  Se133  1  0.24899244  0.25204088  0.05084632  1
  Se  Se134  1  0.25230408  0.25136231  0.55099537  1
  Se  Se135  1  0.25755685  0.59124232  0.06551096  1
  Se  Se136  1  0.24800044  0.57751972  0.54986923  1
  Se  Se137  1  0.25218637  0.92500062  0.06986178  1
  Se  Se138  1  0.26384725  0.91641072  0.55259376  1
  Se  Se139  1  0.58615656  0.25041925  0.06344345  1
  Se  Se140  1  0.57901274  0.26078113  0.54236961  1
  Se  Se141  1  0.58346370  0.57175893  0.06797925  1
  Se  Se142  1  0.58437650  0.59221742  0.55402953  1
  Se  Se143  1  0.58194576  0.91438886  0.05004919  1
  Se  Se144  1  0.58723510  0.93036441  0.56148269  1
  Se  Se145  1  0.90786906  0.25253015  0.06384305  1
  Se  Se146  1  0.91665374  0.24494525  0.54926786  1
  Se  Se147  1  0.91961020  0.58342097  0.06006634  1
  Se  Se148  1  0.91185160  0.58081245  0.53815641  1
  Se  Se149  1  0.92550538  0.92823874  0.06749125  1
  Se  Se150  1  0.91052786  0.91551566  0.54798178  1
  Se  Se151  1  0.08895541  0.24481023  0.44571472  1
  Se  Se152  1  0.08285592  0.25111304  0.95200113  1
  Se  Se153  1  0.08552087  0.58425429  0.45737552  1
  Se  Se154  1  0.07530449  0.58483133  0.94768147  1
  Se  Se155  1  0.08182073  0.92309677  0.43413467  1
  Se  Se156  1  0.07346754  0.93678832  0.94846536  1
  Se  Se157  1  0.41893544  0.25611049  0.44089165  1
  Se  Se158  1  0.40979559  0.25541361  0.93874874  1
  Se  Se159  1  0.40992776  0.58681462  0.43783118  1
  Se  Se160  1  0.41968884  0.57135019  0.95064660  1
  Se  Se161  1  0.41880775  0.92969302  0.43976701  1
  Se  Se162  1  0.40938346  0.91353059  0.94950401  1
  Se  Se163  1  0.76231338  0.23766133  0.44435975  1
  Se  Se164  1  0.75200084  0.25035704  0.95271449  1
  Se  Se165  1  0.74226770  0.58138068  0.43654410  1
  Se  Se166  1  0.74211734  0.58532366  0.94172732  1
  Se  Se167  1  0.74804998  0.91591786  0.44462857  1
  Se  Se168  1  0.74528775  0.92637758  0.93624877  1
  Se  Se169  1  0.24897937  0.09171039  0.44811194  1
  Se  Se170  1  0.25332477  0.08774366  0.94875750  1
  Se  Se171  1  0.25188348  0.42120450  0.44233490  1
  Se  Se172  1  0.25814497  0.41466744  0.94069953  1
  Se  Se173  1  0.25538393  0.74874746  0.43623181  1
  Se  Se174  1  0.26015131  0.73819148  0.94303778  1
  Se  Se175  1  0.58029474  0.08729513  0.44464206  1
  Se  Se176  1  0.59142727  0.07835468  0.94024516  1
  Se  Se177  1  0.59788147  0.40648061  0.42803268  1
  Se  Se178  1  0.58355004  0.41213920  0.94908796  1
  Se  Se179  1  0.57902056  0.74318377  0.43149520  1
  Se  Se180  1  0.57976028  0.74699541  0.95519086  1
  Se  Se181  1  0.91734077  0.08069019  0.44354365  1
  Se  Se182  1  0.90951896  0.09548964  0.95176677  1
  Se  Se183  1  0.91749824  0.41262867  0.44449261  1
  Se  Se184  1  0.92226240  0.40886466  0.94225859  1
  Se  Se185  1  0.91890278  0.74782803  0.45480738  1
  Se  Se186  1  0.91254817  0.75422346  0.94275469  1
  Se  Se187  1  0.25212250  0.25573301  0.30592442  1
  Se  Se188  1  0.25245783  0.25616449  0.80332920  1
  Se  Se189  1  0.24554928  0.58453708  0.30243976  1
  Se  Se190  1  0.25056264  0.58115127  0.79680647  1
  Se  Se191  1  0.25867481  0.92321042  0.30262198  1
  Se  Se192  1  0.24768176  0.91368533  0.80642943  1
  Se  Se193  1  0.58094626  0.24097312  0.30324106  1
  Se  Se194  1  0.58815913  0.25431602  0.80077276  1
  Se  Se195  1  0.58385203  0.57650775  0.28914090  1
  Se  Se196  1  0.57680812  0.57696973  0.81174754  1
  Se  Se197  1  0.58484672  0.91629641  0.30136187  1
  Se  Se198  1  0.57827961  0.90579730  0.81414837  1
  Se  Se199  1  0.92249792  0.24614581  0.30552152  1
  Se  Se200  1  0.91735881  0.24710346  0.80658517  1
  Se  Se201  1  0.92303980  0.58655536  0.31878698  1
  Se  Se202  1  0.89844976  0.56734315  0.79796386  1
  Se  Se203  1  0.91322166  0.91340480  0.30327953  1
  Se  Se204  1  0.90677791  0.90512342  0.80103475  1
  Se  Se205  1  0.08676759  0.08525516  0.30404200  1
  Se  Se206  1  0.09303886  0.09357384  0.80977116  1
  Se  Se207  1  0.08122870  0.41730353  0.30791131  1
  Se  Se208  1  0.08350396  0.42014604  0.80859539  1
  Se  Se209  1  0.08966976  0.75813423  0.31502260  1
  Se  Se210  1  0.09149980  0.75284888  0.81322758  1
  Se  Se211  1  0.40823687  0.08122209  0.30313003  1
  Se  Se212  1  0.42774728  0.08846371  0.80653439  1
  Se  Se213  1  0.43013570  0.43125163  0.29706713  1
  Se  Se214  1  0.41908543  0.41535715  0.80284562  1
  Se  Se215  1  0.41659951  0.74811992  0.30299737  1
  Se  Se216  1  0.41281099  0.73448398  0.80714693  1
  Se  Se217  1  0.74600740  0.07796500  0.30557825  1
  Se  Se218  1  0.76069413  0.09365969  0.80846103  1
  Se  Se219  1  0.77032280  0.41639993  0.29923009  1
  Se  Se220  1  0.75545851  0.41755416  0.80062300  1
  Se  Se221  1  0.74906738  0.74459582  0.30490836  1
  Se  Se222  1  0.74961222  0.74808987  0.80159044  1
  Se  Se223  1  0.24753586  0.08873215  0.19994199  1
  Se  Se224  1  0.26731440  0.07309535  0.69337678  1
  Se  Se225  1  0.24854585  0.41302710  0.19865145  1
  Se  Se226  1  0.25052172  0.41414385  0.69203759  1
  Se  Se227  1  0.24841286  0.75048792  0.20381319  1
  Se  Se228  1  0.25504678  0.74504326  0.69462684  1
  Se  Se229  1  0.58112908  0.07945552  0.19766130  1
  Se  Se230  1  0.58643121  0.09837104  0.68568240  1
  Se  Se231  1  0.59591268  0.39317177  0.20483128  1
  Se  Se232  1  0.58480165  0.41958459  0.69173227  1
  Se  Se233  1  0.58558819  0.74632521  0.19618044  1
  Se  Se234  1  0.56801111  0.76659529  0.69388103  1
  Se  Se235  1  0.92039268  0.08165915  0.20225569  1
  Se  Se236  1  0.91527126  0.08940532  0.68945833  1
  Se  Se237  1  0.89736421  0.42146216  0.21561118  1
  Se  Se238  1  0.91328120  0.42433776  0.68356291  1
  Se  Se239  1  0.90691330  0.75364737  0.18610480  1
  Se  Se240  1  0.90859801  0.74611003  0.68458672  1
  Se  Se241  1  0.08015963  0.25858529  0.20018428  1
  Se  Se242  1  0.09946381  0.23231237  0.69025644  1
  Se  Se243  1  0.08735696  0.57439421  0.18721384  1
  Se  Se244  1  0.08449930  0.57417487  0.68634436  1
  Se  Se245  1  0.08022262  0.92182581  0.20772735  1
  Se  Se246  1  0.09341080  0.90633048  0.68893278  1
  Se  Se247  1  0.41208821  0.24989952  0.19846448  1
  Se  Se248  1  0.41734413  0.25378137  0.69326035  1
  Se  Se249  1  0.40042049  0.60272753  0.19557055  1
  Se  Se250  1  0.41650100  0.58405743  0.69462896  1
  Se  Se251  1  0.41909849  0.91304253  0.19693237  1
  Se  Se252  1  0.42205243  0.91950617  0.70259810  1
  Se  Se253  1  0.75030837  0.24143969  0.20229179  1
  Se  Se254  1  0.75254698  0.25471778  0.68689662  1
  Se  Se255  1  0.75984915  0.57659369  0.21423589  1
  Se  Se256  1  0.75707968  0.57703247  0.68351923  1
  Se  Se257  1  0.74736836  0.91505749  0.19525380  1
  Se  Se258  1  0.74910944  0.91896512  0.68764268  1
