# generated using pymatgen
data_In86Cu29Se144
_symmetry_space_group_name_H-M   'P 1'
_cell_length_a   17.58218882
_cell_length_b   17.58021982
_cell_length_c   23.43779930
_cell_angle_alpha   90.02661611
_cell_angle_beta   90.00837821
_cell_angle_gamma   89.97859359
_symmetry_Int_Tables_number   1
_chemical_formula_structural   In86Cu29Se144
_chemical_formula_sum   'In86 Cu29 Se144'
_cell_volume   7244.59297118
_cell_formula_units_Z   1
loop_
 _symmetry_equiv_pos_site_id
 _symmetry_equiv_pos_as_xyz
  1  'x, y, z'
loop_
 _atom_site_type_symbol
 _atom_site_label
 _atom_site_symmetry_multiplicity
 _atom_site_fract_x
 _atom_site_fract_y
 _atom_site_fract_z
 _atom_site_occupancy
  In  In0  1  -0.01326137  0.16903685  0.12616983  1
  In  In1  1  -0.00404780  0.15828001  0.61349454  1
  In  In2  1  0.00915411  0.50673120  0.12831866  1
  In  In3  1  0.02451086  0.49737308  0.62189643  1
  In  In4  1  0.01191427  0.83462044  0.13696677  1
  In  In5  1  -0.00420099  0.84279489  0.62816781  1
  In  In6  1  0.34355607  0.15368496  0.12228648  1
  In  In7  1  0.32392948  0.15682801  0.62016220  1
  In  In8  1  0.34414630  0.50205213  0.12510207  1
  In  In9  1  0.34016137  0.50681101  0.62268385  1
  In  In10  1  0.31929480  0.83317786  0.12658167  1
  In  In11  1  0.33733324  0.82714771  0.62814687  1
  In  In12  1  0.66678365  0.16663189  0.13050770  1
  In  In13  1  0.66440519  0.16021270  0.62001373  1
  In  In14  1  0.65806312  0.50784606  0.13636530  1
  In  In15  1  0.65878251  0.50802156  0.61879514  1
  In  In16  1  0.66812161  0.83213344  0.13645578  1
  In  In17  1  0.67618211  0.84245823  0.61474857  1
  In  In18  1  0.16240904  0.00915420  0.37127794  1
  In  In19  1  0.15504895  -0.00897055  0.86428682  1
  In  In20  1  0.16666704  0.32622890  0.38819100  1
  In  In21  1  0.16561956  0.33063565  0.86812574  1
  In  In22  1  0.15769344  0.66573159  0.36744242  1
  In  In23  1  0.17855893  0.67456271  0.86612241  1
  In  In24  1  0.50644327  -0.00991333  0.38408695  1
  In  In25  1  0.51277291  0.00867355  0.86324709  1
  In  In26  1  0.51008943  0.32367660  0.38490330  1
  In  In27  1  0.49602163  0.33065396  0.88295131  1
  In  In28  1  0.49888313  0.66697072  0.37571306  1
  In  In29  1  0.48662076  0.66556295  0.87422806  1
  In  In30  1  0.83177007  -0.00005511  0.37805272  1
  In  In31  1  0.83953724  0.01443319  0.86341200  1
  In  In32  1  0.81953829  0.33120398  0.37441275  1
  In  In33  1  0.82051526  0.32420012  0.87415714  1
  In  In34  1  0.84124668  0.67656447  0.37146039  1
  In  In35  1  0.83925353  0.65895281  0.87123398  1
  In  In36  1  0.01386355  0.14840163  0.38806341  1
  In  In37  1  -0.00146491  0.14877996  0.86998808  1
  In  In38  1  0.00228277  0.51171932  0.37829103  1
  In  In39  1  0.00623651  0.50734322  0.86170631  1
  In  In40  1  -0.00642296  0.82353299  0.36987090  1
  In  In41  1  0.00769647  0.84362429  0.87096899  1
  In  In42  1  0.33002484  0.17012219  0.38528148  1
  In  In43  1  0.34549976  0.17068990  0.87062599  1
  In  In44  1  0.32258881  0.50825090  0.38373774  1
  In  In45  1  0.33830055  0.51213957  0.86764793  1
  In  In46  1  0.34556907  0.83764428  0.37631032  1
  In  In47  1  0.32579252  0.82129769  0.86812619  1
  In  In48  1  0.66658522  0.16422142  0.37708895  1
  In  In49  1  0.67127854  0.16026795  0.88188830  1
  In  In50  1  0.65766054  0.49115098  0.37096047  1
  In  In51  1  0.66239803  0.48652757  0.87511157  1
  In  In52  1  0.66661020  0.83541558  0.37438557  1
  In  In53  1  0.65455857  0.84236448  0.87391041  1
  In  In54  1  0.17382077  -0.01155229  0.12911933  1
  In  In55  1  0.15796257  0.01521275  0.64085062  1
  In  In56  1  0.15420826  0.33620619  0.12664849  1
  In  In57  1  0.15703238  0.33021516  0.60676386  1
  In  In58  1  0.15692074  0.68464577  0.14422156  1
  In  In59  1  0.17547427  0.65490923  0.63439448  1
  In  In60  1  0.50485940  0.01270736  0.12512306  1
  In  In61  1  0.49933998  0.00061492  0.62260605  1
  In  In62  1  0.50493515  0.33993203  0.12374185  1
  In  In63  1  0.50463632  0.33890074  0.61781418  1
  In  In64  1  0.50349502  0.66032608  0.13536904  1
  In  In65  1  0.48599899  0.66033423  0.61782594  1
  In  In66  1  0.82661520  0.00384460  0.13118282  1
  In  In67  1  0.83631791  0.00300968  0.62362853  1
  In  In68  1  0.83292222  0.31574060  0.12538601  1
  In  In69  1  0.84275981  0.30831475  0.61772398  1
  In  In70  1  0.83598286  0.66821689  0.13629105  1
  In  In71  1  0.83449371  0.68534679  0.62018183  1
  In  In72  1  -0.00023858  0.32857962  0.74164037  1
  In  In73  1  0.33530750  -0.00322029  0.25137215  1
  In  In74  1  0.17123762  0.16285500  -0.00111484  1
  In  In75  1  0.83215899  0.83754739  0.00461306  1
  In  In76  1  -0.00677845  0.33113109  0.25019068  1
  In  In77  1  0.66365776  0.67550842  0.75237731  1
  In  In78  1  0.83160466  0.50179644  0.49610249  1
  In  In79  1  0.32952381  0.33318905  0.74596368  1
  In  In80  1  0.49241368  0.83576746  0.00008669  1
  In  In81  1  0.82952818  0.49170855  -0.00046243  1
  In  In82  1  0.66625342  0.32977445  0.73744547  1
  In  In83  1  0.16871182  0.83503976  0.50535488  1
  In  In84  1  0.17708449  0.50636629  -0.00981177  1
  In  In85  1  0.33366258  0.33314962  0.26231591  1
  Cu  Cu86  1  0.83338849  0.83805835  0.25377848  1
  Cu  Cu87  1  0.33280025  0.00295681  0.50239373  1
  Cu  Cu88  1  -0.00415630  -0.00481983  0.50343889  1
  Cu  Cu89  1  0.50244605  0.83151687  0.25601901  1
  Cu  Cu90  1  0.33413417  -0.00482312  -0.00321898  1
  Cu  Cu91  1  0.00435426  0.67522407  0.00645800  1
  Cu  Cu92  1  0.16792121  0.50170000  0.25445876  1
  Cu  Cu93  1  0.50345520  0.16570208  0.74634151  1
  Cu  Cu94  1  0.33510184  0.66883367  0.50191732  1
  Cu  Cu95  1  0.16712356  0.83031182  0.74637491  1
  Cu  Cu96  1  0.82949527  0.16287005  0.25376814  1
  Cu  Cu97  1  0.66903717  0.00759443  0.00099025  1
  Cu  Cu98  1  0.83079773  0.50223582  0.25688698  1
  Cu  Cu99  1  0.66766446  0.32928934  0.49934799  1
  Cu  Cu100  1  0.00239123  -0.00100847  -0.00464304  1
  Cu  Cu101  1  -0.00767878  0.33161360  -0.00245587  1
  Cu  Cu102  1  0.34058112  0.32854822  0.00177078  1
  Cu  Cu103  1  0.83443568  0.84299357  0.74448471  1
  Cu  Cu104  1  0.00407251  0.66728876  0.49757339  1
  Cu  Cu105  1  0.33800172  0.33568965  0.50352301  1
  Cu  Cu106  1  0.32861210  0.66368882  -0.00218071  1
  Cu  Cu107  1  0.65860627  0.32653253  0.00346390  1
  Cu  Cu108  1  0.50403378  0.16724522  0.25487900  1
  Cu  Cu109  1  0.50059669  0.83618885  0.74484363  1
  Cu  Cu110  1  0.66021172  0.67243862  0.49654443  1
  Cu  Cu111  1  0.66787702  0.00271870  0.49919836  1
  Cu  Cu112  1  0.49973678  0.50141729  0.25367814  1
  Cu  Cu113  1  0.84033585  0.50463912  0.74139193  1
  Cu  Cu114  1  0.65698947  0.65786930  0.00833900  1
  Se  Se115  1  0.07895940  0.07896635  0.06063826  1
  Se  Se116  1  0.08913257  0.07331012  0.55273823  1
  Se  Se117  1  0.07574079  0.41618277  0.04971215  1
  Se  Se118  1  0.08039620  0.41991574  0.54027685  1
  Se  Se119  1  0.08696025  0.75463846  0.06142210  1
  Se  Se120  1  0.08062920  0.74310222  0.56458935  1
  Se  Se121  1  0.42023590  0.07751708  0.04769978  1
  Se  Se122  1  0.41933598  0.08675184  0.55285564  1
  Se  Se123  1  0.41804503  0.41763005  0.05390497  1
  Se  Se124  1  0.42087169  0.42330823  0.55220669  1
  Se  Se125  1  0.40936408  0.74163637  0.06105593  1
  Se  Se126  1  0.41777884  0.75718685  0.55044513  1
  Se  Se127  1  0.75101927  0.08663449  0.05847282  1
  Se  Se128  1  0.75401118  0.08464564  0.55200293  1
  Se  Se129  1  0.74021548  0.40875908  0.06379107  1
  Se  Se130  1  0.74743897  0.40900742  0.56165283  1
  Se  Se131  1  0.74189366  0.74008557  0.06082302  1
  Se  Se132  1  0.75052011  0.75259546  0.54516062  1
  Se  Se133  1  0.25567408  0.25741479  0.06352892  1
  Se  Se134  1  0.25262192  0.24679913  0.54958832  1
  Se  Se135  1  0.24818864  0.59102367  0.06522668  1
  Se  Se136  1  0.25071801  0.58555048  0.55446117  1
  Se  Se137  1  0.24937164  0.91581543  0.05075322  1
  Se  Se138  1  0.25297831  0.92684218  0.56646298  1
  Se  Se139  1  0.57858583  0.24339518  0.06000894  1
  Se  Se140  1  0.58328399  0.24809425  0.55366832  1
  Se  Se141  1  0.57418371  0.57583550  0.05974772  1
  Se  Se142  1  0.57891529  0.58690950  0.54860465  1
  Se  Se143  1  0.59301393  0.91848964  0.05823213  1
  Se  Se144  1  0.58216190  0.91939499  0.55119879  1
  Se  Se145  1  0.91246993  0.24496936  0.04848622  1
  Se  Se146  1  0.93401715  0.25547230  0.54324954  1
  Se  Se147  1  0.92043365  0.58924080  0.05748407  1
  Se  Se148  1  0.92124421  0.58851543  0.55922009  1
  Se  Se149  1  0.92539930  0.92396791  0.06277772  1
  Se  Se150  1  0.91108148  0.91117525  0.55342346  1
  Se  Se151  1  0.07787861  0.24857866  0.45274667  1
  Se  Se152  1  0.07726135  0.25342959  0.93941151  1
  Se  Se153  1  0.09134388  0.58591518  0.44749208  1
  Se  Se154  1  0.07583182  0.59391344  0.93981364  1
  Se  Se155  1  0.07767589  0.91754786  0.44075428  1
  Se  Se156  1  0.08876526  0.91571979  0.94659181  1
  Se  Se157  1  0.41902268  0.24796729  0.45137398  1
  Se  Se158  1  0.42023414  0.24036919  0.95055684  1
  Se  Se159  1  0.41738236  0.58474836  0.44709062  1
  Se  Se160  1  0.41496658  0.58065573  0.94791700  1
  Se  Se161  1  0.41604782  0.91584685  0.45307060  1
  Se  Se162  1  0.41321467  0.92125804  0.93075228  1
  Se  Se163  1  0.75131447  0.24536180  0.44825740  1
  Se  Se164  1  0.74833863  0.24871920  0.95118176  1
  Se  Se165  1  0.74187943  0.59108108  0.43581509  1
  Se  Se166  1  0.74024056  0.58872641  0.94198129  1
  Se  Se167  1  0.74854989  0.91543314  0.44613546  1
  Se  Se168  1  0.74562368  0.92466224  0.94001402  1
  Se  Se169  1  0.24613516  0.07920623  0.44632755  1
  Se  Se170  1  0.25635131  0.07615805  0.93422832  1
  Se  Se171  1  0.25012950  0.41540489  0.45049066  1
  Se  Se172  1  0.26214128  0.40409383  0.93676233  1
  Se  Se173  1  0.25393644  0.74692963  0.44017626  1
  Se  Se174  1  0.24733370  0.75033581  0.94633175  1
  Se  Se175  1  0.58123539  0.08579021  0.44769638  1
  Se  Se176  1  0.57850330  0.08189743  0.94653236  1
  Se  Se177  1  0.58514373  0.41853183  0.45078712  1
  Se  Se178  1  0.58146890  0.41516000  0.94942177  1
  Se  Se179  1  0.57788558  0.75652675  0.44295649  1
  Se  Se180  1  0.58681952  0.74202320  0.94363073  1
  Se  Se181  1  0.91288793  0.08061777  0.45076587  1
  Se  Se182  1  0.91487251  0.08089048  0.94567649  1
  Se  Se183  1  0.91985256  0.41181299  0.43647307  1
  Se  Se184  1  0.92324620  0.41348949  0.93126731  1
  Se  Se185  1  0.91763001  0.75124359  0.44885761  1
  Se  Se186  1  0.92013048  0.74653790  0.94282023  1
  Se  Se187  1  0.23757938  0.23921212  0.31020212  1
  Se  Se188  1  0.24133685  0.23649260  0.80310437  1
  Se  Se189  1  0.25283298  0.58507181  0.30518631  1
  Se  Se190  1  0.24059119  0.57264666  0.80207652  1
  Se  Se191  1  0.24404158  0.90906969  0.31060682  1
  Se  Se192  1  0.25020755  0.91302609  0.80173518  1
  Se  Se193  1  0.58694241  0.25235209  0.30700972  1
  Se  Se194  1  0.57953777  0.24877698  0.80822424  1
  Se  Se195  1  0.58423993  0.58605001  0.30558850  1
  Se  Se196  1  0.57932234  0.57759160  0.80957743  1
  Se  Se197  1  0.58334139  0.92061188  0.30498314  1
  Se  Se198  1  0.58815314  0.91848729  0.79465890  1
  Se  Se199  1  0.91188231  0.24087869  0.31425355  1
  Se  Se200  1  0.91056200  0.24405724  0.80722837  1
  Se  Se201  1  0.91909461  0.58434852  0.30508375  1
  Se  Se202  1  0.92028064  0.58912419  0.79544940  1
  Se  Se203  1  0.91645150  0.91977111  0.30795508  1
  Se  Se204  1  0.91918306  0.92001418  0.80294838  1
  Se  Se205  1  0.07509056  0.08225946  0.30185068  1
  Se  Se206  1  0.08694801  0.08664516  0.79796228  1
  Se  Se207  1  0.08884573  0.41667806  0.31161524  1
  Se  Se208  1  0.09552538  0.42292342  0.79693440  1
  Se  Se209  1  0.08312903  0.75296729  0.30024379  1
  Se  Se210  1  0.08225263  0.75131867  0.80420610  1
  Se  Se211  1  0.42094422  0.08880666  0.31432350  1
  Se  Se212  1  0.41766353  0.08388626  0.79902642  1
  Se  Se213  1  0.42442630  0.42309229  0.31935914  1
  Se  Se214  1  0.42560113  0.41772129  0.80674240  1
  Se  Se215  1  0.41536680  0.74924743  0.30481829  1
  Se  Se216  1  0.42032306  0.75061127  0.79955899  1
  Se  Se217  1  0.74623903  0.07946514  0.30738566  1
  Se  Se218  1  0.73436542  0.07909138  0.80430825  1
  Se  Se219  1  0.74606907  0.41420361  0.30170635  1
  Se  Se220  1  0.75962750  0.42413658  0.80034954  1
  Se  Se221  1  0.74967760  0.75165827  0.30471519  1
  Se  Se222  1  0.75977983  0.76385012  0.81180095  1
  Se  Se223  1  0.24711277  0.09291502  0.19355582  1
  Se  Se224  1  0.26192033  0.08101954  0.70134746  1
  Se  Se225  1  0.24451971  0.41978562  0.19289746  1
  Se  Se226  1  0.24272844  0.41503756  0.67930538  1
  Se  Se227  1  0.26047687  0.74971925  0.20412404  1
  Se  Se228  1  0.25465152  0.74676826  0.69798683  1
  Se  Se229  1  0.58549490  0.08179936  0.20108665  1
  Se  Se230  1  0.58496868  0.08164227  0.69282271  1
  Se  Se231  1  0.58059812  0.41440086  0.20085549  1
  Se  Se232  1  0.57415539  0.43143815  0.69348754  1
  Se  Se233  1  0.58496742  0.74699899  0.20135258  1
  Se  Se234  1  0.58030718  0.75658791  0.68273058  1
  Se  Se235  1  0.91470045  0.08404967  0.19834886  1
  Se  Se236  1  0.92441427  0.08210468  0.69035765  1
  Se  Se237  1  0.90632190  0.42554300  0.18782637  1
  Se  Se238  1  0.91046854  0.41984587  0.67943168  1
  Se  Se239  1  0.91826657  0.75473818  0.19967427  1
  Se  Se240  1  0.91594751  0.75353330  0.69634196  1
  Se  Se241  1  0.08860048  0.23938762  0.19453735  1
  Se  Se242  1  0.09135274  0.24143563  0.68348095  1
  Se  Se243  1  0.08008082  0.58450177  0.20379213  1
  Se  Se244  1  0.07141130  0.59142117  0.69693123  1
  Se  Se245  1  0.08098388  0.93173226  0.20146705  1
  Se  Se246  1  0.08091051  0.91685866  0.69975741  1
  Se  Se247  1  0.41988472  0.24495860  0.19532583  1
  Se  Se248  1  0.42451638  0.24731000  0.68662671  1
  Se  Se249  1  0.41265326  0.58247300  0.20204996  1
  Se  Se250  1  0.41567188  0.58766145  0.69633208  1
  Se  Se251  1  0.42762129  0.90982337  0.18809402  1
  Se  Se252  1  0.41582538  0.91932846  0.69311911  1
  Se  Se253  1  0.74889043  0.25046309  0.20104239  1
  Se  Se254  1  0.76243968  0.23319371  0.69336230  1
  Se  Se255  1  0.74927204  0.58618478  0.20091163  1
  Se  Se256  1  0.75375338  0.58566084  0.68768506  1
  Se  Se257  1  0.74737156  0.92023462  0.20135334  1
  Se  Se258  1  0.74760539  0.92103343  0.69164511  1
