# generated using pymatgen
data_In86Cu29Se144
_symmetry_space_group_name_H-M   'P 1'
_cell_length_a   17.54850071
_cell_length_b   17.54737054
_cell_length_c   23.40728791
_cell_angle_alpha   89.99629219
_cell_angle_beta   89.99264520
_cell_angle_gamma   90.00135740
_symmetry_Int_Tables_number   1
_chemical_formula_structural   In86Cu29Se144
_chemical_formula_sum   'In86 Cu29 Se144'
_cell_volume   7207.80712947
_cell_formula_units_Z   1
loop_
 _symmetry_equiv_pos_site_id
 _symmetry_equiv_pos_as_xyz
  1  'x, y, z'
loop_
 _atom_site_type_symbol
 _atom_site_label
 _atom_site_symmetry_multiplicity
 _atom_site_fract_x
 _atom_site_fract_y
 _atom_site_fract_z
 _atom_site_occupancy
  In  In0  1  0.01885180  0.17443804  0.12542761  1
  In  In1  1  0.00321891  0.16794578  0.62693196  1
  In  In2  1  -0.00901213  0.49826203  0.11908023  1
  In  In3  1  -0.01372053  0.51268958  0.63251735  1
  In  In4  1  0.00474682  0.81215557  0.12207239  1
  In  In5  1  0.00705666  0.83149818  0.62356461  1
  In  In6  1  0.33001571  0.16432847  0.13197677  1
  In  In7  1  0.31967575  0.16065493  0.62051584  1
  In  In8  1  0.33454574  0.50735597  0.12051627  1
  In  In9  1  0.34436805  0.50557883  0.62876591  1
  In  In10  1  0.34055556  0.83260976  0.12509864  1
  In  In11  1  0.32675688  0.84257107  0.63732670  1
  In  In12  1  0.66903438  0.16791345  0.12432985  1
  In  In13  1  0.68100925  0.15382550  0.63635027  1
  In  In14  1  0.67782061  0.51091129  0.12148779  1
  In  In15  1  0.67296310  0.49068663  0.63387854  1
  In  In16  1  0.62843552  0.82068067  0.11902799  1
  In  In17  1  0.67675261  0.83083387  0.62983429  1
  In  In18  1  0.17359662  -0.00737095  0.38342600  1
  In  In19  1  0.16096940  -0.01345265  0.86743903  1
  In  In20  1  0.15967460  0.33947211  0.36785929  1
  In  In21  1  0.16506181  0.34344264  0.87254883  1
  In  In22  1  0.17257754  0.66708248  0.37505032  1
  In  In23  1  0.16994170  0.67018984  0.87380421  1
  In  In24  1  0.49171234  -0.00479385  0.37271812  1
  In  In25  1  0.46988279  -0.03557877  0.83348353  1
  In  In26  1  0.49105844  0.35049804  0.36786171  1
  In  In27  1  0.50596351  0.33991176  0.87368574  1
  In  In28  1  0.49006589  0.65541053  0.35084997  1
  In  In29  1  0.47167132  0.69034887  0.90486175  1
  In  In30  1  0.83825737  -0.00434405  0.39072213  1
  In  In31  1  0.83258276  -0.00048812  0.86101726  1
  In  In32  1  0.84603976  0.32554309  0.38406569  1
  In  In33  1  0.83463255  0.34248423  0.86600387  1
  In  In34  1  0.82574109  0.67497290  0.38606950  1
  In  In35  1  0.83069190  0.65261661  0.87401137  1
  In  In36  1  -0.00283876  0.17669539  0.38718476  1
  In  In37  1  -0.00264365  0.16232271  0.86207586  1
  In  In38  1  0.01063654  0.48981664  0.37762150  1
  In  In39  1  -0.00136855  0.49677380  0.86861285  1
  In  In40  1  -0.00219557  0.83049858  0.39264343  1
  In  In41  1  0.01160079  0.84041141  0.86400456  1
  In  In42  1  0.32196390  0.15812934  0.37240566  1
  In  In43  1  0.35038837  0.15446700  0.87051430  1
  In  In44  1  0.32269280  0.50503277  0.34860118  1
  In  In45  1  0.30811830  0.52534696  0.90259247  1
  In  In46  1  0.32059565  0.81600498  0.35770011  1
  In  In47  1  0.32818634  0.82615458  0.87599383  1
  In  In48  1  0.67885393  0.17160140  0.38090298  1
  In  In49  1  0.64936777  0.17005015  0.85621968  1
  In  In50  1  0.66511652  0.50982746  0.37520451  1
  In  In51  1  0.67062432  0.50242116  0.88092194  1
  In  In52  1  0.66573724  0.83015925  0.37700309  1
  In  In53  1  0.64768058  0.83214459  0.86680468  1
  In  In54  1  0.18778727  -0.00375136  0.12480883  1
  In  In55  1  0.16270174  -0.00434881  0.62640819  1
  In  In56  1  0.15471745  0.35718893  0.14168891  1
  In  In57  1  0.17032649  0.31539029  0.62299269  1
  In  In58  1  0.18428101  0.67697520  0.10803756  1
  In  In59  1  0.15051555  0.68022343  0.63232119  1
  In  In60  1  0.48333740  -0.02089143  0.11731404  1
  In  In61  1  0.49921796  0.00190739  0.65031898  1
  In  In62  1  0.47874265  0.34045637  0.13312872  1
  In  In63  1  0.50931491  0.34663193  0.63554023  1
  In  In64  1  0.49745891  0.67093922  0.12790715  1
  In  In65  1  0.49494214  0.66742642  0.63824865  1
  In  In66  1  0.82651704  0.00016297  0.12742291  1
  In  In67  1  0.83882430  0.00174283  0.62700120  1
  In  In68  1  0.83068057  0.35326515  0.12882960  1
  In  In69  1  0.83799520  0.33522957  0.62432412  1
  In  In70  1  0.84024460  0.64965125  0.12715330  1
  In  In71  1  0.85408276  0.68543567  0.60189454  1
  In  In72  1  0.01115269  0.65398895  0.25339291  1
  In  In73  1  0.00310525  -0.00214534  0.26556265  1
  In  In74  1  0.50685889  0.16301501  0.50657053  1
  In  In75  1  0.66484036  0.33195422  0.25239624  1
  In  In76  1  0.16339102  0.50471549  0.49694819  1
  In  In77  1  0.33346380  0.33404162  0.75433279  1
  In  In78  1  0.65986157  -0.00817014  0.25530927  1
  In  In79  1  0.50681016  0.17299495  -0.00641115  1
  In  In80  1  0.50312934  0.83219265  0.50129963  1
  In  In81  1  0.66630645  0.66091014  0.75465404  1
  In  In82  1  0.83508995  0.17371514  -0.01547334  1
  In  In83  1  0.83451313  0.82306687  -0.00547895  1
  In  In84  1  0.50115734  0.50455738  0.49176917  1
  In  In85  1  0.16948729  0.16979381  -0.00529726  1
  Cu  Cu86  1  0.49221366  0.50875953  0.76428868  1
  Cu  Cu87  1  0.66361142  0.66153839  0.50067302  1
  Cu  Cu88  1  -0.00823820  0.34107061  -0.00086398  1
  Cu  Cu89  1  0.32659656  -0.00815844  0.50301943  1
  Cu  Cu90  1  0.33958595  -0.01197416  -0.00616343  1
  Cu  Cu91  1  0.32669444  0.34044787  0.00631512  1
  Cu  Cu92  1  0.01006925  0.65965792  -0.00536216  1
  Cu  Cu93  1  0.16398424  0.84067111  0.24762249  1
  Cu  Cu94  1  0.68183050  0.32808858  0.50578130  1
  Cu  Cu95  1  0.00498915  0.33537550  0.50399588  1
  Cu  Cu96  1  0.83199354  0.50293963  0.74722880  1
  Cu  Cu97  1  0.00861093  -0.01660759  -0.00420024  1
  Cu  Cu98  1  0.65903321  0.00229118  -0.01288294  1
  Cu  Cu99  1  0.33365834  0.33027295  0.49394044  1
  Cu  Cu100  1  0.16867500  0.17896834  0.25159383  1
  Cu  Cu101  1  0.17210948  0.82457508  0.74783680  1
  Cu  Cu102  1  0.84061880  0.49677698  0.25218721  1
  Cu  Cu103  1  0.83901902  0.83146159  0.74253431  1
  Cu  Cu104  1  0.81912413  0.82239368  0.25495472  1
  Cu  Cu105  1  0.66482615  0.66588013  0.00255272  1
  Cu  Cu106  1  0.66710365  0.34580065  0.00029099  1
  Cu  Cu107  1  0.83555240  0.17666987  0.74369410  1
  Cu  Cu108  1  0.84910938  0.16704663  0.25852108  1
  Cu  Cu109  1  0.16621279  0.50159843  0.75412277  1
  Cu  Cu110  1  0.67176767  -0.00415831  0.50900362  1
  Cu  Cu111  1  0.00320066  0.00495335  0.50858827  1
  Cu  Cu112  1  0.49789848  0.15498280  0.25081546  1
  Cu  Cu113  1  0.32783808  0.67429725  0.49656934  1
  Cu  Cu114  1  0.16823880  0.15729067  0.74702022  1
  Se  Se115  1  0.08227423  0.07265527  0.05540381  1
  Se  Se116  1  0.09028312  0.08845579  0.55800793  1
  Se  Se117  1  0.08131674  0.41505227  0.05533219  1
  Se  Se118  1  0.08278386  0.41604627  0.56619169  1
  Se  Se119  1  0.08700970  0.75250412  0.04357898  1
  Se  Se120  1  0.08535757  0.75005843  0.55081257  1
  Se  Se121  1  0.40921576  0.08260599  0.05199922  1
  Se  Se122  1  0.41636460  0.06598588  0.56174428  1
  Se  Se123  1  0.42045565  0.41967255  0.05178523  1
  Se  Se124  1  0.41523315  0.40928845  0.55571092  1
  Se  Se125  1  0.42750684  0.75886291  0.05522380  1
  Se  Se126  1  0.41082852  0.74406040  0.56191057  1
  Se  Se127  1  0.74354744  0.07929400  0.04824284  1
  Se  Se128  1  0.75467805  0.08467900  0.55617319  1
  Se  Se129  1  0.75702683  0.42438179  0.05065911  1
  Se  Se130  1  0.75415094  0.42298474  0.55670148  1
  Se  Se131  1  0.74754047  0.74498559  0.06541886  1
  Se  Se132  1  0.74199544  0.75404158  0.54962773  1
  Se  Se133  1  0.24857291  0.25538855  0.06456328  1
  Se  Se134  1  0.25114522  0.24637825  0.54582488  1
  Se  Se135  1  0.25403862  0.58050253  0.04406406  1
  Se  Se136  1  0.25710646  0.58847622  0.56012479  1
  Se  Se137  1  0.25393116  0.91117437  0.05088444  1
  Se  Se138  1  0.24604758  0.90817657  0.55864275  1
  Se  Se139  1  0.58903393  0.26372085  0.06168598  1
  Se  Se140  1  0.59262286  0.25783361  0.56593411  1
  Se  Se141  1  0.58215072  0.58480641  0.05880510  1
  Se  Se142  1  0.58372718  0.58739476  0.56524834  1
  Se  Se143  1  0.58051126  0.92024633  0.04571152  1
  Se  Se144  1  0.58311531  0.92547068  0.56798184  1
  Se  Se145  1  0.91829129  0.25405152  0.06019546  1
  Se  Se146  1  0.92115088  0.25071594  0.55671813  1
  Se  Se147  1  0.91748825  0.58467006  0.04683449  1
  Se  Se148  1  0.91493621  0.57339809  0.54830274  1
  Se  Se149  1  0.92060977  0.91657208  0.05939414  1
  Se  Se150  1  0.91974026  0.91780355  0.55840727  1
  Se  Se151  1  0.09212137  0.25946146  0.44693874  1
  Se  Se152  1  0.06820282  0.25505526  0.93935097  1
  Se  Se153  1  0.07164682  0.59909469  0.44259268  1
  Se  Se154  1  0.08675590  0.57544767  0.93674937  1
  Se  Se155  1  0.08349986  0.92008311  0.45251858  1
  Se  Se156  1  0.09408870  0.90293636  0.94460973  1
  Se  Se157  1  0.42072323  0.25107215  0.43841355  1
  Se  Se158  1  0.40329189  0.26076733  0.94197948  1
  Se  Se159  1  0.40278684  0.58896897  0.43401730  1
  Se  Se160  1  0.43158759  0.56521171  0.95322002  1
  Se  Se161  1  0.40388074  0.91211521  0.44010957  1
  Se  Se162  1  0.42434919  0.91675052  0.93281432  1
  Se  Se163  1  0.76322040  0.24220854  0.45357397  1
  Se  Se164  1  0.73367876  0.25915764  0.93337323  1
  Se  Se165  1  0.74925276  0.57800083  0.45003923  1
  Se  Se166  1  0.75238852  0.58441701  0.95215211  1
  Se  Se167  1  0.74505850  0.91055302  0.44924856  1
  Se  Se168  1  0.74833391  0.91967243  0.93631339  1
  Se  Se169  1  0.24973764  0.08375218  0.45166445  1
  Se  Se170  1  0.25816298  0.07355683  0.93793691  1
  Se  Se171  1  0.26194820  0.42117491  0.43641375  1
  Se  Se172  1  0.23529671  0.41440176  0.95316689  1
  Se  Se173  1  0.24555384  0.75852770  0.44376378  1
  Se  Se174  1  0.26063821  0.73544720  0.94668366  1
  Se  Se175  1  0.59311236  0.07021750  0.44108447  1
  Se  Se176  1  0.57652815  0.07741342  0.92655747  1
  Se  Se177  1  0.59520634  0.40228888  0.44267258  1
  Se  Se178  1  0.57929993  0.42306687  0.94695970  1
  Se  Se179  1  0.57702369  0.73213967  0.43719402  1
  Se  Se180  1  0.58947059  0.75762027  0.95135627  1
  Se  Se181  1  0.91881767  0.08664879  0.45371688  1
  Se  Se182  1  0.92756662  0.06915578  0.93927509  1
  Se  Se183  1  0.92290646  0.41793297  0.44914937  1
  Se  Se184  1  0.91052169  0.42116249  0.94131826  1
  Se  Se185  1  0.90623518  0.75506582  0.45559520  1
  Se  Se186  1  0.92980460  0.74173838  0.93315819  1
  Se  Se187  1  0.25542700  0.25752501  0.30708499  1
  Se  Se188  1  0.24349817  0.23713592  0.81244771  1
  Se  Se189  1  0.23424824  0.59447990  0.29296352  1
  Se  Se190  1  0.25299101  0.57930724  0.80807614  1
  Se  Se191  1  0.24672319  0.92275481  0.30304602  1
  Se  Se192  1  0.25284811  0.91109045  0.80163302  1
  Se  Se193  1  0.57578838  0.23709566  0.31270277  1
  Se  Se194  1  0.56803086  0.26072570  0.79424479  1
  Se  Se195  1  0.57424506  0.55782023  0.29878056  1
  Se  Se196  1  0.57275566  0.59094907  0.82356506  1
  Se  Se197  1  0.56599850  0.89744272  0.30649027  1
  Se  Se198  1  0.60755085  0.93795353  0.79874405  1
  Se  Se199  1  0.92851594  0.25540227  0.30759586  1
  Se  Se200  1  0.91913702  0.25680386  0.80029410  1
  Se  Se201  1  0.91114847  0.58004513  0.31704935  1
  Se  Se202  1  0.91713434  0.58476529  0.80061220  1
  Se  Se203  1  0.90365665  0.90275005  0.31271925  1
  Se  Se204  1  0.92082190  0.91679403  0.79738517  1
  Se  Se205  1  0.09328594  0.09553745  0.31627577  1
  Se  Se206  1  0.08258767  0.07474386  0.79992022  1
  Se  Se207  1  0.09692117  0.43711518  0.29932249  1
  Se  Se208  1  0.08035910  0.41187860  0.79823649  1
  Se  Se209  1  0.08212231  0.76498002  0.30968658  1
  Se  Se210  1  0.08428255  0.74375269  0.80008028  1
  Se  Se211  1  0.41032968  0.07748325  0.30517423  1
  Se  Se212  1  0.41916785  0.08923043  0.78861317  1
  Se  Se213  1  0.42044685  0.42533015  0.29189284  1
  Se  Se214  1  0.40521518  0.42999942  0.82132579  1
  Se  Se215  1  0.41259079  0.74825516  0.29008926  1
  Se  Se216  1  0.42380282  0.74905040  0.81155578  1
  Se  Se217  1  0.76205116  0.08307743  0.31010155  1
  Se  Se218  1  0.75370161  0.09457874  0.80050363  1
  Se  Se219  1  0.76032421  0.41591115  0.31376381  1
  Se  Se220  1  0.74432175  0.42553654  0.80240249  1
  Se  Se221  1  0.73894191  0.73811691  0.30846119  1
  Se  Se222  1  0.75999474  0.75835898  0.80974748  1
  Se  Se223  1  0.24539403  0.08471089  0.20166245  1
  Se  Se224  1  0.25289768  0.07482935  0.69496891  1
  Se  Se225  1  0.27800291  0.40065859  0.18805955  1
  Se  Se226  1  0.24366149  0.42173586  0.68900136  1
  Se  Se227  1  0.24255126  0.75791430  0.19001265  1
  Se  Se228  1  0.25632164  0.73823342  0.69725401  1
  Se  Se229  1  0.57673827  0.08087931  0.18573751  1
  Se  Se230  1  0.57760886  0.10134926  0.70399061  1
  Se  Se231  1  0.58515786  0.42095649  0.18701717  1
  Se  Se232  1  0.58072650  0.43064250  0.70929674  1
  Se  Se233  1  0.59183409  0.73637637  0.20190799  1
  Se  Se234  1  0.57886452  0.76142324  0.69952272  1
  Se  Se235  1  0.92115271  0.08561329  0.19267948  1
  Se  Se236  1  0.91927691  0.08673740  0.69630489  1
  Se  Se237  1  0.92535014  0.41613872  0.19938270  1
  Se  Se238  1  0.91724147  0.41550772  0.69806772  1
  Se  Se239  1  0.91197525  0.74958000  0.19841135  1
  Se  Se240  1  0.91918456  0.74554606  0.69014538  1
  Se  Se241  1  0.07819000  0.25886774  0.20327247  1
  Se  Se242  1  0.08766245  0.24835122  0.69896179  1
  Se  Se243  1  0.09091185  0.58689270  0.17529797  1
  Se  Se244  1  0.08207225  0.58318738  0.69887179  1
  Se  Se245  1  0.07965378  0.91588757  0.18737869  1
  Se  Se246  1  0.08562285  0.91067154  0.69795822  1
  Se  Se247  1  0.41573088  0.24293223  0.20110930  1
  Se  Se248  1  0.41380226  0.24900468  0.68369179  1
  Se  Se249  1  0.40142540  0.59815189  0.19337026  1
  Se  Se250  1  0.40988554  0.58772616  0.70669485  1
  Se  Se251  1  0.40388012  0.92631540  0.19868598  1
  Se  Se252  1  0.42270409  0.90380619  0.70796892  1
  Se  Se253  1  0.76435850  0.24200769  0.19504568  1
  Se  Se254  1  0.74770926  0.26113002  0.69463873  1
  Se  Se255  1  0.75599557  0.57990941  0.20130790  1
  Se  Se256  1  0.76192181  0.59204492  0.68500643  1
  Se  Se257  1  0.74633149  0.90270194  0.18905165  1
  Se  Se258  1  0.75358570  0.91986876  0.69636497  1
