# generated using pymatgen
data_In86Cu29Se144
_symmetry_space_group_name_H-M   'P 1'
_cell_length_a   17.59685521
_cell_length_b   17.58742267
_cell_length_c   23.44870430
_cell_angle_alpha   89.95126412
_cell_angle_beta   89.97958679
_cell_angle_gamma   89.98073190
_symmetry_Int_Tables_number   1
_chemical_formula_structural   In86Cu29Se144
_chemical_formula_sum   'In86 Cu29 Se144'
_cell_volume   7256.97960222
_cell_formula_units_Z   1
loop_
 _symmetry_equiv_pos_site_id
 _symmetry_equiv_pos_as_xyz
  1  'x, y, z'
loop_
 _atom_site_type_symbol
 _atom_site_label
 _atom_site_symmetry_multiplicity
 _atom_site_fract_x
 _atom_site_fract_y
 _atom_site_fract_z
 _atom_site_occupancy
  In  In0  1  -0.00064555  0.16510036  0.12690435  1
  In  In1  1  -0.00220838  0.16736214  0.62166979  1
  In  In2  1  -0.01416871  0.49696095  0.12102062  1
  In  In3  1  0.00165159  0.48398503  0.63527211  1
  In  In4  1  0.00836276  0.83372582  0.12961930  1
  In  In5  1  -0.00489974  0.83554206  0.62154919  1
  In  In6  1  0.32098824  0.15975870  0.12111842  1
  In  In7  1  0.33456456  0.17242632  0.61817803  1
  In  In8  1  0.34538417  0.50499843  0.13203424  1
  In  In9  1  0.31930992  0.49257296  0.61912550  1
  In  In10  1  0.33905182  0.82899870  0.13496153  1
  In  In11  1  0.32513148  0.84414893  0.62400041  1
  In  In12  1  0.66287130  0.14920575  0.11110713  1
  In  In13  1  0.65365144  0.15771528  0.61124083  1
  In  In14  1  0.67202826  0.48661848  0.12366891  1
  In  In15  1  0.66992305  0.51037722  0.62062617  1
  In  In16  1  0.66442690  0.87825985  0.12905281  1
  In  In17  1  0.67804043  0.83438537  0.62128786  1
  In  In18  1  0.16661870  0.00142274  0.37600764  1
  In  In19  1  0.16844758  0.01142030  0.87098175  1
  In  In20  1  0.15659341  0.34166664  0.37951411  1
  In  In21  1  0.15603945  0.32286257  0.86492859  1
  In  In22  1  0.16755011  0.66127021  0.38582476  1
  In  In23  1  0.15756960  0.67568288  0.86999456  1
  In  In24  1  0.51568256  0.01933228  0.36610794  1
  In  In25  1  0.51517398  -0.00831059  0.88922548  1
  In  In26  1  0.52108053  0.31647538  0.39558798  1
  In  In27  1  0.48644686  0.32617282  0.86856308  1
  In  In28  1  0.49035982  0.67031894  0.37705047  1
  In  In29  1  0.50947018  0.67165776  0.87607961  1
  In  In30  1  0.84416697  -0.00350998  0.37196186  1
  In  In31  1  0.83859698  0.00319511  0.87008483  1
  In  In32  1  0.83555207  0.30674169  0.38115996  1
  In  In33  1  0.83790604  0.32384841  0.87465851  1
  In  In34  1  0.84642148  0.68053002  0.38171563  1
  In  In35  1  0.83036312  0.65865497  0.87308386  1
  In  In36  1  0.00300011  0.16676968  0.37310621  1
  In  In37  1  0.00021795  0.16488074  0.87096488  1
  In  In38  1  0.01398403  0.50558731  0.37751608  1
  In  In39  1  -0.02302229  0.48130603  0.85045874  1
  In  In40  1  -0.01714055  0.84860015  0.39534050  1
  In  In41  1  -0.00156186  0.83305745  0.86189544  1
  In  In42  1  0.34245031  0.15809676  0.37755898  1
  In  In43  1  0.32804530  0.16552710  0.87900448  1
  In  In44  1  0.32889920  0.50371243  0.37944695  1
  In  In45  1  0.34534809  0.49253645  0.87030579  1
  In  In46  1  0.33011288  0.83000279  0.36995437  1
  In  In47  1  0.33600195  0.84538746  0.87474223  1
  In  In48  1  0.70740624  0.12386329  0.42832663  1
  In  In49  1  0.67956966  0.15335806  0.88452406  1
  In  In50  1  0.67007004  0.47112061  0.38739683  1
  In  In51  1  0.67072099  0.50946159  0.87612087  1
  In  In52  1  0.67843790  0.85479863  0.37144410  1
  In  In53  1  0.65068432  0.84478553  0.87872066  1
  In  In54  1  0.15711364  0.00919530  0.13519606  1
  In  In55  1  0.15442733  -0.01180698  0.61178569  1
  In  In56  1  0.16860333  0.31706613  0.12549431  1
  In  In57  1  0.16516320  0.33013312  0.62342832  1
  In  In58  1  0.16986602  0.67881180  0.13017942  1
  In  In59  1  0.14147397  0.65242301  0.60300455  1
  In  In60  1  0.49787242  0.00144463  0.12454999  1
  In  In61  1  0.49926936  0.00458835  0.62479585  1
  In  In62  1  0.51363632  0.32874985  0.12431612  1
  In  In63  1  0.48718518  0.31750549  0.61727912  1
  In  In64  1  0.48894977  0.66913087  0.13421910  1
  In  In65  1  0.51408471  0.66649144  0.62355703  1
  In  In66  1  0.82159158  0.01452522  0.14005106  1
  In  In67  1  0.82919823  0.00854355  0.61941855  1
  In  In68  1  0.83872967  0.32994330  0.12113225  1
  In  In69  1  0.84686536  0.33197425  0.62731562  1
  In  In70  1  0.84045848  0.66393385  0.11988137  1
  In  In71  1  0.82817899  0.67400371  0.62479131  1
  In  In72  1  0.67262671  0.67318683  0.74743028  1
  In  In73  1  0.82788400  0.83939056  0.00695928  1
  In  In74  1  0.83533911  0.49919111  0.50342488  1
  In  In75  1  0.16254340  0.49946323  -0.00495165  1
  In  In76  1  0.66903961  0.33124202  0.74656031  1
  In  In77  1  0.33184334  0.33485537  0.25501182  1
  In  In78  1  0.00907932  0.67310391  0.25639866  1
  In  In79  1  0.66166359  0.66852329  0.25789236  1
  In  In80  1  0.16911303  0.84016587  0.00305299  1
  In  In81  1  0.33275884  0.00613367  0.74520550  1
  In  In82  1  0.50746755  0.49495468  -0.00139385  1
  In  In83  1  0.32818914  0.66805186  0.75134676  1
  In  In84  1  0.49887089  0.83782700  0.49856613  1
  In  In85  1  0.66884685  0.32184364  0.25527214  1
  Cu  Cu86  1  0.49437793  0.50157772  0.26149609  1
  Cu  Cu87  1  0.50231640  0.84164510  0.25268526  1
  Cu  Cu88  1  0.83913102  0.49645850  0.24581550  1
  Cu  Cu89  1  -0.00069510  0.32744036  -0.00757041  1
  Cu  Cu90  1  0.83352043  0.16366940  0.74946906  1
  Cu  Cu91  1  0.33167163  0.32620987  -0.00275815  1
  Cu  Cu92  1  0.16692333  0.49665270  0.74033688  1
  Cu  Cu93  1  0.33657710  0.67220942  0.00760104  1
  Cu  Cu94  1  0.50166869  0.16323323  0.74660772  1
  Cu  Cu95  1  0.16083391  0.16739437  0.74557449  1
  Cu  Cu96  1  0.00085623  0.00670510  0.00029853  1
  Cu  Cu97  1  0.33245834  0.66629433  0.49819150  1
  Cu  Cu98  1  0.32634581  0.33562436  0.49701500  1
  Cu  Cu99  1  0.83219689  0.84332698  0.74437693  1
  Cu  Cu100  1  0.49993818  0.16398278  0.24766236  1
  Cu  Cu101  1  -0.00736819  0.65915734  -0.00712411  1
  Cu  Cu102  1  0.67530675  0.32807565  -0.00081017  1
  Cu  Cu103  1  0.83274246  0.16241144  0.25621754  1
  Cu  Cu104  1  -0.00312655  0.00776277  0.50008167  1
  Cu  Cu105  1  0.66823402  0.67043517  0.00076474  1
  Cu  Cu106  1  0.33339342  0.00376175  0.49697754  1
  Cu  Cu107  1  0.15929974  0.83018322  0.73785555  1
  Cu  Cu108  1  0.16988144  0.83804160  0.25569136  1
  Cu  Cu109  1  0.49486557  0.49221285  0.74245569  1
  Cu  Cu110  1  0.16676323  0.50518739  0.25709405  1
  Cu  Cu111  1  0.00311140  0.33005491  0.50275159  1
  Cu  Cu112  1  0.33832618  0.00346760  0.00236828  1
  Cu  Cu113  1  0.16120184  0.16445481  0.25120602  1
  Cu  Cu114  1  0.66864409  0.67005259  0.49857681  1
  Se  Se115  1  0.08612259  0.08490330  0.05653860  1
  Se  Se116  1  0.08402581  0.08974553  0.55089860  1
  Se  Se117  1  0.07775167  0.40659904  0.05692808  1
  Se  Se118  1  0.08161368  0.41705828  0.55631164  1
  Se  Se119  1  0.07452788  0.73846630  0.05276672  1
  Se  Se120  1  0.09706218  0.77467636  0.55473178  1
  Se  Se121  1  0.41755589  0.09008786  0.05610652  1
  Se  Se122  1  0.41660437  0.08226325  0.55421884  1
  Se  Se123  1  0.40986567  0.40757052  0.05859474  1
  Se  Se124  1  0.41073610  0.41443384  0.55448976  1
  Se  Se125  1  0.41975977  0.75358146  0.05949372  1
  Se  Se126  1  0.41127922  0.74489526  0.56118921  1
  Se  Se127  1  0.76099820  0.07435804  0.05187568  1
  Se  Se128  1  0.75352926  0.09120801  0.54601574  1
  Se  Se129  1  0.75535918  0.41472843  0.05187544  1
  Se  Se130  1  0.74569426  0.40773438  0.56131559  1
  Se  Se131  1  0.73763006  0.75000576  0.06828045  1
  Se  Se132  1  0.75420511  0.75262882  0.54869104  1
  Se  Se133  1  0.24538692  0.24544923  0.04919777  1
  Se  Se134  1  0.24529023  0.24938432  0.55089777  1
  Se  Se135  1  0.25454908  0.58724612  0.06064394  1
  Se  Se136  1  0.24769620  0.58075701  0.54825567  1
  Se  Se137  1  0.25735638  0.92531453  0.06583742  1
  Se  Se138  1  0.25110167  0.91569412  0.54610803  1
  Se  Se139  1  0.58628381  0.24919397  0.05095894  1
  Se  Se140  1  0.58312997  0.25508691  0.54943200  1
  Se  Se141  1  0.58834267  0.58870969  0.06402747  1
  Se  Se142  1  0.58498015  0.58558196  0.54859593  1
  Se  Se143  1  0.57424664  0.91823480  0.05137065  1
  Se  Se144  1  0.59224980  0.92501063  0.55560382  1
  Se  Se145  1  0.92060019  0.24638175  0.05316504  1
  Se  Se146  1  0.91313780  0.24873785  0.55059830  1
  Se  Se147  1  0.91047730  0.57750421  0.04719466  1
  Se  Se148  1  0.92205070  0.58318707  0.56713261  1
  Se  Se149  1  0.92764687  0.92281978  0.06240693  1
  Se  Se150  1  0.91380771  0.92296891  0.55354389  1
  Se  Se151  1  0.08398268  0.24799377  0.44561173  1
  Se  Se152  1  0.08577202  0.24472663  0.94224247  1
  Se  Se153  1  0.07625712  0.58830758  0.45358393  1
  Se  Se154  1  0.07296383  0.58292473  0.93166018  1
  Se  Se155  1  0.08538358  0.92445783  0.45038884  1
  Se  Se156  1  0.07568770  0.92080605  0.93922272  1
  Se  Se157  1  0.41126097  0.24844201  0.44865469  1
  Se  Se158  1  0.41842258  0.24588994  0.94561307  1
  Se  Se159  1  0.41784155  0.58352879  0.44734484  1
  Se  Se160  1  0.41140719  0.58998705  0.94375574  1
  Se  Se161  1  0.41416657  0.92569351  0.43464066  1
  Se  Se162  1  0.41584071  0.91450886  0.94998198  1
  Se  Se163  1  0.71621245  0.27257416  0.43674913  1
  Se  Se164  1  0.75991873  0.24472740  0.94760323  1
  Se  Se165  1  0.74701428  0.58786714  0.43713219  1
  Se  Se166  1  0.75030500  0.58538079  0.94955607  1
  Se  Se167  1  0.76223676  0.91762356  0.44611124  1
  Se  Se168  1  0.74458769  0.92743733  0.94237703  1
  Se  Se169  1  0.24826597  0.08711303  0.44506874  1
  Se  Se170  1  0.24848537  0.07888075  0.94813113  1
  Se  Se171  1  0.24349679  0.42178179  0.44633144  1
  Se  Se172  1  0.25559075  0.40950050  0.93706404  1
  Se  Se173  1  0.25366086  0.75363380  0.44560499  1
  Se  Se174  1  0.25628631  0.74419065  0.94187741  1
  Se  Se175  1  0.56973454  0.08459736  0.45438176  1
  Se  Se176  1  0.57246465  0.10015002  0.94799731  1
  Se  Se177  1  0.56645799  0.43039388  0.45670520  1
  Se  Se178  1  0.59254750  0.40365709  0.93553428  1
  Se  Se179  1  0.59297913  0.75202329  0.43570624  1
  Se  Se180  1  0.58209572  0.75209963  0.94978236  1
  Se  Se181  1  0.91622233  0.08922278  0.44275593  1
  Se  Se182  1  0.91780928  0.08368097  0.94216229  1
  Se  Se183  1  0.92225404  0.40900969  0.43931051  1
  Se  Se184  1  0.91995670  0.41517190  0.93958568  1
  Se  Se185  1  0.93706007  0.73389376  0.45598903  1
  Se  Se186  1  0.91838158  0.75320438  0.94050662  1
  Se  Se187  1  0.24129299  0.24471106  0.31292222  1
  Se  Se188  1  0.24920611  0.24138848  0.80317198  1
  Se  Se189  1  0.24901346  0.58791943  0.30908350  1
  Se  Se190  1  0.24026698  0.57172839  0.81034505  1
  Se  Se191  1  0.25402673  0.92373142  0.30526471  1
  Se  Se192  1  0.23912867  0.90790916  0.80140323  1
  Se  Se193  1  0.57943947  0.23442895  0.31312758  1
  Se  Se194  1  0.58252608  0.24103470  0.80918419  1
  Se  Se195  1  0.58467355  0.57032805  0.32087936  1
  Se  Se196  1  0.57392624  0.57501074  0.80209680  1
  Se  Se197  1  0.58979018  0.92505438  0.30060814  1
  Se  Se198  1  0.57874604  0.92391107  0.80445020  1
  Se  Se199  1  0.91927002  0.25000318  0.30182740  1
  Se  Se200  1  0.91765768  0.24783938  0.80065558  1
  Se  Se201  1  0.91160019  0.57908565  0.30920578  1
  Se  Se202  1  0.92501209  0.60179436  0.80237089  1
  Se  Se203  1  0.92133823  0.90504009  0.30629142  1
  Se  Se204  1  0.91912110  0.92299669  0.79835034  1
  Se  Se205  1  0.08045329  0.07845423  0.30441512  1
  Se  Se206  1  0.08130062  0.08076661  0.79963735  1
  Se  Se207  1  0.08056106  0.41893247  0.30268601  1
  Se  Se208  1  0.08478094  0.41303798  0.79546591  1
  Se  Se209  1  0.09094162  0.76208624  0.31990059  1
  Se  Se210  1  0.07891013  0.74681960  0.79428775  1
  Se  Se211  1  0.41387998  0.08146189  0.29933306  1
  Se  Se212  1  0.42253252  0.08542738  0.81096163  1
  Se  Se213  1  0.42447256  0.41202317  0.32020288  1
  Se  Se214  1  0.41233288  0.40906988  0.79492189  1
  Se  Se215  1  0.42124871  0.75267567  0.30197152  1
  Se  Se216  1  0.42299232  0.75712189  0.80791225  1
  Se  Se217  1  0.75021291  0.09417964  0.32272349  1
  Se  Se218  1  0.74828123  0.08199244  0.80254740  1
  Se  Se219  1  0.76310785  0.41648034  0.30885116  1
  Se  Se220  1  0.75388533  0.42259579  0.80934607  1
  Se  Se221  1  0.76101258  0.75634136  0.30830377  1
  Se  Se222  1  0.75530721  0.76598737  0.81202967  1
  Se  Se223  1  0.25115061  0.08488226  0.20056980  1
  Se  Se224  1  0.23825579  0.08610968  0.68294922  1
  Se  Se225  1  0.24195019  0.42477713  0.19073086  1
  Se  Se226  1  0.25187562  0.40925277  0.69465435  1
  Se  Se227  1  0.25109955  0.74975372  0.20372564  1
  Se  Se228  1  0.24048961  0.74657222  0.68249125  1
  Se  Se229  1  0.58584898  0.08440600  0.19240237  1
  Se  Se230  1  0.58606323  0.08323786  0.69306853  1
  Se  Se231  1  0.57629639  0.42443899  0.19975914  1
  Se  Se232  1  0.57978286  0.41882291  0.68328973  1
  Se  Se233  1  0.58288803  0.76033584  0.19097623  1
  Se  Se234  1  0.57822986  0.76416831  0.69307814  1
  Se  Se235  1  0.92165090  0.08402112  0.20160482  1
  Se  Se236  1  0.91531995  0.08381765  0.69082242  1
  Se  Se237  1  0.91931643  0.40986848  0.19454296  1
  Se  Se238  1  0.91022333  0.41418067  0.70394943  1
  Se  Se239  1  0.91174363  0.75217988  0.19279272  1
  Se  Se240  1  0.91156425  0.75498609  0.69312789  1
  Se  Se241  1  0.08101903  0.25050630  0.19766064  1
  Se  Se242  1  0.07793781  0.25152422  0.69269276  1
  Se  Se243  1  0.08671683  0.57683233  0.18782832  1
  Se  Se244  1  0.08450308  0.58425610  0.69170059  1
  Se  Se245  1  0.08288566  0.91609893  0.20150639  1
  Se  Se246  1  0.07755155  0.92133214  0.69180494  1
  Se  Se247  1  0.42131703  0.24807302  0.18984219  1
  Se  Se248  1  0.41347835  0.24439532  0.69626484  1
  Se  Se249  1  0.41414356  0.58612528  0.20785056  1
  Se  Se250  1  0.41915124  0.58159623  0.68695504  1
  Se  Se251  1  0.41687981  0.92190445  0.19787992  1
  Se  Se252  1  0.42369679  0.90754189  0.69355870  1
  Se  Se253  1  0.75390573  0.23722443  0.18821875  1
  Se  Se254  1  0.75177673  0.23737062  0.68503568  1
  Se  Se255  1  0.75309657  0.57781565  0.19285032  1
  Se  Se256  1  0.76112617  0.57396453  0.69650756  1
  Se  Se257  1  0.76278052  0.91003177  0.20382482  1
  Se  Se258  1  0.74831245  0.92423656  0.69085360  1
