# generated using pymatgen
data_In86Cu29Se144
_symmetry_space_group_name_H-M   'P 1'
_cell_length_a   17.58146192
_cell_length_b   17.58254266
_cell_length_c   23.43976639
_cell_angle_alpha   89.98866781
_cell_angle_beta   89.97987653
_cell_angle_gamma   89.98152314
_symmetry_Int_Tables_number   1
_chemical_formula_structural   In86Cu29Se144
_chemical_formula_sum   'In86 Cu29 Se144'
_cell_volume   7245.85910989
_cell_formula_units_Z   1
loop_
 _symmetry_equiv_pos_site_id
 _symmetry_equiv_pos_as_xyz
  1  'x, y, z'
loop_
 _atom_site_type_symbol
 _atom_site_label
 _atom_site_symmetry_multiplicity
 _atom_site_fract_x
 _atom_site_fract_y
 _atom_site_fract_z
 _atom_site_occupancy
  In  In0  1  0.00754558  0.17111342  0.12347010  1
  In  In1  1  0.00983128  0.17832870  0.62170297  1
  In  In2  1  -0.00534691  0.47892203  0.12558360  1
  In  In3  1  -0.00387053  0.50335329  0.62883192  1
  In  In4  1  -0.00213575  0.84570476  0.12304941  1
  In  In5  1  -0.00305171  0.82835795  0.62463542  1
  In  In6  1  0.35198593  0.19474053  0.10388900  1
  In  In7  1  0.33826625  0.17358170  0.62441831  1
  In  In8  1  0.33937841  0.49451062  0.11779801  1
  In  In9  1  0.33778577  0.49243854  0.63122402  1
  In  In10  1  0.33693610  0.82116906  0.12548147  1
  In  In11  1  0.31881419  0.83251945  0.62449737  1
  In  In12  1  0.66093307  0.18240257  0.11623627  1
  In  In13  1  0.67345349  0.15890907  0.63293870  1
  In  In14  1  0.65281528  0.48886180  0.11729349  1
  In  In15  1  0.65751050  0.48676900  0.62024234  1
  In  In16  1  0.67050347  0.83839759  0.11018536  1
  In  In17  1  0.67852102  0.83700431  0.62429195  1
  In  In18  1  0.15897069  0.01225832  0.39273731  1
  In  In19  1  0.17539098  0.01441359  0.87235135  1
  In  In20  1  0.15540188  0.32571389  0.36851587  1
  In  In21  1  0.17353408  0.33435555  0.87662885  1
  In  In22  1  0.18107807  0.66049582  0.37500666  1
  In  In23  1  0.15885677  0.65221522  0.86614709  1
  In  In24  1  0.50178707  -0.00102036  0.37321776  1
  In  In25  1  0.50522827  0.00375523  0.88193967  1
  In  In26  1  0.51019293  0.34257114  0.36641012  1
  In  In27  1  0.50244334  0.33724963  0.88539925  1
  In  In28  1  0.48606097  0.66144126  0.37329789  1
  In  In29  1  0.49141662  0.66977813  0.87563570  1
  In  In30  1  0.82196444  0.00534903  0.39332194  1
  In  In31  1  0.81239420  0.00357955  0.87452749  1
  In  In32  1  0.83537333  0.32557413  0.37966739  1
  In  In33  1  0.82641445  0.32722723  0.86539384  1
  In  In34  1  0.83119020  0.66878251  0.38562607  1
  In  In35  1  0.84777208  0.66832957  0.87216843  1
  In  In36  1  -0.00533213  0.17264740  0.38276715  1
  In  In37  1  0.00517541  0.18261326  0.86569986  1
  In  In38  1  -0.00200538  0.48304446  0.37628170  1
  In  In39  1  0.00729176  0.50412671  0.86793123  1
  In  In40  1  -0.00752370  0.84475610  0.38656859  1
  In  In41  1  0.00200826  0.82044030  0.87185951  1
  In  In42  1  0.31744377  0.17432606  0.37635422  1
  In  In43  1  0.32313423  0.19716233  0.90137964  1
  In  In44  1  0.33900824  0.50391605  0.36929621  1
  In  In45  1  0.33001638  0.49383856  0.87916471  1
  In  In46  1  0.33739633  0.82025463  0.37592445  1
  In  In47  1  0.34532174  0.83067386  0.87163390  1
  In  In48  1  0.66296810  0.17673012  0.37696677  1
  In  In49  1  0.65955041  0.16309617  0.87359500  1
  In  In50  1  0.67477824  0.49006497  0.38430103  1
  In  In51  1  0.65792086  0.48020193  0.87810542  1
  In  In52  1  0.67663399  0.83949996  0.37819575  1
  In  In53  1  0.65712343  0.85132743  0.88208054  1
  In  In54  1  0.15750461  0.01378248  0.12299190  1
  In  In55  1  0.18097547  0.00220661  0.61187932  1
  In  In56  1  0.16695155  0.33379347  0.11905365  1
  In  In57  1  0.17403405  0.32074077  0.63565955  1
  In  In58  1  0.18690867  0.66513368  0.12812770  1
  In  In59  1  0.15766189  0.66796422  0.63229265  1
  In  In60  1  0.50948951  -0.00081965  0.11059285  1
  In  In61  1  0.50495264  0.01362867  0.62973761  1
  In  In62  1  0.50166329  0.33796256  0.12164863  1
  In  In63  1  0.48949875  0.33826248  0.63355294  1
  In  In64  1  0.48627126  0.65583628  0.11263476  1
  In  In65  1  0.50227246  0.64791825  0.62823387  1
  In  In66  1  0.84245375  0.00301770  0.12305338  1
  In  In67  1  0.81873518  -0.00239380  0.61884886  1
  In  In68  1  0.82993758  0.32682596  0.13665595  1
  In  In69  1  0.83329495  0.33102801  0.62437369  1
  In  In70  1  0.82321875  0.66729611  0.12515733  1
  In  In71  1  0.84447840  0.67332857  0.62044822  1
  In  In72  1  0.83253471  0.50257028  0.00112540  1
  In  In73  1  0.32744209  0.00546566  0.25101080  1
  In  In74  1  0.67254164  0.66645067  0.74689593  1
  In  In75  1  0.50150700  0.16610859  0.49998867  1
  In  In76  1  -0.00269284  0.01003680  0.24991154  1
  In  In77  1  0.16621807  0.83555691  -0.00044234  1
  In  In78  1  0.50067042  0.83042627  0.49808426  1
  In  In79  1  0.65872293  0.65846962  0.24105074  1
  In  In80  1  -0.00153236  0.00116711  0.74350509  1
  In  In81  1  0.66883701  0.00816261  0.25555998  1
  In  In82  1  0.16321455  0.49675795  0.49887905  1
  In  In83  1  0.00654325  0.66013318  0.25761673  1
  In  In84  1  0.82525047  0.16424791  -0.00405357  1
  In  In85  1  0.34227872  0.00896189  0.75341048  1
  Cu  Cu86  1  -0.00099058  -0.00153430  0.51000327  1
  Cu  Cu87  1  0.49661542  0.49670413  0.24222691  1
  Cu  Cu88  1  0.16736295  0.82713161  0.74744349  1
  Cu  Cu89  1  0.67211009  0.67554262  -0.00592988  1
  Cu  Cu90  1  0.82896059  0.48383448  0.25620742  1
  Cu  Cu91  1  0.33238349  0.66241160  0.49863820  1
  Cu  Cu92  1  0.66638027  0.66125279  0.50634463  1
  Cu  Cu93  1  -0.00325426  0.32965132  0.50113237  1
  Cu  Cu94  1  0.49827243  0.17563861  0.75935680  1
  Cu  Cu95  1  0.33117220  -0.00058708  -0.00552866  1
  Cu  Cu96  1  0.49510376  0.82567793  0.24288867  1
  Cu  Cu97  1  -0.00013904  0.66959766  0.50518413  1
  Cu  Cu98  1  0.33035811  0.66392107  -0.00266946  1
  Cu  Cu99  1  0.00187354  0.33624824  -0.00466221  1
  Cu  Cu100  1  0.83444320  0.49678211  0.74855354  1
  Cu  Cu101  1  0.66769893  0.33107231  0.50181502  1
  Cu  Cu102  1  0.49446501  0.49544672  0.75504939  1
  Cu  Cu103  1  0.17323308  0.83277498  0.25713710  1
  Cu  Cu104  1  0.33530205  0.33756555  0.50370955  1
  Cu  Cu105  1  0.00580127  0.66570296  -0.00502308  1
  Cu  Cu106  1  0.17314571  0.49197760  0.75183332  1
  Cu  Cu107  1  0.83511943  0.83303065  0.25101565  1
  Cu  Cu108  1  0.49423341  0.17567202  0.24247874  1
  Cu  Cu109  1  0.17550637  0.49613045  0.24526117  1
  Cu  Cu110  1  0.50250761  0.83451413  0.75495066  1
  Cu  Cu111  1  -0.00711608  0.00102824  -0.00373737  1
  Cu  Cu112  1  0.16942208  0.17860156  0.24567857  1
  Cu  Cu113  1  0.83064019  0.17144389  0.74701426  1
  Cu  Cu114  1  0.83273960  0.83557082  0.74592252  1
  Se  Se115  1  0.07570380  0.08512690  0.04872211  1
  Se  Se116  1  0.08552987  0.08575168  0.55499419  1
  Se  Se117  1  0.08284934  0.41973164  0.05025566  1
  Se  Se118  1  0.08007400  0.40704057  0.56262367  1
  Se  Se119  1  0.08030213  0.74391884  0.06304042  1
  Se  Se120  1  0.08670579  0.75006193  0.55669440  1
  Se  Se121  1  0.41247428  0.07825623  0.05279982  1
  Se  Se122  1  0.40889791  0.07340180  0.55606859  1
  Se  Se123  1  0.44323211  0.43681271  0.05015434  1
  Se  Se124  1  0.41943277  0.41941796  0.55583323  1
  Se  Se125  1  0.41361772  0.75239569  0.04682523  1
  Se  Se126  1  0.41415581  0.73978931  0.56131842  1
  Se  Se127  1  0.74010625  0.07445091  0.06026614  1
  Se  Se128  1  0.74228477  0.08761627  0.55272003  1
  Se  Se129  1  0.74901777  0.40374993  0.05710364  1
  Se  Se130  1  0.75213292  0.41556474  0.55380746  1
  Se  Se131  1  0.75980449  0.75170019  0.04931255  1
  Se  Se132  1  0.74982357  0.74778426  0.55488732  1
  Se  Se133  1  0.23571377  0.24173533  0.04895390  1
  Se  Se134  1  0.25259770  0.25308706  0.55554156  1
  Se  Se135  1  0.25010960  0.58068699  0.05245992  1
  Se  Se136  1  0.25218872  0.58431795  0.56137553  1
  Se  Se137  1  0.25441783  0.92400955  0.06282931  1
  Se  Se138  1  0.25481339  0.91045124  0.54645215  1
  Se  Se139  1  0.56161705  0.24021420  0.04812308  1
  Se  Se140  1  0.58453573  0.25536686  0.56477306  1
  Se  Se141  1  0.59542669  0.59444980  0.05417869  1
  Se  Se142  1  0.57934885  0.57600066  0.55185723  1
  Se  Se143  1  0.57455848  0.90351155  0.04467378  1
  Se  Se144  1  0.58548661  0.92221399  0.56008119  1
  Se  Se145  1  0.91764320  0.25683442  0.05477683  1
  Se  Se146  1  0.91330144  0.24554677  0.55396708  1
  Se  Se147  1  0.92660034  0.59071247  0.06201407  1
  Se  Se148  1  0.91823054  0.57985194  0.55326474  1
  Se  Se149  1  0.91352673  0.91640107  0.05015457  1
  Se  Se150  1  0.91342784  0.91435106  0.55949300  1
  Se  Se151  1  0.08704982  0.25071207  0.44877048  1
  Se  Se152  1  0.08307549  0.24974511  0.94369308  1
  Se  Se153  1  0.07380722  0.59026297  0.43859712  1
  Se  Se154  1  0.08555548  0.57833917  0.94510651  1
  Se  Se155  1  0.08340982  0.91607764  0.45470824  1
  Se  Se156  1  0.07843998  0.92550189  0.93549415  1
  Se  Se157  1  0.41493922  0.25937349  0.43922029  1
  Se  Se158  1  0.44458113  0.23596537  0.95675066  1
  Se  Se159  1  0.41599079  0.57749684  0.44765641  1
  Se  Se160  1  0.41551379  0.58276104  0.94409752  1
  Se  Se161  1  0.40945759  0.92316356  0.44040783  1
  Se  Se162  1  0.41508765  0.91636449  0.94337435  1
  Se  Se163  1  0.74959999  0.24553987  0.45005630  1
  Se  Se164  1  0.73825381  0.26187914  0.94247730  1
  Se  Se165  1  0.75140084  0.58048301  0.45054719  1
  Se  Se166  1  0.74538601  0.58829752  0.93414903  1
  Se  Se167  1  0.75173456  0.90708773  0.45549224  1
  Se  Se168  1  0.76181272  0.90783432  0.94711991  1
  Se  Se169  1  0.25466602  0.08989842  0.45120535  1
  Se  Se170  1  0.24508498  0.08746286  0.95119033  1
  Se  Se171  1  0.25421996  0.41053707  0.43754048  1
  Se  Se172  1  0.24684409  0.41730012  0.95019210  1
  Se  Se173  1  0.24953530  0.74800813  0.44789663  1
  Se  Se174  1  0.24994012  0.74487178  0.93609002  1
  Se  Se175  1  0.59299334  0.07152624  0.44262142  1
  Se  Se176  1  0.60499529  0.06873411  0.94711691  1
  Se  Se177  1  0.58072370  0.41278116  0.44858186  1
  Se  Se178  1  0.56850117  0.43254591  0.95755895  1
  Se  Se179  1  0.59075918  0.73740723  0.43737533  1
  Se  Se180  1  0.58176248  0.75043748  0.94046118  1
  Se  Se181  1  0.92109484  0.08162697  0.45114181  1
  Se  Se182  1  0.92091462  0.08307748  0.93142682  1
  Se  Se183  1  0.91322634  0.41496020  0.44999083  1
  Se  Se184  1  0.91683911  0.41246625  0.93615129  1
  Se  Se185  1  0.91493000  0.75283357  0.45087538  1
  Se  Se186  1  0.91965203  0.75058425  0.94793896  1
  Se  Se187  1  0.25362070  0.25962882  0.30001990  1
  Se  Se188  1  0.25503991  0.24414415  0.81205303  1
  Se  Se189  1  0.25359112  0.58379340  0.29902550  1
  Se  Se190  1  0.25536201  0.57834135  0.80393124  1
  Se  Se191  1  0.24346114  0.91893116  0.31857114  1
  Se  Se192  1  0.24514308  0.91101028  0.80697905  1
  Se  Se193  1  0.58359423  0.24774427  0.30050244  1
  Se  Se194  1  0.58369330  0.25871320  0.81074878  1
  Se  Se195  1  0.57701869  0.57226725  0.30897395  1
  Se  Se196  1  0.58162686  0.57879433  0.80889901  1
  Se  Se197  1  0.57710744  0.90250898  0.30401514  1
  Se  Se198  1  0.58052291  0.92384331  0.80452031  1
  Se  Se199  1  0.92886930  0.25804250  0.30950162  1
  Se  Se200  1  0.91680867  0.25503122  0.79616018  1
  Se  Se201  1  0.90412129  0.57546149  0.31100662  1
  Se  Se202  1  0.91806056  0.58247870  0.79980737  1
  Se  Se203  1  0.90580356  0.91988620  0.31109797  1
  Se  Se204  1  0.91260999  0.91412917  0.80941400  1
  Se  Se205  1  0.09485771  0.09345511  0.30786010  1
  Se  Se206  1  0.09172452  0.09205685  0.79964911  1
  Se  Se207  1  0.08623228  0.42172500  0.30094893  1
  Se  Se208  1  0.08637024  0.41208354  0.80528315  1
  Se  Se209  1  0.08604115  0.76065346  0.31671299  1
  Se  Se210  1  0.08216323  0.74466152  0.79936545  1
  Se  Se211  1  0.42274164  0.09541283  0.30902902  1
  Se  Se212  1  0.41694434  0.09906008  0.82206678  1
  Se  Se213  1  0.41530617  0.41533179  0.30065472  1
  Se  Se214  1  0.41704461  0.41090364  0.81195298  1
  Se  Se215  1  0.41404932  0.74528815  0.29938802  1
  Se  Se216  1  0.41604822  0.74633594  0.79792107  1
  Se  Se217  1  0.76279652  0.09394906  0.31273380  1
  Se  Se218  1  0.74620596  0.08878103  0.79991822  1
  Se  Se219  1  0.74480003  0.40518861  0.31075960  1
  Se  Se220  1  0.74634453  0.41909076  0.80185428  1
  Se  Se221  1  0.75175300  0.74798973  0.30427659  1
  Se  Se222  1  0.75386680  0.75810318  0.81106964  1
  Se  Se223  1  0.24904539  0.09784538  0.18548971  1
  Se  Se224  1  0.24651789  0.08829368  0.69135359  1
  Se  Se225  1  0.25390037  0.41447991  0.18719182  1
  Se  Se226  1  0.25719866  0.40878344  0.69945871  1
  Se  Se227  1  0.25472218  0.75181805  0.20197951  1
  Se  Se228  1  0.25354925  0.74340663  0.69736809  1
  Se  Se229  1  0.57448933  0.08669925  0.19019779  1
  Se  Se230  1  0.57966642  0.09016146  0.70447536  1
  Se  Se231  1  0.58598799  0.41246483  0.19669444  1
  Se  Se232  1  0.58080455  0.41724693  0.69942603  1
  Se  Se233  1  0.57798354  0.75425489  0.18013577  1
  Se  Se234  1  0.57782919  0.75614094  0.68853476  1
  Se  Se235  1  0.90575386  0.10099641  0.19313959  1
  Se  Se236  1  0.90770879  0.08971620  0.68456347  1
  Se  Se237  1  0.91833043  0.40746745  0.20273957  1
  Se  Se238  1  0.91705853  0.41342904  0.69441691  1
  Se  Se239  1  0.91699147  0.75262014  0.19353606  1
  Se  Se240  1  0.91820966  0.74911158  0.69862125  1
  Se  Se241  1  0.08125849  0.25773845  0.19325390  1
  Se  Se242  1  0.07714200  0.25232137  0.70112163  1
  Se  Se243  1  0.08868527  0.57610199  0.18794615  1
  Se  Se244  1  0.08629262  0.57497025  0.69931672  1
  Se  Se245  1  0.09379618  0.91248863  0.19660391  1
  Se  Se246  1  0.09608200  0.91414016  0.68672904  1
  Se  Se247  1  0.41213789  0.25998090  0.19128922  1
  Se  Se248  1  0.41186277  0.24983032  0.70139833  1
  Se  Se249  1  0.41382076  0.58309474  0.19166040  1
  Se  Se250  1  0.41466883  0.58121268  0.70109228  1
  Se  Se251  1  0.42091079  0.91826880  0.18948760  1
  Se  Se252  1  0.42208236  0.91137375  0.68963428  1
  Se  Se253  1  0.74188581  0.24068828  0.19564951  1
  Se  Se254  1  0.74498184  0.25674058  0.69645350  1
  Se  Se255  1  0.75661405  0.56409219  0.19021448  1
  Se  Se256  1  0.75691785  0.57591817  0.68434044  1
  Se  Se257  1  0.75403236  0.91277960  0.19143282  1
  Se  Se258  1  0.74682235  0.92153728  0.69926207  1
