# generated using pymatgen
data_In86Cu29Se144
_symmetry_space_group_name_H-M   'P 1'
_cell_length_a   17.57334795
_cell_length_b   17.57631424
_cell_length_c   23.44167426
_cell_angle_alpha   89.98358104
_cell_angle_beta   90.01665346
_cell_angle_gamma   90.00112364
_symmetry_Int_Tables_number   1
_chemical_formula_structural   In86Cu29Se144
_chemical_formula_sum   'In86 Cu29 Se144'
_cell_volume   7240.53916635
_cell_formula_units_Z   1
loop_
 _symmetry_equiv_pos_site_id
 _symmetry_equiv_pos_as_xyz
  1  'x, y, z'
loop_
 _atom_site_type_symbol
 _atom_site_label
 _atom_site_symmetry_multiplicity
 _atom_site_fract_x
 _atom_site_fract_y
 _atom_site_fract_z
 _atom_site_occupancy
  In  In0  1  0.00118004  0.16874697  0.11112477  1
  In  In1  1  -0.01246076  0.17307235  0.63913998  1
  In  In2  1  0.00330444  0.50740314  0.12120493  1
  In  In3  1  -0.02746261  0.50993234  0.63908057  1
  In  In4  1  -0.01281805  0.81999982  0.11560257  1
  In  In5  1  -0.00966850  0.84818117  0.63492210  1
  In  In6  1  0.32968452  0.17147134  0.12552624  1
  In  In7  1  0.34799417  0.17927492  0.62604367  1
  In  In8  1  0.32576672  0.49127167  0.12063136  1
  In  In9  1  0.33149390  0.49595585  0.62597524  1
  In  In10  1  0.34535726  0.84237565  0.12111521  1
  In  In11  1  0.33981289  0.82895236  0.62427357  1
  In  In12  1  0.66523161  0.15493172  0.11819434  1
  In  In13  1  0.66926365  0.16114280  0.63351441  1
  In  In14  1  0.67583301  0.51235891  0.11570465  1
  In  In15  1  0.67039381  0.50444206  0.62825493  1
  In  In16  1  0.66781938  0.82856580  0.12640155  1
  In  In17  1  0.67453849  0.82632721  0.62940798  1
  In  In18  1  0.16491605  -0.01559601  0.36464330  1
  In  In19  1  0.15928016  0.01017004  0.88807156  1
  In  In20  1  0.16903706  0.32600284  0.37241204  1
  In  In21  1  0.16526208  0.33381759  0.87490704  1
  In  In22  1  0.17395955  0.67418690  0.36488227  1
  In  In23  1  0.16783615  0.66242543  0.89071815  1
  In  In24  1  0.50521445  -0.00228426  0.36309062  1
  In  In25  1  0.50501857  -0.01179661  0.87730367  1
  In  In26  1  0.50518230  0.34982237  0.37321864  1
  In  In27  1  0.51623400  0.36118502  0.85768245  1
  In  In28  1  0.49406338  0.64972526  0.37407319  1
  In  In29  1  0.51701283  0.65051816  0.88693763  1
  In  In30  1  0.80960584  -0.01699694  0.36916139  1
  In  In31  1  0.83534305  -0.00709754  0.87439272  1
  In  In32  1  0.84138031  0.34044091  0.37691684  1
  In  In33  1  0.82593130  0.33810681  0.87070487  1
  In  In34  1  0.83099112  0.66836227  0.37511098  1
  In  In35  1  0.82873884  0.66575440  0.87628460  1
  In  In36  1  -0.00495426  0.17608420  0.37583059  1
  In  In37  1  0.00058261  0.16503209  0.87710256  1
  In  In38  1  -0.01674286  0.50264358  0.37821538  1
  In  In39  1  -0.00150806  0.49715378  0.87667016  1
  In  In40  1  0.00264527  0.82014307  0.36968758  1
  In  In41  1  -0.00888287  0.84078291  0.88382892  1
  In  In42  1  0.33628113  0.16677671  0.36198359  1
  In  In43  1  0.32229751  0.17659682  0.88199956  1
  In  In44  1  0.35412259  0.50816957  0.36756019  1
  In  In45  1  0.34077170  0.49091333  0.87875441  1
  In  In46  1  0.32821120  0.83136270  0.36383446  1
  In  In47  1  0.33961358  0.82667402  0.89061307  1
  In  In48  1  0.67135111  0.15369757  0.37467916  1
  In  In49  1  0.67937554  0.16942212  0.87133711  1
  In  In50  1  0.65315855  0.51281349  0.39270036  1
  In  In51  1  0.66558539  0.50575871  0.87202918  1
  In  In52  1  0.67247357  0.83926783  0.37058156  1
  In  In53  1  0.66759432  0.83231217  0.87442385  1
  In  In54  1  0.17378259  0.00947904  0.11660351  1
  In  In55  1  0.15596989  -0.00996416  0.63015308  1
  In  In56  1  0.17965089  0.34416194  0.11218099  1
  In  In57  1  0.16398719  0.33461602  0.63822830  1
  In  In58  1  0.15005070  0.64896475  0.11985124  1
  In  In59  1  0.17040066  0.66450669  0.62707635  1
  In  In60  1  0.51525842  -0.02259118  0.14218884  1
  In  In61  1  0.49524878  0.00986771  0.63014313  1
  In  In62  1  0.48541187  0.33463655  0.12241285  1
  In  In63  1  0.50037431  0.35275565  0.64602842  1
  In  In64  1  0.51433024  0.67981521  0.11908862  1
  In  In65  1  0.52104771  0.66245809  0.62431781  1
  In  In66  1  0.82137367  -0.01370537  0.11178480  1
  In  In67  1  0.82984372  -0.00084593  0.62915437  1
  In  In68  1  0.83765976  0.33942434  0.11008694  1
  In  In69  1  0.80602489  0.36215531  0.66191670  1
  In  In70  1  0.83006172  0.66630872  0.12532870  1
  In  In71  1  0.80098766  0.65052040  0.59088096  1
  In  In72  1  0.16297050  0.16677347  0.49826059  1
  In  In73  1  0.83233973  0.17213289  0.50361746  1
  In  In74  1  0.50809509  0.17039982  0.49571804  1
  In  In75  1  0.66568846  0.33065106  0.25172593  1
  In  In76  1  0.51148225  0.82518550  0.50019301  1
  In  In77  1  0.49278529  0.16754938  0.00123984  1
  In  In78  1  0.34110738  0.66679507  0.74702157  1
  In  In79  1  0.00604178  0.34432184  0.24580876  1
  In  In80  1  -0.01297773  0.67044472  0.76176247  1
  In  In81  1  0.32707980  0.01045544  0.75660563  1
  In  In82  1  0.16740217  0.50190137  0.49905032  1
  In  In83  1  0.16656623  0.82572128  0.48811088  1
  In  In84  1  0.33855678  0.66608684  0.24183728  1
  In  In85  1  0.00558736  0.00263937  0.24217051  1
  Cu  Cu86  1  0.33510062  0.33623619  -0.00422756  1
  Cu  Cu87  1  -0.00100064  0.67706490  0.49987898  1
  Cu  Cu88  1  0.17450354  0.17115662  0.24230941  1
  Cu  Cu89  1  -0.01460587  0.00323660  0.50469849  1
  Cu  Cu90  1  0.84131396  0.15485512  0.75844170  1
  Cu  Cu91  1  -0.00448365  0.32946294  -0.00855053  1
  Cu  Cu92  1  0.82643236  0.51272697  0.25234233  1
  Cu  Cu93  1  0.66305700  0.34097615  -0.00984772  1
  Cu  Cu94  1  0.50040159  0.16992722  0.75210068  1
  Cu  Cu95  1  0.66820381  0.33502205  0.51269396  1
  Cu  Cu96  1  -0.00926077  0.34612927  0.51562894  1
  Cu  Cu97  1  0.16548062  0.16377211  0.75751333  1
  Cu  Cu98  1  0.67048865  -0.00459590  0.00096239  1
  Cu  Cu99  1  0.00159978  -0.00339098  -0.00066559  1
  Cu  Cu100  1  0.82809731  0.16040247  0.24125872  1
  Cu  Cu101  1  0.16599830  0.50137839  0.75578034  1
  Cu  Cu102  1  0.66859335  0.67099457  -0.00077321  1
  Cu  Cu103  1  0.33122481  0.66551256  0.00798520  1
  Cu  Cu104  1  0.33165478  -0.00724202  0.49156201  1
  Cu  Cu105  1  0.16419972  0.84103770  0.76142533  1
  Cu  Cu106  1  0.50433024  0.49818155  0.24636606  1
  Cu  Cu107  1  0.83391896  0.82834344  0.24308311  1
  Cu  Cu108  1  0.34132614  0.34161854  0.50322123  1
  Cu  Cu109  1  0.50750532  0.83194297  0.75485986  1
  Cu  Cu110  1  -0.00794073  0.66230128  -0.00126094  1
  Cu  Cu111  1  0.49691151  0.16228293  0.24278667  1
  Cu  Cu112  1  0.34144214  -0.00051835  0.00473285  1
  Cu  Cu113  1  0.17094352  0.83270837  0.23959988  1
  Cu  Cu114  1  0.82895404  0.82999441  0.75102372  1
  Se  Se115  1  0.08646772  0.08475291  0.04668626  1
  Se  Se116  1  0.07235055  0.08022234  0.56169177  1
  Se  Se117  1  0.07154509  0.40908593  0.05476444  1
  Se  Se118  1  0.07982261  0.42310206  0.56959736  1
  Se  Se119  1  0.08016418  0.74286529  0.05115162  1
  Se  Se120  1  0.07947652  0.75178553  0.56372178  1
  Se  Se121  1  0.42189140  0.07376253  0.06951533  1
  Se  Se122  1  0.40621049  0.07841085  0.55141362  1
  Se  Se123  1  0.41748878  0.42064467  0.04901585  1
  Se  Se124  1  0.42400349  0.41662336  0.56225880  1
  Se  Se125  1  0.41923940  0.75181018  0.05260166  1
  Se  Se126  1  0.41510788  0.73736577  0.55891913  1
  Se  Se127  1  0.75401458  0.08680755  0.04660023  1
  Se  Se128  1  0.74034535  0.07729478  0.55554795  1
  Se  Se129  1  0.74855742  0.42122702  0.04707441  1
  Se  Se130  1  0.75707492  0.41223084  0.56473803  1
  Se  Se131  1  0.75250463  0.75201310  0.05435945  1
  Se  Se132  1  0.74666611  0.76955221  0.54281614  1
  Se  Se133  1  0.25507860  0.24769313  0.04824168  1
  Se  Se134  1  0.25518380  0.25974377  0.55795726  1
  Se  Se135  1  0.24500071  0.57757637  0.05291231  1
  Se  Se136  1  0.26037982  0.59379096  0.55535553  1
  Se  Se137  1  0.25249967  0.91590841  0.05334500  1
  Se  Se138  1  0.25189245  0.91884373  0.55629562  1
  Se  Se139  1  0.58929137  0.26062569  0.05732816  1
  Se  Se140  1  0.58445787  0.25464938  0.56880546  1
  Se  Se141  1  0.58178024  0.58575005  0.04930282  1
  Se  Se142  1  0.59659712  0.58369357  0.55206492  1
  Se  Se143  1  0.58623401  0.91620719  0.05706265  1
  Se  Se144  1  0.58107530  0.92282638  0.56637455  1
  Se  Se145  1  0.91114713  0.24569799  0.04522609  1
  Se  Se146  1  0.90941403  0.26241206  0.57041335  1
  Se  Se147  1  0.90970580  0.58066121  0.05514124  1
  Se  Se148  1  0.92345388  0.58532160  0.55157679  1
  Se  Se149  1  0.91492683  0.91164675  0.04767366  1
  Se  Se150  1  0.90890042  0.91532550  0.55709332  1
  Se  Se151  1  0.06749590  0.26825995  0.45013076  1
  Se  Se152  1  0.08637776  0.24757617  0.94441424  1
  Se  Se153  1  0.08097488  0.59824286  0.43839075  1
  Se  Se154  1  0.07816982  0.57651503  0.94985803  1
  Se  Se155  1  0.06943912  0.92671782  0.44168638  1
  Se  Se156  1  0.08775707  0.91026037  0.95013989  1
  Se  Se157  1  0.40954509  0.25583112  0.43835715  1
  Se  Se158  1  0.42327921  0.26483713  0.93446608  1
  Se  Se159  1  0.42062976  0.57306488  0.45059601  1
  Se  Se160  1  0.40952081  0.58669061  0.94601974  1
  Se  Se161  1  0.41481671  0.91319964  0.43613081  1
  Se  Se162  1  0.42508618  0.91618607  0.95238440  1
  Se  Se163  1  0.73804220  0.26053864  0.44044597  1
  Se  Se164  1  0.74929586  0.25381024  0.94513372  1
  Se  Se165  1  0.77070117  0.56664741  0.44261146  1
  Se  Se166  1  0.74791861  0.58281265  0.94616722  1
  Se  Se167  1  0.74720206  0.91037827  0.45100205  1
  Se  Se168  1  0.75181489  0.91239260  0.94518012  1
  Se  Se169  1  0.24867792  0.07451007  0.43435255  1
  Se  Se170  1  0.25795025  0.08253185  0.95142165  1
  Se  Se171  1  0.25854638  0.41253573  0.43821558  1
  Se  Se172  1  0.24616019  0.41819676  0.94494610  1
  Se  Se173  1  0.26826298  0.73573834  0.44066575  1
  Se  Se174  1  0.24732906  0.75140059  0.95599644  1
  Se  Se175  1  0.59040439  0.06662584  0.44451213  1
  Se  Se176  1  0.58961161  0.08023788  0.94319870  1
  Se  Se177  1  0.58150406  0.41225579  0.45496261  1
  Se  Se178  1  0.57786598  0.42727736  0.94404553  1
  Se  Se179  1  0.59124940  0.73806520  0.43318534  1
  Se  Se180  1  0.58284320  0.75543640  0.94714091  1
  Se  Se181  1  0.91326929  0.07838316  0.43488672  1
  Se  Se182  1  0.91807465  0.07701292  0.94322051  1
  Se  Se183  1  0.91067650  0.42153107  0.45335732  1
  Se  Se184  1  0.91053388  0.41637288  0.94297482  1
  Se  Se185  1  0.91577288  0.75567189  0.44352562  1
  Se  Se186  1  0.91111132  0.74791542  0.94575773  1
  Se  Se187  1  0.25329383  0.25571609  0.29883058  1
  Se  Se188  1  0.25001416  0.25145531  0.80415632  1
  Se  Se189  1  0.24852530  0.57371303  0.30237275  1
  Se  Se190  1  0.24624106  0.58586561  0.81093230  1
  Se  Se191  1  0.25302685  0.91715625  0.29244155  1
  Se  Se192  1  0.25061464  0.91422726  0.82053844  1
  Se  Se193  1  0.57373916  0.23800195  0.31141624  1
  Se  Se194  1  0.58411740  0.24733913  0.80878067  1
  Se  Se195  1  0.58540266  0.57474291  0.30588186  1
  Se  Se196  1  0.58114721  0.58729286  0.80251231  1
  Se  Se197  1  0.59262523  0.91915606  0.29939243  1
  Se  Se198  1  0.58982832  0.92065293  0.80287048  1
  Se  Se199  1  0.90699992  0.24574093  0.29988999  1
  Se  Se200  1  0.91501129  0.24736787  0.81005776  1
  Se  Se201  1  0.91873938  0.58923632  0.30366392  1
  Se  Se202  1  0.89919322  0.56632055  0.80665289  1
  Se  Se203  1  0.91587137  0.91180140  0.30336034  1
  Se  Se204  1  0.91722664  0.90965812  0.80303772  1
  Se  Se205  1  0.09017564  0.09795889  0.30720844  1
  Se  Se206  1  0.08359915  0.07826040  0.80794880  1
  Se  Se207  1  0.08822788  0.42774345  0.31541623  1
  Se  Se208  1  0.08197421  0.41740508  0.80622546  1
  Se  Se209  1  0.08890674  0.75184491  0.29586957  1
  Se  Se210  1  0.08976511  0.75262539  0.81794325  1
  Se  Se211  1  0.41506975  0.07756476  0.29787869  1
  Se  Se212  1  0.42235735  0.09266386  0.81750179  1
  Se  Se213  1  0.41912537  0.41314884  0.29677916  1
  Se  Se214  1  0.40960600  0.42182444  0.79710646  1
  Se  Se215  1  0.42874347  0.75292728  0.30524229  1
  Se  Se216  1  0.42356774  0.75533796  0.81332305  1
  Se  Se217  1  0.74765063  0.07976819  0.29819077  1
  Se  Se218  1  0.74939495  0.07348138  0.80550783  1
  Se  Se219  1  0.75196650  0.42336266  0.31140946  1
  Se  Se220  1  0.73239083  0.40838601  0.80233921  1
  Se  Se221  1  0.75215618  0.75034529  0.30321171  1
  Se  Se222  1  0.74762930  0.74637030  0.80528369  1
  Se  Se223  1  0.25376340  0.07997201  0.19398631  1
  Se  Se224  1  0.24213674  0.09465204  0.68506211  1
  Se  Se225  1  0.24818667  0.41287641  0.19357613  1
  Se  Se226  1  0.25017898  0.42176526  0.69978352  1
  Se  Se227  1  0.24513163  0.74876381  0.17895475  1
  Se  Se228  1  0.24072359  0.76407780  0.69737723  1
  Se  Se229  1  0.58980343  0.08392593  0.19624623  1
  Se  Se230  1  0.58060350  0.08173686  0.70139254  1
  Se  Se231  1  0.58403969  0.41854389  0.18441425  1
  Se  Se232  1  0.61256385  0.40828194  0.70310274  1
  Se  Se233  1  0.58680287  0.74867150  0.19791415  1
  Se  Se234  1  0.58718026  0.74903288  0.69903326  1
  Se  Se235  1  0.91138433  0.08555346  0.18096218  1
  Se  Se236  1  0.91970310  0.07146383  0.70036272  1
  Se  Se237  1  0.90152658  0.42527366  0.19196304  1
  Se  Se238  1  0.93763663  0.39806469  0.70353027  1
  Se  Se239  1  0.91971614  0.74355546  0.19546064  1
  Se  Se240  1  0.90579539  0.74860460  0.68911704  1
  Se  Se241  1  0.08799534  0.24749769  0.18489617  1
  Se  Se242  1  0.08226990  0.24801230  0.70276732  1
  Se  Se243  1  0.08042430  0.57523295  0.19941333  1
  Se  Se244  1  0.08517714  0.58440025  0.69755741  1
  Se  Se245  1  0.08689064  0.91009442  0.17943294  1
  Se  Se246  1  0.07832527  0.92003282  0.70737517  1
  Se  Se247  1  0.41471533  0.25116861  0.19593530  1
  Se  Se248  1  0.41514255  0.25632803  0.70398777  1
  Se  Se249  1  0.42743015  0.57546933  0.18191623  1
  Se  Se250  1  0.42967763  0.57586214  0.69015729  1
  Se  Se251  1  0.41284672  0.91187347  0.20308985  1
  Se  Se252  1  0.41726002  0.91149654  0.69978802  1
  Se  Se253  1  0.75411984  0.24891072  0.18381053  1
  Se  Se254  1  0.75585100  0.23522097  0.70368442  1
  Se  Se255  1  0.74130743  0.58985466  0.19631911  1
  Se  Se256  1  0.76510751  0.59041945  0.68607362  1
  Se  Se257  1  0.75246621  0.91692168  0.19371144  1
  Se  Se258  1  0.74683662  0.91776896  0.69860629  1
