# generated using pymatgen
data_In86Cu29Se144
_symmetry_space_group_name_H-M   'P 1'
_cell_length_a   17.57908726
_cell_length_b   17.58640084
_cell_length_c   23.44613439
_cell_angle_alpha   90.01081121
_cell_angle_beta   90.00308090
_cell_angle_gamma   90.00180768
_symmetry_Int_Tables_number   1
_chemical_formula_structural   In86Cu29Se144
_chemical_formula_sum   'In86 Cu29 Se144'
_cell_volume   7248.43971139
_cell_formula_units_Z   1
loop_
 _symmetry_equiv_pos_site_id
 _symmetry_equiv_pos_as_xyz
  1  'x, y, z'
loop_
 _atom_site_type_symbol
 _atom_site_label
 _atom_site_symmetry_multiplicity
 _atom_site_fract_x
 _atom_site_fract_y
 _atom_site_fract_z
 _atom_site_occupancy
  In  In0  1  -0.00760797  0.16839670  0.12347960  1
  In  In1  1  -0.00083481  0.16731770  0.63352822  1
  In  In2  1  0.00400656  0.48641604  0.12343035  1
  In  In3  1  -0.00047315  0.48609101  0.62427217  1
  In  In4  1  -0.01612165  0.85097847  0.13516158  1
  In  In5  1  0.00426984  0.83753334  0.61996253  1
  In  In6  1  0.35272999  0.16440443  0.12597870  1
  In  In7  1  0.35221138  0.17241887  0.63021578  1
  In  In8  1  0.32355269  0.49654944  0.12204507  1
  In  In9  1  0.33364119  0.50029975  0.62399975  1
  In  In10  1  0.34300287  0.82269366  0.12649510  1
  In  In11  1  0.32222396  0.83035990  0.61713359  1
  In  In12  1  0.66400779  0.16834416  0.12415402  1
  In  In13  1  0.64256615  0.17190242  0.62303484  1
  In  In14  1  0.66506382  0.49670147  0.13538538  1
  In  In15  1  0.66733840  0.51087193  0.62442154  1
  In  In16  1  0.67189264  0.83883371  0.13020214  1
  In  In17  1  0.65390898  0.82451301  0.61374715  1
  In  In18  1  0.15607172  0.00066785  0.37446977  1
  In  In19  1  0.16177330  0.01105256  0.87240843  1
  In  In20  1  0.17186442  0.33499136  0.37063198  1
  In  In21  1  0.17773826  0.34294784  0.86705552  1
  In  In22  1  0.17301841  0.66166194  0.38715870  1
  In  In23  1  0.16925501  0.65404783  0.87530670  1
  In  In24  1  0.51490329  -0.01071152  0.38574515  1
  In  In25  1  0.50171485  -0.00317936  0.88335795  1
  In  In26  1  0.49902559  0.33719680  0.37821168  1
  In  In27  1  0.49926443  0.32895087  0.87445482  1
  In  In28  1  0.50619712  0.66509350  0.37745502  1
  In  In29  1  0.51066893  0.67537822  0.86315125  1
  In  In30  1  0.80253442  -0.03121333  0.34376186  1
  In  In31  1  0.84051868  0.00123935  0.88498135  1
  In  In32  1  0.82860615  0.32416626  0.36341010  1
  In  In33  1  0.83346481  0.31376208  0.87932811  1
  In  In34  1  0.82489120  0.68686371  0.37197962  1
  In  In35  1  0.83003730  0.68340373  0.87949548  1
  In  In36  1  -0.01082703  0.15480200  0.36357656  1
  In  In37  1  -0.00762862  0.16038381  0.86710456  1
  In  In38  1  0.01145144  0.49762766  0.37719066  1
  In  In39  1  0.01776849  0.50429159  0.87798749  1
  In  In40  1  -0.01018467  0.84398261  0.38159454  1
  In  In41  1  -0.01566415  0.83827981  0.88001513  1
  In  In42  1  0.33134012  0.18016758  0.37407435  1
  In  In43  1  0.33089726  0.17548177  0.87341161  1
  In  In44  1  0.34285701  0.49142894  0.38531152  1
  In  In45  1  0.33152720  0.49186998  0.86562528  1
  In  In46  1  0.34574052  0.82870210  0.38719681  1
  In  In47  1  0.35090165  0.83569243  0.87208873  1
  In  In48  1  0.66189275  0.16526681  0.37258440  1
  In  In49  1  0.67319954  0.16952899  0.89076656  1
  In  In50  1  0.65603717  0.49017664  0.36688639  1
  In  In51  1  0.65466154  0.50116419  0.87300307  1
  In  In52  1  0.65721270  0.83436053  0.37184047  1
  In  In53  1  0.67213912  0.83329557  0.87995510  1
  In  In54  1  0.15061743  -0.00132133  0.12628825  1
  In  In55  1  0.16373762  -0.01266189  0.62441901  1
  In  In56  1  0.16086522  0.33513382  0.12775257  1
  In  In57  1  0.16114017  0.34220598  0.62719401  1
  In  In58  1  0.17890276  0.66198689  0.12054798  1
  In  In59  1  0.17626151  0.67540490  0.61878190  1
  In  In60  1  0.51401409  0.00551135  0.12433683  1
  In  In61  1  0.49473401  0.00324020  0.60967580  1
  In  In62  1  0.51276579  0.31489455  0.13797792  1
  In  In63  1  0.48517111  0.31897853  0.61084676  1
  In  In64  1  0.51328984  0.68056022  0.12727767  1
  In  In65  1  0.49924210  0.66474401  0.62405330  1
  In  In66  1  0.82889892  -0.00403673  0.12636121  1
  In  In67  1  0.84367185  0.00091600  0.62330633  1
  In  In68  1  0.83747183  0.33099936  0.12837963  1
  In  In69  1  0.83440752  0.34136754  0.62813487  1
  In  In70  1  0.81595339  0.67279424  0.13019055  1
  In  In71  1  0.81735203  0.66906692  0.62622480  1
  In  In72  1  0.66659670  -0.00021283  0.74347666  1
  In  In73  1  0.34357432  0.66187187  0.26126765  1
  In  In74  1  0.32938459  0.00143528  0.74606658  1
  In  In75  1  0.49987065  0.49349290  -0.00667476  1
  In  In76  1  0.33933743  0.00103270  0.25032569  1
  In  In77  1  0.82831446  0.15931949  0.49112470  1
  In  In78  1  0.16968877  0.16395303  0.49691539  1
  In  In79  1  0.66497814  0.33429255  0.75253140  1
  In  In80  1  0.16536577  0.83230325  -0.00053765  1
  In  In81  1  0.00138657  0.66686243  0.75380506  1
  In  In82  1  0.83607362  0.50067432  0.01055238  1
  In  In83  1  0.83229088  0.50332067  0.50239800  1
  In  In84  1  -0.00441749  0.66728444  0.25111865  1
  In  In85  1  0.16560688  0.17028403  0.00056287  1
  Cu  Cu86  1  0.16318270  0.16659428  0.24905480  1
  Cu  Cu87  1  0.00172810  0.67009853  0.49722902  1
  Cu  Cu88  1  0.33057583  0.33825581  0.49834754  1
  Cu  Cu89  1  0.17069561  0.50075863  0.74788735  1
  Cu  Cu90  1  0.16639374  0.48906760  0.25034681  1
  Cu  Cu91  1  0.83601610  0.17003354  0.24111295  1
  Cu  Cu92  1  0.83345875  0.16449576  0.75158225  1
  Cu  Cu93  1  0.82956602  0.83559606  0.75569409  1
  Cu  Cu94  1  0.16549712  0.83047427  0.25724872  1
  Cu  Cu95  1  0.50159220  0.17146250  0.25370437  1
  Cu  Cu96  1  -0.00297347  -0.00950315  0.49732016  1
  Cu  Cu97  1  0.66522966  0.66903903  0.49750302  1
  Cu  Cu98  1  0.00207991  0.67282269  0.00101019  1
  Cu  Cu99  1  0.49101309  0.49687085  0.25409671  1
  Cu  Cu100  1  0.34240663  0.66376128  0.00094668  1
  Cu  Cu101  1  0.49853577  0.50017864  0.74594304  1
  Cu  Cu102  1  0.83733246  0.50021005  0.74878906  1
  Cu  Cu103  1  0.33568846  0.33632591  -0.00557959  1
  Cu  Cu104  1  0.66516427  0.67210912  0.00031301  1
  Cu  Cu105  1  0.50069985  0.82786137  0.74312513  1
  Cu  Cu106  1  0.33610542  0.66526704  0.50444254  1
  Cu  Cu107  1  0.16361350  0.83124152  0.74407180  1
  Cu  Cu108  1  0.00670061  0.33575742  -0.00018975  1
  Cu  Cu109  1  0.67088665  -0.00008545  0.49182913  1
  Cu  Cu110  1  0.83479079  0.49798647  0.24956465  1
  Cu  Cu111  1  0.00044956  0.32808342  0.49932902  1
  Cu  Cu112  1  0.16331210  0.17442633  0.75072911  1
  Cu  Cu113  1  0.66840522  -0.00243094  0.00572176  1
  Cu  Cu114  1  0.34137590  -0.00545834  0.00527346  1
  Se  Se115  1  0.07189027  0.07628899  0.05101063  1
  Se  Se116  1  0.07096835  0.07940022  0.55648803  1
  Se  Se117  1  0.09252838  0.41868549  0.05050596  1
  Se  Se118  1  0.08198038  0.41504253  0.54954995  1
  Se  Se119  1  0.07796533  0.75022415  0.06793650  1
  Se  Se120  1  0.08540728  0.75273797  0.55284329  1
  Se  Se121  1  0.42539429  0.08182285  0.05351934  1
  Se  Se122  1  0.41022332  0.09253310  0.55038858  1
  Se  Se123  1  0.41629570  0.40848661  0.06075000  1
  Se  Se124  1  0.41558339  0.42185636  0.55106431  1
  Se  Se125  1  0.42393909  0.74756726  0.05344080  1
  Se  Se126  1  0.41823779  0.75129716  0.55621962  1
  Se  Se127  1  0.74942753  0.08416413  0.05781216  1
  Se  Se128  1  0.73972438  0.07893502  0.56225404  1
  Se  Se129  1  0.73986499  0.41027549  0.06106544  1
  Se  Se130  1  0.74101521  0.40934216  0.55743454  1
  Se  Se131  1  0.74830590  0.75438543  0.05431042  1
  Se  Se132  1  0.75192415  0.75139298  0.54917772  1
  Se  Se133  1  0.26129593  0.25451868  0.05981013  1
  Se  Se134  1  0.25248260  0.25613551  0.56027504  1
  Se  Se135  1  0.25295501  0.58085891  0.04712917  1
  Se  Se136  1  0.24868029  0.58074886  0.55350063  1
  Se  Se137  1  0.25597505  0.92069565  0.06462150  1
  Se  Se138  1  0.25328648  0.92739071  0.55218155  1
  Se  Se139  1  0.57372980  0.24429537  0.05548560  1
  Se  Se140  1  0.58667801  0.25668220  0.54616667  1
  Se  Se141  1  0.58931419  0.58351224  0.05696150  1
  Se  Se142  1  0.58392387  0.58498329  0.55219311  1
  Se  Se143  1  0.58447111  0.91161514  0.05651334  1
  Se  Se144  1  0.58451184  0.92002976  0.54768830  1
  Se  Se145  1  0.92023794  0.25796352  0.05328741  1
  Se  Se146  1  0.91692907  0.25051539  0.55756001  1
  Se  Se147  1  0.92535989  0.59581903  0.06784359  1
  Se  Se148  1  0.92390173  0.59332376  0.56353556  1
  Se  Se149  1  0.91328169  0.91673526  0.05495333  1
  Se  Se150  1  0.91139448  0.91121137  0.55203141  1
  Se  Se151  1  0.07307308  0.24622359  0.43538528  1
  Se  Se152  1  0.08298642  0.25840644  0.93402310  1
  Se  Se153  1  0.08358431  0.57954139  0.45137270  1
  Se  Se154  1  0.08725426  0.58762234  0.95321181  1
  Se  Se155  1  0.08875241  0.91218095  0.44768950  1
  Se  Se156  1  0.07750759  0.92687977  0.94273711  1
  Se  Se157  1  0.41407704  0.25315224  0.44710236  1
  Se  Se158  1  0.41724117  0.24823790  0.94515083  1
  Se  Se159  1  0.41897356  0.58671552  0.44652839  1
  Se  Se160  1  0.41634921  0.58832814  0.93300951  1
  Se  Se161  1  0.42034902  0.91952356  0.45154340  1
  Se  Se162  1  0.42187979  0.90968667  0.95106927  1
  Se  Se163  1  0.74230095  0.26125679  0.44202163  1
  Se  Se164  1  0.75968442  0.24694027  0.95790103  1
  Se  Se165  1  0.74507729  0.58790087  0.43693874  1
  Se  Se166  1  0.74475401  0.58586031  0.94323340  1
  Se  Se167  1  0.75105287  0.91407305  0.43872217  1
  Se  Se168  1  0.75168768  0.91754490  0.94789651  1
  Se  Se169  1  0.25825366  0.07559472  0.43660184  1
  Se  Se170  1  0.26033757  0.07423009  0.94496466  1
  Se  Se171  1  0.24177210  0.41749796  0.44642087  1
  Se  Se172  1  0.25221678  0.42095368  0.94363906  1
  Se  Se173  1  0.25331738  0.75052972  0.45116328  1
  Se  Se174  1  0.26063162  0.74547902  0.93988102  1
  Se  Se175  1  0.58533095  0.09024597  0.44878358  1
  Se  Se176  1  0.58578915  0.07955950  0.94965121  1
  Se  Se177  1  0.57359728  0.43013545  0.44492566  1
  Se  Se178  1  0.59815547  0.40049340  0.94402955  1
  Se  Se179  1  0.58028773  0.75436111  0.44709892  1
  Se  Se180  1  0.58096074  0.75009109  0.94300601  1
  Se  Se181  1  0.91533944  0.06561594  0.43494722  1
  Se  Se182  1  0.91019675  0.10201589  0.94586737  1
  Se  Se183  1  0.91703172  0.40777923  0.43998418  1
  Se  Se184  1  0.92322597  0.41732887  0.94087948  1
  Se  Se185  1  0.91418560  0.75028329  0.44658552  1
  Se  Se186  1  0.91311896  0.75429080  0.95393816  1
  Se  Se187  1  0.24801800  0.24995221  0.29941077  1
  Se  Se188  1  0.25431555  0.25336588  0.79925490  1
  Se  Se189  1  0.24414086  0.57157867  0.31115181  1
  Se  Se190  1  0.25303995  0.58549571  0.80070941  1
  Se  Se191  1  0.25173990  0.90924238  0.31273564  1
  Se  Se192  1  0.24212199  0.90953177  0.80991307  1
  Se  Se193  1  0.58332283  0.25670665  0.30733124  1
  Se  Se194  1  0.58497366  0.23498294  0.81108308  1
  Se  Se195  1  0.57747190  0.58251011  0.30219705  1
  Se  Se196  1  0.58618698  0.58198916  0.79721729  1
  Se  Se197  1  0.59366014  0.93431123  0.30376490  1
  Se  Se198  1  0.57675262  0.91032841  0.80577511  1
  Se  Se199  1  0.92105599  0.25136850  0.29690309  1
  Se  Se200  1  0.91629489  0.25325041  0.80024973  1
  Se  Se201  1  0.90870096  0.57721095  0.31514434  1
  Se  Se202  1  0.91009174  0.57994899  0.81589949  1
  Se  Se203  1  0.92831742  0.92078429  0.30093612  1
  Se  Se204  1  0.91218128  0.92109092  0.80627783  1
  Se  Se205  1  0.08271405  0.07813177  0.29860191  1
  Se  Se206  1  0.08210179  0.08378117  0.79832262  1
  Se  Se207  1  0.07858959  0.41072758  0.30327785  1
  Se  Se208  1  0.08423106  0.42088567  0.80185387  1
  Se  Se209  1  0.08825163  0.74814270  0.31653490  1
  Se  Se210  1  0.08834768  0.75911912  0.81511960  1
  Se  Se211  1  0.42433573  0.08862967  0.31449827  1
  Se  Se212  1  0.41997487  0.08319777  0.81114821  1
  Se  Se213  1  0.40898862  0.41261803  0.30625026  1
  Se  Se214  1  0.42387199  0.41263617  0.80270581  1
  Se  Se215  1  0.43174353  0.76380424  0.30707650  1
  Se  Se216  1  0.41428828  0.74801550  0.79721720  1
  Se  Se217  1  0.75359521  0.09564255  0.30217944  1
  Se  Se218  1  0.75093032  0.08644018  0.81066211  1
  Se  Se219  1  0.74809158  0.41474623  0.30038126  1
  Se  Se220  1  0.75958636  0.42108485  0.81404026  1
  Se  Se221  1  0.73420019  0.74766814  0.30015644  1
  Se  Se222  1  0.74479023  0.75008115  0.80432195  1
  Se  Se223  1  0.24462482  0.08759049  0.18733658  1
  Se  Se224  1  0.23960768  0.09411662  0.68626593  1
  Se  Se225  1  0.25236798  0.41175194  0.19514179  1
  Se  Se226  1  0.25310698  0.41572937  0.69470809  1
  Se  Se227  1  0.24662722  0.75073153  0.19863815  1
  Se  Se228  1  0.25199295  0.75087483  0.69562574  1
  Se  Se229  1  0.58404780  0.08853803  0.19905040  1
  Se  Se230  1  0.56464608  0.08561949  0.69358580  1
  Se  Se231  1  0.57924073  0.41562009  0.20177381  1
  Se  Se232  1  0.57908292  0.41856056  0.68647811  1
  Se  Se233  1  0.60237444  0.74255461  0.19938766  1
  Se  Se234  1  0.58789401  0.74552031  0.69302275  1
  Se  Se235  1  0.91775854  0.08082486  0.19275135  1
  Se  Se236  1  0.91645741  0.08007728  0.69888971  1
  Se  Se237  1  0.92002053  0.41674605  0.19667115  1
  Se  Se238  1  0.91956402  0.41361432  0.70043264  1
  Se  Se239  1  0.90013321  0.75951326  0.20061822  1
  Se  Se240  1  0.91027859  0.75461498  0.69329544  1
  Se  Se241  1  0.08017926  0.24731505  0.19231528  1
  Se  Se242  1  0.07972420  0.25754260  0.69646311  1
  Se  Se243  1  0.09255550  0.57855194  0.19261294  1
  Se  Se244  1  0.08745141  0.58011350  0.68822818  1
  Se  Se245  1  0.08553369  0.91293531  0.20165164  1
  Se  Se246  1  0.07729321  0.91645525  0.69729444  1
  Se  Se247  1  0.41095766  0.25095735  0.20387373  1
  Se  Se248  1  0.42476658  0.25792528  0.69972797  1
  Se  Se249  1  0.42198362  0.57888325  0.18626132  1
  Se  Se250  1  0.41486109  0.58445998  0.69389271  1
  Se  Se251  1  0.42791259  0.91010066  0.19146893  1
  Se  Se252  1  0.42170200  0.91280684  0.68667907  1
  Se  Se253  1  0.74681995  0.25356375  0.19387693  1
  Se  Se254  1  0.75174866  0.23978915  0.68875694  1
  Se  Se255  1  0.74872689  0.58188319  0.20053501  1
  Se  Se256  1  0.74994856  0.58226091  0.70001961  1
  Se  Se257  1  0.74059727  0.93063995  0.20103134  1
  Se  Se258  1  0.75398763  0.90640178  0.68556740  1
