# generated using pymatgen
data_In86Cu29Se144
_symmetry_space_group_name_H-M   'P 1'
_cell_length_a   17.57747522
_cell_length_b   17.58404677
_cell_length_c   23.44053980
_cell_angle_alpha   90.01925129
_cell_angle_beta   90.00204733
_cell_angle_gamma   90.00153812
_symmetry_Int_Tables_number   1
_chemical_formula_structural   In86Cu29Se144
_chemical_formula_sum   'In86 Cu29 Se144'
_cell_volume   7245.07537689
_cell_formula_units_Z   1
loop_
 _symmetry_equiv_pos_site_id
 _symmetry_equiv_pos_as_xyz
  1  'x, y, z'
loop_
 _atom_site_type_symbol
 _atom_site_label
 _atom_site_symmetry_multiplicity
 _atom_site_fract_x
 _atom_site_fract_y
 _atom_site_fract_z
 _atom_site_occupancy
  In  In0  1  -0.00621416  0.18047555  0.12406903  1
  In  In1  1  0.00267891  0.16377602  0.62737842  1
  In  In2  1  0.00002438  0.49321116  0.12158034  1
  In  In3  1  0.00240331  0.50054428  0.63507103  1
  In  In4  1  0.01287427  0.82097882  0.11880653  1
  In  In5  1  0.00192301  0.83882800  0.63089805  1
  In  In6  1  0.34497336  0.16001522  0.12908179  1
  In  In7  1  0.32876659  0.15654599  0.60021147  1
  In  In8  1  0.33205007  0.50942556  0.13834534  1
  In  In9  1  0.34596234  0.50591084  0.61772215  1
  In  In10  1  0.33348423  0.82623949  0.11925232  1
  In  In11  1  0.33254609  0.82718636  0.62392199  1
  In  In12  1  0.67475357  0.17215984  0.12053327  1
  In  In13  1  0.65947126  0.16002545  0.61048246  1
  In  In14  1  0.65761360  0.50683182  0.14516119  1
  In  In15  1  0.66356135  0.50797059  0.62157143  1
  In  In16  1  0.64877814  0.83976520  0.12370880  1
  In  In17  1  0.65554426  0.82010467  0.61901584  1
  In  In18  1  0.17865883  -0.00312758  0.39180334  1
  In  In19  1  0.14903639  -0.00426813  0.86915971  1
  In  In20  1  0.16087309  0.33207644  0.36994338  1
  In  In21  1  0.16773861  0.34768730  0.87692148  1
  In  In22  1  0.17703832  0.66597514  0.37795619  1
  In  In23  1  0.16611716  0.66395390  0.87287933  1
  In  In24  1  0.48997099  -0.00677631  0.39040561  1
  In  In25  1  0.50045868  -0.00325786  0.87902974  1
  In  In26  1  0.49999736  0.34151577  0.36895410  1
  In  In27  1  0.49131512  0.32348505  0.87897258  1
  In  In28  1  0.49814437  0.66686796  0.37570391  1
  In  In29  1  0.50553058  0.68362190  0.85489134  1
  In  In30  1  0.82579397  0.00645603  0.38555449  1
  In  In31  1  0.84267953  -0.00128268  0.87370131  1
  In  In32  1  0.82487709  0.32719304  0.36784134  1
  In  In33  1  0.83137425  0.32053506  0.87527957  1
  In  In34  1  0.82235557  0.68253178  0.38441053  1
  In  In35  1  0.83843729  0.67345738  0.86418451  1
  In  In36  1  -0.00852178  0.17714361  0.38250273  1
  In  In37  1  -0.01062782  0.15868721  0.86760762  1
  In  In38  1  0.00994137  0.49680139  0.37368983  1
  In  In39  1  0.01214006  0.50924272  0.86496932  1
  In  In40  1  0.00038575  0.83661243  0.38847271  1
  In  In41  1  0.00776484  0.83165104  0.86760088  1
  In  In42  1  0.32209933  0.17404030  0.38195830  1
  In  In43  1  0.34522464  0.17005298  0.87844344  1
  In  In44  1  0.35517025  0.51821306  0.35372462  1
  In  In45  1  0.31884604  0.50345324  0.88307755  1
  In  In46  1  0.34242857  0.82594093  0.38957653  1
  In  In47  1  0.33592722  0.82313571  0.87370029  1
  In  In48  1  0.64425439  0.19815907  0.40203724  1
  In  In49  1  0.66576132  0.16078806  0.88769812  1
  In  In50  1  0.63868797  0.48373083  0.35338653  1
  In  In51  1  0.65429268  0.51073283  0.87663340  1
  In  In52  1  0.66436088  0.83161794  0.38025025  1
  In  In53  1  0.66806758  0.82970634  0.87241429  1
  In  In54  1  0.17613190  -0.01089157  0.12038930  1
  In  In55  1  0.15732800  -0.01925000  0.61660792  1
  In  In56  1  0.15826631  0.33919003  0.13241177  1
  In  In57  1  0.16701458  0.32339771  0.62269341  1
  In  In58  1  0.18174834  0.67837936  0.11210837  1
  In  In59  1  0.15847219  0.69333964  0.65062549  1
  In  In60  1  0.50839878  -0.00326481  0.11095605  1
  In  In61  1  0.48866879  -0.00576646  0.60601892  1
  In  In62  1  0.50906710  0.32906919  0.14281012  1
  In  In63  1  0.49401651  0.32346844  0.60762795  1
  In  In64  1  0.49168458  0.66774592  0.13411308  1
  In  In65  1  0.50070162  0.66840703  0.62696781  1
  In  In66  1  0.81448339  0.00644208  0.11809861  1
  In  In67  1  0.84405431  0.00688655  0.62167704  1
  In  In68  1  0.83737025  0.33498244  0.13089230  1
  In  In69  1  0.84065533  0.33775400  0.62027218  1
  In  In70  1  0.83687213  0.65729007  0.12346486  1
  In  In71  1  0.82352758  0.67597000  0.63127529  1
  In  In72  1  0.83679684  0.49621828  0.00538871  1
  In  In73  1  0.66562628  0.00470435  0.25790036  1
  In  In74  1  0.00187697  0.65830619  0.24878906  1
  In  In75  1  0.67093986  0.33538810  0.74634364  1
  In  In76  1  0.66831696  -0.00524382  0.75033473  1
  In  In77  1  0.17730288  0.50213845  0.49885102  1
  In  In78  1  0.83096303  0.83919547  -0.00950113  1
  In  In79  1  0.32799869  -0.00457338  0.73761148  1
  In  In80  1  0.33273841  0.33680991  0.74978008  1
  In  In81  1  0.33390995  -0.00083985  0.25717190  1
  In  In82  1  0.49446527  0.49954381  0.00916101  1
  In  In83  1  -0.00123782  0.00658817  0.25671308  1
  In  In84  1  0.16479631  0.15925244  -0.00165941  1
  In  In85  1  0.82526532  0.50108851  0.49949485  1
  Cu  Cu86  1  0.83487347  0.83443476  0.74901666  1
  Cu  Cu87  1  0.34096396  0.66559141  -0.00143603  1
  Cu  Cu88  1  0.66574723  0.67190768  -0.00300989  1
  Cu  Cu89  1  0.16211544  0.16993101  0.25522323  1
  Cu  Cu90  1  0.16715930  0.50219444  0.75255532  1
  Cu  Cu91  1  0.49184267  0.82826229  0.24992143  1
  Cu  Cu92  1  -0.00729261  -0.00027620  -0.00552577  1
  Cu  Cu93  1  0.50205930  0.50197006  0.74708367  1
  Cu  Cu94  1  0.83936236  0.16875213  0.74516937  1
  Cu  Cu95  1  0.83518159  0.50334692  0.25083171  1
  Cu  Cu96  1  0.00074577  0.67419977  0.51266642  1
  Cu  Cu97  1  0.17083519  0.82534443  0.24740884  1
  Cu  Cu98  1  0.33148095  -0.01326676  -0.00295109  1
  Cu  Cu99  1  -0.00274196  0.33067238  0.00103451  1
  Cu  Cu100  1  0.33057129  0.66619151  0.50201878  1
  Cu  Cu101  1  0.50516155  0.17013579  0.25441067  1
  Cu  Cu102  1  0.66358606  0.32962830  0.00942248  1
  Cu  Cu103  1  0.16995340  0.49785064  0.24986104  1
  Cu  Cu104  1  0.67989816  -0.01184182  0.50295025  1
  Cu  Cu105  1  0.83496421  0.49810268  0.74740638  1
  Cu  Cu106  1  0.82922594  0.82957846  0.25605215  1
  Cu  Cu107  1  0.33312226  0.32812584  0.00645704  1
  Cu  Cu108  1  0.00610484  -0.00147546  0.50524873  1
  Cu  Cu109  1  0.83236280  0.17510907  0.25146191  1
  Cu  Cu110  1  0.50097975  0.16775283  0.74288357  1
  Cu  Cu111  1  0.33631669  0.34084968  0.48881192  1
  Cu  Cu112  1  0.00077812  0.32673060  0.49949148  1
  Cu  Cu113  1  0.16278180  0.16896430  0.74698961  1
  Cu  Cu114  1  0.65548244  0.66386861  0.49870020  1
  Se  Se115  1  0.07245917  0.07391187  0.06232246  1
  Se  Se116  1  0.08820669  0.08515861  0.55727775  1
  Se  Se117  1  0.08347714  0.41133300  0.05302527  1
  Se  Se118  1  0.07767751  0.41602648  0.55617296  1
  Se  Se119  1  0.08724407  0.74649678  0.04484567  1
  Se  Se120  1  0.08924960  0.75334572  0.56362126  1
  Se  Se121  1  0.40754124  0.07388279  0.05337922  1
  Se  Se122  1  0.45145532  0.11443892  0.54994102  1
  Se  Se123  1  0.41093652  0.40657050  0.06970642  1
  Se  Se124  1  0.41766316  0.42075623  0.54619731  1
  Se  Se125  1  0.42465201  0.74640762  0.05448342  1
  Se  Se126  1  0.41749438  0.74722393  0.55494140  1
  Se  Se127  1  0.73899893  0.08360176  0.04642618  1
  Se  Se128  1  0.75634839  0.08101911  0.55141939  1
  Se  Se129  1  0.73668503  0.41886197  0.06684748  1
  Se  Se130  1  0.73719396  0.40639165  0.55672745  1
  Se  Se131  1  0.74876512  0.74815192  0.05886010  1
  Se  Se132  1  0.74604881  0.74236048  0.55098682  1
  Se  Se133  1  0.24988689  0.24636728  0.06408314  1
  Se  Se134  1  0.25255910  0.26132219  0.54611098  1
  Se  Se135  1  0.26274968  0.57927087  0.05523075  1
  Se  Se136  1  0.24512852  0.59794958  0.56763761  1
  Se  Se137  1  0.24658627  0.90433271  0.04865489  1
  Se  Se138  1  0.27704066  0.93749489  0.56256171  1
  Se  Se139  1  0.57515522  0.25149159  0.06210943  1
  Se  Se140  1  0.59073172  0.25367349  0.54407110  1
  Se  Se141  1  0.59304799  0.58978830  0.06134188  1
  Se  Se142  1  0.57423778  0.58027792  0.55311273  1
  Se  Se143  1  0.58592488  0.91288747  0.04283732  1
  Se  Se144  1  0.58473376  0.91100973  0.54932711  1
  Se  Se145  1  0.90772004  0.25311993  0.05276372  1
  Se  Se146  1  0.91967865  0.24664525  0.55655159  1
  Se  Se147  1  0.93317211  0.59407597  0.05165589  1
  Se  Se148  1  0.91923644  0.58584800  0.56331474  1
  Se  Se149  1  0.91946569  0.92086026  0.06265028  1
  Se  Se150  1  0.92030097  0.91403145  0.55604593  1
  Se  Se151  1  0.09003954  0.25004902  0.44610606  1
  Se  Se152  1  0.07769837  0.25213357  0.93828353  1
  Se  Se153  1  0.07462221  0.59378471  0.44691529  1
  Se  Se154  1  0.09968627  0.56598061  0.94067059  1
  Se  Se155  1  0.09058823  0.91214310  0.45473964  1
  Se  Se156  1  0.07777690  0.91567404  0.94520050  1
  Se  Se157  1  0.42016651  0.25436494  0.43927769  1
  Se  Se158  1  0.41871130  0.24606585  0.95583065  1
  Se  Se159  1  0.41074856  0.58413957  0.44371046  1
  Se  Se160  1  0.42294074  0.58822948  0.93650374  1
  Se  Se161  1  0.39767033  0.92720984  0.45873299  1
  Se  Se162  1  0.41702699  0.90817314  0.94210400  1
  Se  Se163  1  0.77032092  0.24181328  0.44691519  1
  Se  Se164  1  0.74654810  0.25319908  0.95008676  1
  Se  Se165  1  0.73410289  0.58347379  0.43651496  1
  Se  Se166  1  0.74972824  0.59036124  0.94173361  1
  Se  Se167  1  0.75937552  0.90335525  0.44721366  1
  Se  Se168  1  0.73652965  0.93269334  0.93836159  1
  Se  Se169  1  0.25592600  0.08690083  0.45514575  1
  Se  Se170  1  0.25556011  0.07171564  0.93574209  1
  Se  Se171  1  0.25868680  0.42249313  0.42767891  1
  Se  Se172  1  0.25132079  0.41259035  0.95422442  1
  Se  Se173  1  0.24403221  0.75085724  0.45255777  1
  Se  Se174  1  0.25317332  0.74317042  0.94396657  1
  Se  Se175  1  0.60308057  0.06421783  0.43755199  1
  Se  Se176  1  0.55803975  0.09956094  0.94382389  1
  Se  Se177  1  0.58402098  0.41812953  0.44094491  1
  Se  Se178  1  0.58709979  0.40894427  0.94507133  1
  Se  Se179  1  0.57487646  0.75346473  0.44700322  1
  Se  Se180  1  0.58190248  0.74677907  0.93856599  1
  Se  Se181  1  0.92369083  0.07928701  0.44795029  1
  Se  Se182  1  0.91148983  0.08841470  0.94635682  1
  Se  Se183  1  0.92294999  0.41305723  0.44148467  1
  Se  Se184  1  0.92171347  0.41233357  0.93718302  1
  Se  Se185  1  0.91684758  0.74986041  0.45301138  1
  Se  Se186  1  0.92361547  0.74369442  0.94019580  1
  Se  Se187  1  0.25109987  0.25137305  0.30390022  1
  Se  Se188  1  0.24448596  0.24249813  0.81104671  1
  Se  Se189  1  0.24678394  0.59031694  0.29972376  1
  Se  Se190  1  0.25512243  0.58152455  0.80385099  1
  Se  Se191  1  0.24382769  0.90564480  0.31286637  1
  Se  Se192  1  0.24588779  0.91397799  0.80855668  1
  Se  Se193  1  0.59077986  0.25037604  0.30756863  1
  Se  Se194  1  0.58012753  0.24383242  0.80677278  1
  Se  Se195  1  0.58828572  0.60196900  0.30226471  1
  Se  Se196  1  0.58783753  0.58613333  0.79721088  1
  Se  Se197  1  0.56812065  0.91232741  0.31020964  1
  Se  Se198  1  0.57149048  0.90735353  0.80447769  1
  Se  Se199  1  0.92275820  0.25383084  0.30271150  1
  Se  Se200  1  0.91771913  0.25436804  0.80051094  1
  Se  Se201  1  0.90822608  0.58259862  0.31691077  1
  Se  Se202  1  0.91758568  0.58338773  0.80000049  1
  Se  Se203  1  0.90943223  0.91121006  0.31292187  1
  Se  Se204  1  0.91817132  0.91652339  0.80330435  1
  Se  Se205  1  0.09337197  0.08580385  0.31925396  1
  Se  Se206  1  0.07953617  0.08470977  0.79899206  1
  Se  Se207  1  0.08098525  0.41650518  0.29879619  1
  Se  Se208  1  0.08479031  0.41149447  0.79946540  1
  Se  Se209  1  0.08385385  0.75547432  0.31060928  1
  Se  Se210  1  0.08607247  0.74507095  0.80183882  1
  Se  Se211  1  0.42545602  0.08946829  0.31488508  1
  Se  Se212  1  0.41940063  0.08661567  0.80197908  1
  Se  Se213  1  0.40959942  0.40728765  0.29640641  1
  Se  Se214  1  0.42380753  0.42498165  0.81198896  1
  Se  Se215  1  0.40899640  0.75136038  0.30852169  1
  Se  Se216  1  0.39938585  0.74325560  0.79283100  1
  Se  Se217  1  0.75431222  0.09717786  0.31395569  1
  Se  Se218  1  0.75439195  0.09414130  0.80716066  1
  Se  Se219  1  0.75075028  0.41698166  0.29972439  1
  Se  Se220  1  0.75317108  0.42634013  0.81313600  1
  Se  Se221  1  0.74194660  0.75002109  0.30620147  1
  Se  Se222  1  0.74767796  0.75168767  0.79961087  1
  Se  Se223  1  0.23857195  0.08602764  0.19477239  1
  Se  Se224  1  0.24563109  0.09737355  0.68371433  1
  Se  Se225  1  0.25215184  0.41175836  0.19825241  1
  Se  Se226  1  0.24482018  0.42560657  0.68646916  1
  Se  Se227  1  0.25606847  0.74628321  0.19367164  1
  Se  Se228  1  0.27344270  0.74705737  0.70661986  1
  Se  Se229  1  0.57622362  0.08576326  0.19038119  1
  Se  Se230  1  0.57817682  0.08147027  0.68674692  1
  Se  Se231  1  0.58225231  0.41837598  0.21029773  1
  Se  Se232  1  0.57064116  0.41302799  0.68642425  1
  Se  Se233  1  0.58252681  0.75268624  0.19669986  1
  Se  Se234  1  0.59101406  0.74116136  0.69676271  1
  Se  Se235  1  0.90491071  0.08761767  0.19114017  1
  Se  Se236  1  0.92252452  0.07895645  0.69847705  1
  Se  Se237  1  0.92006521  0.42156530  0.19716024  1
  Se  Se238  1  0.91681259  0.41163032  0.69694301  1
  Se  Se239  1  0.91324802  0.75819510  0.19243743  1
  Se  Se240  1  0.91779716  0.74920821  0.69635118  1
  Se  Se241  1  0.07840144  0.24828502  0.19816673  1
  Se  Se242  1  0.08079616  0.25500550  0.69578163  1
  Se  Se243  1  0.09532024  0.57976701  0.18477039  1
  Se  Se244  1  0.08143531  0.58703030  0.70251504  1
  Se  Se245  1  0.08779676  0.91104939  0.19490400  1
  Se  Se246  1  0.09531966  0.90996112  0.69910231  1
  Se  Se247  1  0.41337383  0.24555745  0.20217791  1
  Se  Se248  1  0.41433715  0.24411232  0.68592555  1
  Se  Se249  1  0.42947173  0.57423311  0.20443467  1
  Se  Se250  1  0.41583854  0.58265744  0.69533629  1
  Se  Se251  1  0.42119670  0.91652193  0.18888058  1
  Se  Se252  1  0.43242139  0.91105860  0.68915661  1
  Se  Se253  1  0.74694252  0.25353714  0.19537771  1
  Se  Se254  1  0.75232843  0.23955867  0.68473823  1
  Se  Se255  1  0.75499190  0.59167892  0.20003396  1
  Se  Se256  1  0.74865075  0.57826163  0.69434369  1
  Se  Se257  1  0.75255141  0.91136611  0.19391132  1
  Se  Se258  1  0.75530001  0.91022503  0.68466173  1
