# generated using pymatgen
data_In86Cu29Se144
_symmetry_space_group_name_H-M   'P 1'
_cell_length_a   17.58225157
_cell_length_b   17.58493100
_cell_length_c   23.44045668
_cell_angle_alpha   89.98326828
_cell_angle_beta   90.04201971
_cell_angle_gamma   89.98002902
_symmetry_Int_Tables_number   1
_chemical_formula_structural   In86Cu29Se144
_chemical_formula_sum   'In86 Cu29 Se144'
_cell_volume   7247.38053255
_cell_formula_units_Z   1
loop_
 _symmetry_equiv_pos_site_id
 _symmetry_equiv_pos_as_xyz
  1  'x, y, z'
loop_
 _atom_site_type_symbol
 _atom_site_label
 _atom_site_symmetry_multiplicity
 _atom_site_fract_x
 _atom_site_fract_y
 _atom_site_fract_z
 _atom_site_occupancy
  In  In0  1  0.01548469  0.17950891  0.11259086  1
  In  In1  1  0.00456306  0.17686912  0.63992193  1
  In  In2  1  -0.00990700  0.48918076  0.11601632  1
  In  In3  1  -0.01557360  0.48130987  0.60804791  1
  In  In4  1  -0.00711421  0.83454598  0.12462705  1
  In  In5  1  -0.00108888  0.83910960  0.62327222  1
  In  In6  1  0.32461155  0.17629476  0.13346736  1
  In  In7  1  0.32847089  0.16831625  0.63761629  1
  In  In8  1  0.33138566  0.49615865  0.13030268  1
  In  In9  1  0.32175753  0.49402136  0.61116437  1
  In  In10  1  0.34590258  0.82546720  0.12737182  1
  In  In11  1  0.34539943  0.84327072  0.62428735  1
  In  In12  1  0.67177847  0.16069209  0.12740846  1
  In  In13  1  0.67606981  0.17410624  0.63010727  1
  In  In14  1  0.66832778  0.48721504  0.12555381  1
  In  In15  1  0.66949130  0.49821734  0.62305051  1
  In  In16  1  0.66758961  0.85039667  0.12704606  1
  In  In17  1  0.65184277  0.81722694  0.62300293  1
  In  In18  1  0.18373078  -0.00687404  0.37540759  1
  In  In19  1  0.17141488  0.01879671  0.86111721  1
  In  In20  1  0.16938996  0.33506393  0.37178541  1
  In  In21  1  0.16804326  0.33052417  0.87526855  1
  In  In22  1  0.17116547  0.64686990  0.37994809  1
  In  In23  1  0.15611446  0.65781233  0.87371124  1
  In  In24  1  0.49106980  -0.01383512  0.36912087  1
  In  In25  1  0.48644008  -0.00028845  0.87782928  1
  In  In26  1  0.50980541  0.33702316  0.36742024  1
  In  In27  1  0.49747439  0.33378901  0.86674288  1
  In  In28  1  0.48982457  0.67514652  0.38147519  1
  In  In29  1  0.51411792  0.66853198  0.87203326  1
  In  In30  1  0.82033817  0.00080665  0.37764016  1
  In  In31  1  0.85319561  0.00117209  0.86878795  1
  In  In32  1  0.83605212  0.33933961  0.36827331  1
  In  In33  1  0.83526750  0.33718132  0.87635008  1
  In  In34  1  0.85196748  0.65362191  0.39733329  1
  In  In35  1  0.82273148  0.66812588  0.87192736  1
  In  In36  1  -0.00659586  0.18098845  0.37276143  1
  In  In37  1  -0.00211822  0.16961491  0.87486575  1
  In  In38  1  0.01168200  0.48032792  0.39324796  1
  In  In39  1  0.01231775  0.48742008  0.88068493  1
  In  In40  1  0.00100107  0.81648960  0.38506641  1
  In  In41  1  -0.01540294  0.85080810  0.86652716  1
  In  In42  1  0.33884672  0.16333222  0.36283640  1
  In  In43  1  0.32430505  0.16393041  0.86757553  1
  In  In44  1  0.33277990  0.49866407  0.37412383  1
  In  In45  1  0.33002903  0.48382544  0.87423865  1
  In  In46  1  0.35041203  0.84427375  0.36961081  1
  In  In47  1  0.33018883  0.84655678  0.87515973  1
  In  In48  1  0.65790265  0.16313465  0.35746745  1
  In  In49  1  0.66488663  0.18377960  0.87601691  1
  In  In50  1  0.67626518  0.49062183  0.37996494  1
  In  In51  1  0.67214087  0.51272454  0.86694263  1
  In  In52  1  0.66021769  0.83337630  0.38268344  1
  In  In53  1  0.66811706  0.82185307  0.87094679  1
  In  In54  1  0.16427341  0.01380779  0.12288558  1
  In  In55  1  0.16683934  0.00515329  0.63718187  1
  In  In56  1  0.16480851  0.33205549  0.12542780  1
  In  In57  1  0.15930381  0.33915992  0.63778803  1
  In  In58  1  0.18429342  0.65774812  0.12613720  1
  In  In59  1  0.17017814  0.65735549  0.62163517  1
  In  In60  1  0.51061563  -0.00300293  0.13011104  1
  In  In61  1  0.48971312  -0.01731288  0.62445364  1
  In  In62  1  0.50483190  0.31973576  0.14369380  1
  In  In63  1  0.49150348  0.34344215  0.62626189  1
  In  In64  1  0.48703604  0.66344479  0.12601159  1
  In  In65  1  0.51039953  0.67330725  0.61724138  1
  In  In66  1  0.81808422  0.00326917  0.12784332  1
  In  In67  1  0.84272902  0.00228984  0.62696102  1
  In  In68  1  0.83609362  0.33285814  0.12150290  1
  In  In69  1  0.83146259  0.33625754  0.63065807  1
  In  In70  1  0.84568281  0.66218953  0.12658423  1
  In  In71  1  0.82760271  0.65216178  0.61643524  1
  In  In72  1  0.33951553  0.67207967  0.74074379  1
  In  In73  1  0.17039887  0.83032457  0.50820396  1
  In  In74  1  0.83308463  0.17228813  0.50275016  1
  In  In75  1  0.00226597  0.00536945  0.24869855  1
  In  In76  1  0.00866294  0.65771956  0.26305247  1
  In  In77  1  0.49840164  0.16435078  0.49663290  1
  In  In78  1  0.16400964  0.82777148  -0.00286022  1
  In  In79  1  -0.00416812  0.66444204  0.74495937  1
  In  In80  1  0.17192666  0.17045451  0.49568119  1
  In  In81  1  0.66159560  -0.00000242  0.74798773  1
  In  In82  1  0.49562871  0.16616633  0.01075292  1
  In  In83  1  0.49676206  0.49707150  0.00501667  1
  In  In84  1  0.82970642  0.83403864  -0.00665472  1
  In  In85  1  0.66604176  0.66983438  0.26246400  1
  Cu  Cu86  1  0.83461650  0.17289424  0.24603378  1
  Cu  Cu87  1  0.00399205  0.00314730  0.50538571  1
  Cu  Cu88  1  0.33648013  0.66084056  0.00387288  1
  Cu  Cu89  1  0.32670365  0.00050235  -0.00348712  1
  Cu  Cu90  1  0.50019689  0.16970607  0.75292469  1
  Cu  Cu91  1  0.00123399  0.33173756  -0.00206268  1
  Cu  Cu92  1  0.66508826  0.00237129  0.00267411  1
  Cu  Cu93  1  0.83052665  0.49202528  0.24986562  1
  Cu  Cu94  1  0.16962641  0.49306483  0.74811044  1
  Cu  Cu95  1  0.50396836  0.83395367  0.25298671  1
  Cu  Cu96  1  0.50462951  0.50331758  0.74481703  1
  Cu  Cu97  1  0.32724548  0.32882194  0.00225992  1
  Cu  Cu98  1  0.49380068  0.50052937  0.25243031  1
  Cu  Cu99  1  0.67007009  0.66810711  -0.00436338  1
  Cu  Cu100  1  -0.00095908  0.00996382  -0.00600893  1
  Cu  Cu101  1  0.33134230  0.66443663  0.49861740  1
  Cu  Cu102  1  0.83570550  0.49646035  0.74683798  1
  Cu  Cu103  1  0.16101902  0.84272222  0.74834122  1
  Cu  Cu104  1  0.00131973  0.65668689  -0.00096397  1
  Cu  Cu105  1  0.66397240  0.66094743  0.49832875  1
  Cu  Cu106  1  0.67330441  0.34154135  -0.00204448  1
  Cu  Cu107  1  0.66109513  -0.00985867  0.50031174  1
  Cu  Cu108  1  0.66835329  0.33517646  0.49702288  1
  Cu  Cu109  1  0.83249158  0.83480221  0.26013612  1
  Cu  Cu110  1  0.16510858  0.16885866  0.24652672  1
  Cu  Cu111  1  0.33003612  0.34016255  0.49763815  1
  Cu  Cu112  1  0.18216608  0.83541931  0.24908190  1
  Cu  Cu113  1  0.83262909  0.17634148  0.75451127  1
  Cu  Cu114  1  0.16641351  0.49473655  0.25115857  1
  Se  Se115  1  0.08915586  0.08643195  0.04573487  1
  Se  Se116  1  0.08082129  0.08658792  0.56223004  1
  Se  Se117  1  0.08536992  0.41444623  0.05308206  1
  Se  Se118  1  0.09702067  0.41669057  0.55687657  1
  Se  Se119  1  0.07567927  0.73818017  0.06233925  1
  Se  Se120  1  0.07366858  0.73928396  0.55854477  1
  Se  Se121  1  0.40356426  0.07387940  0.06498481  1
  Se  Se122  1  0.40937855  0.08354883  0.56301763  1
  Se  Se123  1  0.41540136  0.39927080  0.06438217  1
  Se  Se124  1  0.42010908  0.41989630  0.54779823  1
  Se  Se125  1  0.42087600  0.74859517  0.05014170  1
  Se  Se126  1  0.41025259  0.74780450  0.55551810  1
  Se  Se127  1  0.75129369  0.08602101  0.05125539  1
  Se  Se128  1  0.74002727  0.07568918  0.55763305  1
  Se  Se129  1  0.75665920  0.42283227  0.05229507  1
  Se  Se130  1  0.75287456  0.41181919  0.55497474  1
  Se  Se131  1  0.74651196  0.74617454  0.06314215  1
  Se  Se132  1  0.74353652  0.74485929  0.55467443  1
  Se  Se133  1  0.24483105  0.24452492  0.05565674  1
  Se  Se134  1  0.25747469  0.25756080  0.56067598  1
  Se  Se135  1  0.25463768  0.57323241  0.05266597  1
  Se  Se136  1  0.24104715  0.58104893  0.54352405  1
  Se  Se137  1  0.25087108  0.91672230  0.06008442  1
  Se  Se138  1  0.25355412  0.93188664  0.56053285  1
  Se  Se139  1  0.59159564  0.26272133  0.05912403  1
  Se  Se140  1  0.58942284  0.25388944  0.55782508  1
  Se  Se141  1  0.59185120  0.59039669  0.06068054  1
  Se  Se142  1  0.58246261  0.57684268  0.55302716  1
  Se  Se143  1  0.58169853  0.91654894  0.05207635  1
  Se  Se144  1  0.57677957  0.91013312  0.55424759  1
  Se  Se145  1  0.91524783  0.24895585  0.05030026  1
  Se  Se146  1  0.92693465  0.25605936  0.56194733  1
  Se  Se147  1  0.91045686  0.58019674  0.05008249  1
  Se  Se148  1  0.92189621  0.58564523  0.54836321  1
  Se  Se149  1  0.92027061  0.92755482  0.05526462  1
  Se  Se150  1  0.91616024  0.92038530  0.55273558  1
  Se  Se151  1  0.07398398  0.26108913  0.44553208  1
  Se  Se152  1  0.08433881  0.24834713  0.94392483  1
  Se  Se153  1  0.05376595  0.60815085  0.43730781  1
  Se  Se154  1  0.09068860  0.57601573  0.95008029  1
  Se  Se155  1  0.08255575  0.92412609  0.44299887  1
  Se  Se156  1  0.07707769  0.92113244  0.93853608  1
  Se  Se157  1  0.40950870  0.25776776  0.43785374  1
  Se  Se158  1  0.41412515  0.25449386  0.94293825  1
  Se  Se159  1  0.41468984  0.58054612  0.44549263  1
  Se  Se160  1  0.41413613  0.58551260  0.93699026  1
  Se  Se161  1  0.42026530  0.91594565  0.44922603  1
  Se  Se162  1  0.41422136  0.91465171  0.95129580  1
  Se  Se163  1  0.73981528  0.24829832  0.43526410  1
  Se  Se164  1  0.75298926  0.25267423  0.94711165  1
  Se  Se165  1  0.75086043  0.57485527  0.45177004  1
  Se  Se166  1  0.75197090  0.58251112  0.94544928  1
  Se  Se167  1  0.75145751  0.91282147  0.44898046  1
  Se  Se168  1  0.74270924  0.92795858  0.93553104  1
  Se  Se169  1  0.26750766  0.07850720  0.44339961  1
  Se  Se170  1  0.24739044  0.08545803  0.94254510  1
  Se  Se171  1  0.24426286  0.42020242  0.44355813  1
  Se  Se172  1  0.24742008  0.41553645  0.94901048  1
  Se  Se173  1  0.25598660  0.74971362  0.43699301  1
  Se  Se174  1  0.25711385  0.73721037  0.93816365  1
  Se  Se175  1  0.59157091  0.07677028  0.43781462  1
  Se  Se176  1  0.58471150  0.08343328  0.94183443  1
  Se  Se177  1  0.58059938  0.41567474  0.44521958  1
  Se  Se178  1  0.58679699  0.41560431  0.93855158  1
  Se  Se179  1  0.57943770  0.74872564  0.45026131  1
  Se  Se180  1  0.58462202  0.75241464  0.94723736  1
  Se  Se181  1  0.92431312  0.07980579  0.44129758  1
  Se  Se182  1  0.90859049  0.09008726  0.94563774  1
  Se  Se183  1  0.90655974  0.40994128  0.44812352  1
  Se  Se184  1  0.91703079  0.41856145  0.94781020  1
  Se  Se185  1  0.90463560  0.76587181  0.45655207  1
  Se  Se186  1  0.92765557  0.74362994  0.93858475  1
  Se  Se187  1  0.24800512  0.24948832  0.30334261  1
  Se  Se188  1  0.27273200  0.27487577  0.80867865  1
  Se  Se189  1  0.25012722  0.58087441  0.30169163  1
  Se  Se190  1  0.24782564  0.58116792  0.80370643  1
  Se  Se191  1  0.26279827  0.92285288  0.29956699  1
  Se  Se192  1  0.24886116  0.92018705  0.80204144  1
  Se  Se193  1  0.58298421  0.25477132  0.29446980  1
  Se  Se194  1  0.58621681  0.25524502  0.79963590  1
  Se  Se195  1  0.57481985  0.57617933  0.31621751  1
  Se  Se196  1  0.58629822  0.58938537  0.79644937  1
  Se  Se197  1  0.59120777  0.91412382  0.30517191  1
  Se  Se198  1  0.57437500  0.91277112  0.81122864  1
  Se  Se199  1  0.91835836  0.25660814  0.29769098  1
  Se  Se200  1  0.91963999  0.25793247  0.80585599  1
  Se  Se201  1  0.90989061  0.56938713  0.31311290  1
  Se  Se202  1  0.91517960  0.57373823  0.81204924  1
  Se  Se203  1  0.92137134  0.91337816  0.31503119  1
  Se  Se204  1  0.89145648  0.90359769  0.79218439  1
  Se  Se205  1  0.09204599  0.08996265  0.31454678  1
  Se  Se206  1  0.04749969  0.05722607  0.81183677  1
  Se  Se207  1  0.07918070  0.41775407  0.30667198  1
  Se  Se208  1  0.08539043  0.41300354  0.80334681  1
  Se  Se209  1  0.10097553  0.75906768  0.31139804  1
  Se  Se210  1  0.08521953  0.75882352  0.80775332  1
  Se  Se211  1  0.43287181  0.08698879  0.30226782  1
  Se  Se212  1  0.41755604  0.08456483  0.80435697  1
  Se  Se213  1  0.41285491  0.41401791  0.30484399  1
  Se  Se214  1  0.41994182  0.42327863  0.79977334  1
  Se  Se215  1  0.41785565  0.74777123  0.30110090  1
  Se  Se216  1  0.41911466  0.75642330  0.81106917  1
  Se  Se217  1  0.75766415  0.08396864  0.29971312  1
  Se  Se218  1  0.75072316  0.09083625  0.81024039  1
  Se  Se219  1  0.74194495  0.41136452  0.30020448  1
  Se  Se220  1  0.75126385  0.41870431  0.80551947  1
  Se  Se221  1  0.76413908  0.74837899  0.32233930  1
  Se  Se222  1  0.75887069  0.75734353  0.80043105  1
  Se  Se223  1  0.24750195  0.08018967  0.19833287  1
  Se  Se224  1  0.24075720  0.09237737  0.70550760  1
  Se  Se225  1  0.24897510  0.41086483  0.19673844  1
  Se  Se226  1  0.26048154  0.41834392  0.69437299  1
  Se  Se227  1  0.25670621  0.74659034  0.19447894  1
  Se  Se228  1  0.23831534  0.76100798  0.68726477  1
  Se  Se229  1  0.58207329  0.09003196  0.19525645  1
  Se  Se230  1  0.57298409  0.09089131  0.68571790  1
  Se  Se231  1  0.58186945  0.42216614  0.19949007  1
  Se  Se232  1  0.58609430  0.41556626  0.69295685  1
  Se  Se233  1  0.58233856  0.75265875  0.19068422  1
  Se  Se234  1  0.56759318  0.75273884  0.69906086  1
  Se  Se235  1  0.91612620  0.09229276  0.18458571  1
  Se  Se236  1  0.91067965  0.09202812  0.69769919  1
  Se  Se237  1  0.91713576  0.41537560  0.19395663  1
  Se  Se238  1  0.92375808  0.41563854  0.69591555  1
  Se  Se239  1  0.91503053  0.75464038  0.20231583  1
  Se  Se240  1  0.90668034  0.75054492  0.68437093  1
  Se  Se241  1  0.07898228  0.25147255  0.19613269  1
  Se  Se242  1  0.10700068  0.23414051  0.70478813  1
  Se  Se243  1  0.08618907  0.57489293  0.18888128  1
  Se  Se244  1  0.08665319  0.57170644  0.68922547  1
  Se  Se245  1  0.09195413  0.90730324  0.19075704  1
  Se  Se246  1  0.07291554  0.92157925  0.69629796  1
  Se  Se247  1  0.41099987  0.24599449  0.20518891  1
  Se  Se248  1  0.41962847  0.25401297  0.69667339  1
  Se  Se249  1  0.41184625  0.58338499  0.19834343  1
  Se  Se250  1  0.41975548  0.57508300  0.68097076  1
  Se  Se251  1  0.42185683  0.91449419  0.19491012  1
  Se  Se252  1  0.40825408  0.92208432  0.70366535  1
  Se  Se253  1  0.75048564  0.25383301  0.19109421  1
  Se  Se254  1  0.74729725  0.25836879  0.70235868  1
  Se  Se255  1  0.75413356  0.58221736  0.19501394  1
  Se  Se256  1  0.75148589  0.58020181  0.69486374  1
  Se  Se257  1  0.75266873  0.91623371  0.20316026  1
  Se  Se258  1  0.74520341  0.91429414  0.68217859  1
