# generated using pymatgen
data_In86Cu29Se144
_symmetry_space_group_name_H-M   'P 1'
_cell_length_a   17.57789622
_cell_length_b   17.57888954
_cell_length_c   23.43139766
_cell_angle_alpha   89.97176903
_cell_angle_beta   90.01544595
_cell_angle_gamma   90.02721526
_symmetry_Int_Tables_number   1
_chemical_formula_structural   In86Cu29Se144
_chemical_formula_sum   'In86 Cu29 Se144'
_cell_volume   7240.29748265
_cell_formula_units_Z   1
loop_
 _symmetry_equiv_pos_site_id
 _symmetry_equiv_pos_as_xyz
  1  'x, y, z'
loop_
 _atom_site_type_symbol
 _atom_site_label
 _atom_site_symmetry_multiplicity
 _atom_site_fract_x
 _atom_site_fract_y
 _atom_site_fract_z
 _atom_site_occupancy
  In  In0  1  -0.00794599  0.16245937  0.11155420  1
  In  In1  1  0.01136710  0.15678364  0.63294653  1
  In  In2  1  -0.00485263  0.51142775  0.12074202  1
  In  In3  1  -0.01004634  0.48422259  0.62314410  1
  In  In4  1  0.01517749  0.84285339  0.10653701  1
  In  In5  1  0.00623664  0.84217116  0.63216787  1
  In  In6  1  0.32311997  0.15681150  0.10272482  1
  In  In7  1  0.33386460  0.16757264  0.62980712  1
  In  In8  1  0.34837915  0.49054490  0.12366858  1
  In  In9  1  0.32419616  0.48809210  0.61947393  1
  In  In10  1  0.35277653  0.85946900  0.10629641  1
  In  In11  1  0.34549978  0.82971978  0.62963967  1
  In  In12  1  0.66254058  0.16503875  0.11323068  1
  In  In13  1  0.64958746  0.16492093  0.62682072  1
  In  In14  1  0.66756420  0.50261771  0.12526612  1
  In  In15  1  0.66152711  0.48124554  0.60779139  1
  In  In16  1  0.65560821  0.82195749  0.12119693  1
  In  In17  1  0.66183445  0.84485290  0.62979472  1
  In  In18  1  0.17706617  0.00688195  0.36770797  1
  In  In19  1  0.17086946  0.01664744  0.87787889  1
  In  In20  1  0.17494459  0.32317130  0.38716168  1
  In  In21  1  0.15716494  0.32362927  0.87210352  1
  In  In22  1  0.15738124  0.66307566  0.37572550  1
  In  In23  1  0.17797409  0.67331877  0.87864734  1
  In  In24  1  0.48086360  0.01518108  0.38474394  1
  In  In25  1  0.49712534  0.00106826  0.88002722  1
  In  In26  1  0.50232314  0.33240131  0.38135097  1
  In  In27  1  0.48703619  0.33805771  0.88281395  1
  In  In28  1  0.51018102  0.65695248  0.37675590  1
  In  In29  1  0.49930223  0.67294314  0.88281407  1
  In  In30  1  0.83252695  -0.01081211  0.36822855  1
  In  In31  1  0.83324028  0.00410597  0.87482798  1
  In  In32  1  0.84219141  0.33448078  0.37589266  1
  In  In33  1  0.85896558  0.31659167  0.89519585  1
  In  In34  1  0.82221985  0.66861201  0.36989856  1
  In  In35  1  0.84061780  0.66434886  0.88986304  1
  In  In36  1  0.01347773  0.16755804  0.37212877  1
  In  In37  1  0.00664152  0.17061051  0.87588507  1
  In  In38  1  0.00682926  0.49421921  0.38356722  1
  In  In39  1  0.00179873  0.48423992  0.87588346  1
  In  In40  1  -0.00896868  0.83703166  0.36903929  1
  In  In41  1  -0.01561987  0.84691228  0.88870198  1
  In  In42  1  0.34010561  0.15502611  0.37988435  1
  In  In43  1  0.33716208  0.16607377  0.88248924  1
  In  In44  1  0.34143386  0.48872773  0.38303680  1
  In  In45  1  0.34234409  0.50248125  0.87530311  1
  In  In46  1  0.33258087  0.85303409  0.37321260  1
  In  In47  1  0.30986659  0.87042113  0.90836947  1
  In  In48  1  0.65473303  0.15735757  0.37431889  1
  In  In49  1  0.67481820  0.16259230  0.87905059  1
  In  In50  1  0.64980500  0.51400206  0.38474562  1
  In  In51  1  0.66485702  0.49891884  0.87568948  1
  In  In52  1  0.66309788  0.81953180  0.36757500  1
  In  In53  1  0.65637346  0.84770905  0.88502815  1
  In  In54  1  0.16888387  -0.00081420  0.11630544  1
  In  In55  1  0.16344290  0.01215426  0.63498509  1
  In  In56  1  0.18311341  0.32089784  0.11383559  1
  In  In57  1  0.16844485  0.32827860  0.62907014  1
  In  In58  1  0.15516613  0.67807896  0.12194465  1
  In  In59  1  0.18160155  0.66442485  0.62628743  1
  In  In60  1  0.49540329  0.00716743  0.11851097  1
  In  In61  1  0.49436794  0.00069821  0.62988966  1
  In  In62  1  0.49043106  0.33369110  0.10978069  1
  In  In63  1  0.49174484  0.31729768  0.61567173  1
  In  In64  1  0.50775792  0.66869880  0.12892512  1
  In  In65  1  0.50532284  0.66812848  0.61920641  1
  In  In66  1  0.84369851  0.00930452  0.11435355  1
  In  In67  1  0.83200150  0.00163430  0.63800946  1
  In  In68  1  0.83043863  0.32827449  0.10926571  1
  In  In69  1  0.82842215  0.34295569  0.62675867  1
  In  In70  1  0.82651877  0.65576909  0.11391038  1
  In  In71  1  0.83678127  0.65173483  0.62858637  1
  In  In72  1  0.66948942  0.66772553  0.75282981  1
  In  In73  1  0.33288928  0.67260330  0.24274962  1
  In  In74  1  0.00067276  0.33253157  0.23932034  1
  In  In75  1  0.66664428  0.32868552  0.74999299  1
  In  In76  1  0.16800764  0.83230029  0.50041098  1
  In  In77  1  0.33790769  0.67319898  0.75614637  1
  In  In78  1  0.66178180  0.33574006  0.25406668  1
  In  In79  1  0.34045912  0.32278224  0.25025659  1
  In  In80  1  0.65813378  -0.00525240  0.24033804  1
  In  In81  1  0.82885098  0.17002584  0.50116150  1
  In  In82  1  0.16592670  0.50178276  0.00084367  1
  In  In83  1  0.82718587  0.82831243  0.49510082  1
  In  In84  1  0.00254775  0.67124368  0.75196342  1
  In  In85  1  -0.00399498  0.67418826  0.24425249  1
  Cu  Cu86  1  0.83913899  0.16487571  0.75907122  1
  Cu  Cu87  1  0.84091138  0.83973109  0.24115478  1
  Cu  Cu88  1  0.66913075  0.66419026  0.49679312  1
  Cu  Cu89  1  0.66378259  0.66347528  0.00233926  1
  Cu  Cu90  1  0.83329998  0.16105523  0.23801543  1
  Cu  Cu91  1  0.16415471  0.48928460  0.74572768  1
  Cu  Cu92  1  0.49044935  0.49340965  0.74726093  1
  Cu  Cu93  1  0.66121837  0.34104100  -0.00433559  1
  Cu  Cu94  1  -0.00076791  0.00256528  0.50250849  1
  Cu  Cu95  1  0.49392684  0.84492614  0.76018893  1
  Cu  Cu96  1  0.33307567  0.00373869  0.50454294  1
  Cu  Cu97  1  0.33043251  0.33245062  0.50487977  1
  Cu  Cu98  1  0.83181654  0.48989506  0.75335550  1
  Cu  Cu99  1  0.16917017  0.15332831  0.24347836  1
  Cu  Cu100  1  0.82696456  0.50799870  0.24757763  1
  Cu  Cu101  1  0.17322220  0.16792305  0.75480735  1
  Cu  Cu102  1  0.17008294  0.84678173  0.24006043  1
  Cu  Cu103  1  0.49517411  0.16208341  0.75332163  1
  Cu  Cu104  1  0.65086648  -0.00129584  0.50353966  1
  Cu  Cu105  1  0.16467651  0.85018072  0.76184624  1
  Cu  Cu106  1  0.33941696  0.66636993  0.00450615  1
  Cu  Cu107  1  0.33896199  0.66483805  0.50006235  1
  Cu  Cu108  1  0.49456620  0.83812241  0.24586057  1
  Cu  Cu109  1  0.00422857  0.00695703  -0.00683863  1
  Cu  Cu110  1  0.67565789  0.00050863  0.00008037  1
  Cu  Cu111  1  0.17294314  0.49434258  0.25533488  1
  Cu  Cu112  1  0.00243888  0.65332018  0.50332064  1
  Cu  Cu113  1  0.00609464  0.32953331  0.50435905  1
  Cu  Cu114  1  0.82878707  0.83851639  0.76073978  1
  Se  Se115  1  0.08798075  0.08750456  0.04887745  1
  Se  Se116  1  0.08606729  0.08097646  0.55525649  1
  Se  Se117  1  0.08017244  0.41199171  0.06455383  1
  Se  Se118  1  0.08762663  0.41437425  0.55878518  1
  Se  Se119  1  0.07345826  0.73609567  0.04366880  1
  Se  Se120  1  0.07534278  0.74163895  0.56258403  1
  Se  Se121  1  0.41277545  0.07268979  0.04124439  1
  Se  Se122  1  0.41733666  0.08622569  0.55883883  1
  Se  Se123  1  0.40256556  0.41166653  0.04251676  1
  Se  Se124  1  0.41883888  0.41660379  0.55323126  1
  Se  Se125  1  0.42478694  0.74830084  0.05763033  1
  Se  Se126  1  0.41795786  0.75108110  0.55391245  1
  Se  Se127  1  0.75721989  0.09164510  0.04856388  1
  Se  Se128  1  0.74377686  0.07163287  0.55992083  1
  Se  Se129  1  0.74521998  0.42095181  0.05245120  1
  Se  Se130  1  0.76290232  0.41570880  0.54637212  1
  Se  Se131  1  0.74738038  0.75095250  0.05228754  1
  Se  Se132  1  0.74351679  0.74164975  0.56519740  1
  Se  Se133  1  0.25494480  0.25259866  0.03493764  1
  Se  Se134  1  0.24943412  0.24629126  0.55825315  1
  Se  Se135  1  0.25708997  0.58920687  0.06630833  1
  Se  Se136  1  0.25233242  0.58365018  0.55195061  1
  Se  Se137  1  0.23891569  0.90523319  0.04718660  1
  Se  Se138  1  0.25339633  0.92020026  0.56461317  1
  Se  Se139  1  0.58160448  0.25183389  0.04728123  1
  Se  Se140  1  0.60062471  0.26149104  0.55451898  1
  Se  Se141  1  0.57943751  0.58120558  0.05685430  1
  Se  Se142  1  0.58408939  0.58235938  0.55137276  1
  Se  Se143  1  0.59025584  0.92439775  0.05849714  1
  Se  Se144  1  0.57327614  0.91276188  0.55852296  1
  Se  Se145  1  0.92618728  0.25987191  0.04553022  1
  Se  Se146  1  0.92396092  0.24979756  0.56466635  1
  Se  Se147  1  0.91471575  0.57964066  0.04608929  1
  Se  Se148  1  0.91349922  0.57493251  0.55479852  1
  Se  Se149  1  0.91976271  0.92198881  0.04545552  1
  Se  Se150  1  0.91690954  0.91960084  0.55814785  1
  Se  Se151  1  0.08437545  0.24178856  0.45088673  1
  Se  Se152  1  0.07001750  0.26391900  0.94847073  1
  Se  Se153  1  0.09174429  0.57709608  0.45047173  1
  Se  Se154  1  0.07942015  0.58864931  0.93574235  1
  Se  Se155  1  0.07638723  0.92092583  0.43958036  1
  Se  Se156  1  0.08918281  0.92223723  0.94261201  1
  Se  Se157  1  0.41061639  0.25213961  0.44483242  1
  Se  Se158  1  0.43394376  0.23550531  0.94957814  1
  Se  Se159  1  0.42104714  0.58137426  0.44556451  1
  Se  Se160  1  0.41826492  0.58376392  0.94789268  1
  Se  Se161  1  0.41411444  0.91657553  0.45203704  1
  Se  Se162  1  0.43852275  0.90350233  0.95199676  1
  Se  Se163  1  0.74150418  0.25308982  0.43510305  1
  Se  Se164  1  0.74695195  0.25318432  0.94881314  1
  Se  Se165  1  0.75583060  0.58378659  0.44444108  1
  Se  Se166  1  0.74443596  0.58139573  0.94613137  1
  Se  Se167  1  0.73432060  0.92387332  0.44049079  1
  Se  Se168  1  0.75832785  0.91628552  0.94684768  1
  Se  Se169  1  0.24660579  0.08116799  0.44780454  1
  Se  Se170  1  0.25419512  0.08570343  0.95311698  1
  Se  Se171  1  0.24820122  0.41827054  0.45085887  1
  Se  Se172  1  0.24998546  0.41549591  0.93590902  1
  Se  Se173  1  0.25868655  0.74394588  0.43748731  1
  Se  Se174  1  0.25169920  0.74847101  0.95498511  1
  Se  Se175  1  0.57483076  0.08914580  0.45151684  1
  Se  Se176  1  0.58973120  0.08062427  0.94611197  1
  Se  Se177  1  0.58457011  0.41439715  0.44761137  1
  Se  Se178  1  0.57630923  0.42437791  0.94443538  1
  Se  Se179  1  0.58538630  0.74958465  0.44533737  1
  Se  Se180  1  0.58462450  0.75209459  0.95053981  1
  Se  Se181  1  0.91707842  0.07653236  0.43866265  1
  Se  Se182  1  0.91663491  0.08866831  0.94206379  1
  Se  Se183  1  0.92221705  0.41048036  0.44893629  1
  Se  Se184  1  0.90436523  0.43642155  0.94923555  1
  Se  Se185  1  0.92737066  0.73776786  0.44157229  1
  Se  Se186  1  0.92319539  0.74735423  0.95497742  1
  Se  Se187  1  0.24091701  0.23833366  0.30728210  1
  Se  Se188  1  0.25515712  0.24916155  0.81084026  1
  Se  Se189  1  0.25084917  0.57890595  0.31134445  1
  Se  Se190  1  0.24052410  0.57522969  0.80482759  1
  Se  Se191  1  0.25513465  0.92420412  0.29617855  1
  Se  Se192  1  0.25590927  0.92483949  0.81392524  1
  Se  Se193  1  0.56858875  0.23889600  0.30454546  1
  Se  Se194  1  0.57586450  0.24480546  0.81282101  1
  Se  Se195  1  0.59307475  0.58939699  0.30143365  1
  Se  Se196  1  0.56965416  0.57783912  0.80548506  1
  Se  Se197  1  0.57290842  0.91610901  0.31200066  1
  Se  Se198  1  0.58603722  0.92479412  0.80707024  1
  Se  Se199  1  0.91139842  0.24013307  0.30193936  1
  Se  Se200  1  0.92028212  0.25426412  0.80657835  1
  Se  Se201  1  0.91802300  0.57610119  0.30875817  1
  Se  Se202  1  0.90939337  0.57976306  0.80750570  1
  Se  Se203  1  0.92167119  0.92247336  0.29544154  1
  Se  Se204  1  0.91966003  0.92069082  0.80614817  1
  Se  Se205  1  0.08125567  0.07833467  0.30044531  1
  Se  Se206  1  0.08359565  0.08619475  0.80407949  1
  Se  Se207  1  0.09119803  0.41122713  0.31031089  1
  Se  Se208  1  0.07920449  0.41034979  0.80033131  1
  Se  Se209  1  0.09472108  0.76323503  0.30263530  1
  Se  Se210  1  0.08688093  0.76142006  0.81563853  1
  Se  Se211  1  0.41021034  0.07883658  0.30218996  1
  Se  Se212  1  0.41338822  0.08039630  0.80914432  1
  Se  Se213  1  0.42737945  0.42105871  0.30551615  1
  Se  Se214  1  0.41100896  0.41237121  0.80369734  1
  Se  Se215  1  0.41902965  0.75716340  0.31090259  1
  Se  Se216  1  0.41408492  0.76594754  0.82089754  1
  Se  Se217  1  0.75239803  0.08669792  0.30232430  1
  Se  Se218  1  0.74777394  0.08243606  0.80325528  1
  Se  Se219  1  0.75733644  0.42339599  0.31065639  1
  Se  Se220  1  0.75694836  0.40942179  0.81590234  1
  Se  Se221  1  0.75802917  0.75736212  0.29617595  1
  Se  Se222  1  0.75473396  0.75269646  0.81897095  1
  Se  Se223  1  0.25483565  0.08100591  0.18480084  1
  Se  Se224  1  0.25660861  0.08321079  0.70202072  1
  Se  Se225  1  0.24699031  0.41634971  0.19128358  1
  Se  Se226  1  0.25568586  0.41024867  0.69767228  1
  Se  Se227  1  0.24886578  0.76447113  0.18131438  1
  Se  Se228  1  0.23914984  0.76450336  0.69969314  1
  Se  Se229  1  0.57486120  0.09789570  0.19041299  1
  Se  Se230  1  0.58066583  0.08018298  0.70036458  1
  Se  Se231  1  0.57258663  0.41483082  0.18670969  1
  Se  Se232  1  0.57651822  0.41832749  0.68923044  1
  Se  Se233  1  0.58313408  0.75181758  0.20270789  1
  Se  Se234  1  0.57043720  0.75873607  0.69969758  1
  Se  Se235  1  0.92382137  0.08234231  0.19061820  1
  Se  Se236  1  0.92079718  0.08155118  0.70168503  1
  Se  Se237  1  0.90360915  0.42488210  0.18779541  1
  Se  Se238  1  0.91753633  0.40800463  0.70113564  1
  Se  Se239  1  0.91378595  0.75841049  0.17701091  1
  Se  Se240  1  0.90320689  0.75929188  0.69365717  1
  Se  Se241  1  0.09400583  0.24069390  0.18545082  1
  Se  Se242  1  0.08608531  0.24782273  0.70009784  1
  Se  Se243  1  0.09331739  0.57590834  0.19575419  1
  Se  Se244  1  0.08803741  0.57849906  0.68887781  1
  Se  Se245  1  0.07972190  0.92144948  0.18706784  1
  Se  Se246  1  0.08054030  0.92564080  0.70244839  1
  Se  Se247  1  0.41538908  0.23894707  0.17825522  1
  Se  Se248  1  0.41965204  0.25108330  0.69803003  1
  Se  Se249  1  0.42586945  0.57357439  0.19719890  1
  Se  Se250  1  0.41767777  0.58203407  0.68851302  1
  Se  Se251  1  0.41714647  0.92506563  0.19279999  1
  Se  Se252  1  0.40963019  0.92073944  0.70134399  1
  Se  Se253  1  0.75123842  0.24772265  0.18760825  1
  Se  Se254  1  0.75862334  0.23663005  0.69105016  1
  Se  Se255  1  0.74620870  0.59118456  0.19421000  1
  Se  Se256  1  0.74675795  0.56476329  0.69275708  1
  Se  Se257  1  0.75653854  0.91501112  0.18097841  1
  Se  Se258  1  0.74588468  0.91674513  0.70237686  1
