# generated using pymatgen
data_In86Cu29Se144
_symmetry_space_group_name_H-M   'P 1'
_cell_length_a   17.68207849
_cell_length_b   17.67937982
_cell_length_c   23.55644312
_cell_angle_alpha   89.98148563
_cell_angle_beta   90.00184968
_cell_angle_gamma   89.99995962
_symmetry_Int_Tables_number   1
_chemical_formula_structural   In86Cu29Se144
_chemical_formula_sum   'In86 Cu29 Se144'
_cell_volume   7363.93646142
_cell_formula_units_Z   1
loop_
 _symmetry_equiv_pos_site_id
 _symmetry_equiv_pos_as_xyz
  1  'x, y, z'
loop_
 _atom_site_type_symbol
 _atom_site_label
 _atom_site_symmetry_multiplicity
 _atom_site_fract_x
 _atom_site_fract_y
 _atom_site_fract_z
 _atom_site_occupancy
  In  In0  1  -0.00325689  0.16840624  0.12458321  1
  In  In1  1  -0.02233358  0.18978446  0.64307633  1
  In  In2  1  -0.00578455  0.50778091  0.13198845  1
  In  In3  1  -0.02309153  0.46664862  0.59894451  1
  In  In4  1  -0.01020144  0.84147657  0.13055726  1
  In  In5  1  0.00269507  0.83876394  0.62815007  1
  In  In6  1  0.34340163  0.17907719  0.12034374  1
  In  In7  1  0.33642529  0.16275185  0.62846675  1
  In  In8  1  0.33513312  0.48199664  0.12573688  1
  In  In9  1  0.31556530  0.47949395  0.60386735  1
  In  In10  1  0.33756750  0.82398997  0.11615116  1
  In  In11  1  0.33859887  0.84349842  0.63270840  1
  In  In12  1  0.70985106  0.12846928  0.17667636  1
  In  In13  1  0.68687138  0.18215224  0.60891788  1
  In  In14  1  0.68149191  0.48465734  0.13840125  1
  In  In15  1  0.65042080  0.48637957  0.60704145  1
  In  In16  1  0.67087355  0.82950855  0.12651005  1
  In  In17  1  0.66433961  0.83634809  0.62463384  1
  In  In18  1  0.15681045  0.01670512  0.37329064  1
  In  In19  1  0.17901834  0.01374423  0.87031129  1
  In  In20  1  0.16678390  0.34360757  0.37371801  1
  In  In21  1  0.13696363  0.31389035  0.85789155  1
  In  In22  1  0.15565514  0.66351678  0.37438993  1
  In  In23  1  0.16947444  0.65974427  0.87370872  1
  In  In24  1  0.51334002  0.00494559  0.36411872  1
  In  In25  1  0.49410537  0.00765352  0.88189283  1
  In  In26  1  0.49586215  0.33354218  0.37476232  1
  In  In27  1  0.50292784  0.33244745  0.86567742  1
  In  In28  1  0.50264229  0.65989201  0.37312520  1
  In  In29  1  0.51638197  0.66459091  0.87869097  1
  In  In30  1  0.83579812  0.01718579  0.35499051  1
  In  In31  1  0.83372328  0.00356455  0.88217399  1
  In  In32  1  0.83274414  0.33458701  0.36659651  1
  In  In33  1  0.84009951  0.33309893  0.88081750  1
  In  In34  1  0.82533908  0.65956959  0.36787441  1
  In  In35  1  0.83431350  0.66416078  0.88713434  1
  In  In36  1  -0.01751654  0.17021530  0.35993023  1
  In  In37  1  0.00065546  0.17103932  0.88334898  1
  In  In38  1  -0.00459263  0.49643174  0.37487261  1
  In  In39  1  -0.00878525  0.48218449  0.87210107  1
  In  In40  1  -0.00691811  0.83274792  0.36418128  1
  In  In41  1  -0.01698134  0.83640672  0.88279059  1
  In  In42  1  0.32755255  0.17746671  0.37651433  1
  In  In43  1  0.33194601  0.16879492  0.87174883  1
  In  In44  1  0.35158435  0.49390264  0.39428610  1
  In  In45  1  0.32826120  0.48848591  0.86053086  1
  In  In46  1  0.33809354  0.83116845  0.37513982  1
  In  In47  1  0.33229566  0.85020993  0.88027613  1
  In  In48  1  0.66380210  0.17358153  0.36471101  1
  In  In49  1  0.67629895  0.18001710  0.87627225  1
  In  In50  1  0.66486176  0.49738698  0.37240979  1
  In  In51  1  0.68045252  0.49317529  0.87325418  1
  In  In52  1  0.66100625  0.84230851  0.35395905  1
  In  In53  1  0.67074369  0.83807587  0.89307885  1
  In  In54  1  0.14930307  0.00427710  0.12537737  1
  In  In55  1  0.15361483  0.01230342  0.63376370  1
  In  In56  1  0.17312777  0.32036634  0.12627660  1
  In  In57  1  0.15472025  0.35241666  0.63447893  1
  In  In58  1  0.17106063  0.64964298  0.12757352  1
  In  In59  1  0.16616842  0.64142062  0.62679772  1
  In  In60  1  0.52646154  -0.01286235  0.14470261  1
  In  In61  1  0.49483246  -0.00026618  0.63005079  1
  In  In62  1  0.53947687  0.27924207  0.17817959  1
  In  In63  1  0.50345549  0.32643053  0.62117405  1
  In  In64  1  0.50838299  0.67641503  0.12837610  1
  In  In65  1  0.50636581  0.66617643  0.61896985  1
  In  In66  1  0.84407555  0.00261882  0.12065048  1
  In  In67  1  0.83102099  0.01952476  0.62659677  1
  In  In68  1  0.83451849  0.33132665  0.12741107  1
  In  In69  1  0.82380433  0.32682006  0.62238113  1
  In  In70  1  0.83152111  0.66559444  0.12708667  1
  In  In71  1  0.84726622  0.65612683  0.62393158  1
  In  In72  1  0.33850540  0.66901753  0.74292964  1
  In  In73  1  0.66971527  0.01187046  0.75936321  1
  In  In74  1  0.67125307  0.66264407  0.74894013  1
  In  In75  1  0.82886537  0.83324332  0.48988022  1
  In  In76  1  0.32586175  0.00559902  0.24845987  1
  In  In77  1  0.16219328  0.83635620  0.00267632  1
  In  In78  1  0.49911547  0.49773767  0.00425257  1
  In  In79  1  0.16323243  0.82842486  0.49972990  1
  In  In80  1  0.00564745  0.66570221  0.75282844  1
  In  In81  1  0.16296878  0.49261577  -0.01084328  1
  In  In82  1  0.33019337  0.66083373  0.25947905  1
  In  In83  1  0.50228676  0.83557197  0.49940421  1
  In  In84  1  0.51152089  0.16539344  0.01395951  1
  In  In85  1  0.15524083  0.17308455  0.50130173  1
  Cu  Cu86  1  0.67144936  0.33282763  0.00636670  1
  Cu  Cu87  1  0.33689776  0.32501802  0.50076981  1
  Cu  Cu88  1  0.67179804  0.66562767  0.49408218  1
  Cu  Cu89  1  0.83016114  0.83981966  0.75861904  1
  Cu  Cu90  1  -0.01078652  0.00342868  0.49357922  1
  Cu  Cu91  1  -0.00554110  0.66801821  0.00719954  1
  Cu  Cu92  1  0.66480610  0.33090080  0.49047167  1
  Cu  Cu93  1  0.15625945  0.17220762  0.24972478  1
  Cu  Cu94  1  0.49570856  0.83925185  0.75783329  1
  Cu  Cu95  1  0.00182534  0.65283866  0.49799185  1
  Cu  Cu96  1  -0.00059895  0.00683640  0.00080168  1
  Cu  Cu97  1  0.17249775  0.16335566  0.75185629  1
  Cu  Cu98  1  0.50031074  0.48907970  0.73966005  1
  Cu  Cu99  1  0.66777625  0.66563891  0.00598021  1
  Cu  Cu100  1  0.83494701  0.50247250  0.25122572  1
  Cu  Cu101  1  0.34161395  0.66114561  -0.00278745  1
  Cu  Cu102  1  0.33449288  -0.00014515  0.50828312  1
  Cu  Cu103  1  0.83663541  0.83194259  0.24352666  1
  Cu  Cu104  1  -0.00303571  0.33651686  0.00193439  1
  Cu  Cu105  1  0.16793061  0.84045632  0.75215821  1
  Cu  Cu106  1  0.67204647  0.00948622  0.48813474  1
  Cu  Cu107  1  0.50392326  0.16568046  0.74873556  1
  Cu  Cu108  1  0.16033432  0.49415604  0.25164902  1
  Cu  Cu109  1  0.33978670  0.00681013  -0.00215286  1
  Cu  Cu110  1  0.67271810  0.00463976  0.01451904  1
  Cu  Cu111  1  0.83116568  0.49087514  0.74620349  1
  Cu  Cu112  1  0.16419296  0.83178136  0.25028609  1
  Cu  Cu113  1  0.49441301  0.50159527  0.25763737  1
  Cu  Cu114  1  0.33748438  0.32944777  -0.00085157  1
  Se  Se115  1  0.08274644  0.08991482  0.05236004  1
  Se  Se116  1  0.06769070  0.07833815  0.55731099  1
  Se  Se117  1  0.08073175  0.41503266  0.06174468  1
  Se  Se118  1  0.09357396  0.41334553  0.54729778  1
  Se  Se119  1  0.08200671  0.74125204  0.06461385  1
  Se  Se120  1  0.07264400  0.73860548  0.56089687  1
  Se  Se121  1  0.42091295  0.06943970  0.06809623  1
  Se  Se122  1  0.41982367  0.08202274  0.55800725  1
  Se  Se123  1  0.42107888  0.39877684  0.06118144  1
  Se  Se124  1  0.42349906  0.41112115  0.55031053  1
  Se  Se125  1  0.42305215  0.74261920  0.05123791  1
  Se  Se126  1  0.40799806  0.75261189  0.56042778  1
  Se  Se127  1  0.74380312  0.09325283  0.07154426  1
  Se  Se128  1  0.75817856  0.08430088  0.54498208  1
  Se  Se129  1  0.75458327  0.41768833  0.05739411  1
  Se  Se130  1  0.74738759  0.41067871  0.54848181  1
  Se  Se131  1  0.75314590  0.74922805  0.05573806  1
  Se  Se132  1  0.74608260  0.74345320  0.55977795  1
  Se  Se133  1  0.25126949  0.24671729  0.04992623  1
  Se  Se134  1  0.25149145  0.25250392  0.56221613  1
  Se  Se135  1  0.26010545  0.57906812  0.05272631  1
  Se  Se136  1  0.25896574  0.59458770  0.55228096  1
  Se  Se137  1  0.25587464  0.92789311  0.05935454  1
  Se  Se138  1  0.24745704  0.92286509  0.56265755  1
  Se  Se139  1  0.59015908  0.26247186  0.07005588  1
  Se  Se140  1  0.58441032  0.24769480  0.54788518  1
  Se  Se141  1  0.59184960  0.58161424  0.06521493  1
  Se  Se142  1  0.58180075  0.58803562  0.54567804  1
  Se  Se143  1  0.58632683  0.91733702  0.05928706  1
  Se  Se144  1  0.59593882  0.93132940  0.55416364  1
  Se  Se145  1  0.91544913  0.25215541  0.05516374  1
  Se  Se146  1  0.91727045  0.25101961  0.55698421  1
  Se  Se147  1  0.91368147  0.58107134  0.05759165  1
  Se  Se148  1  0.90753451  0.57634509  0.54501608  1
  Se  Se149  1  0.92155002  0.91589069  0.05063569  1
  Se  Se150  1  0.91592873  0.91888936  0.55583916  1
  Se  Se151  1  0.07173288  0.25092649  0.43073344  1
  Se  Se152  1  0.08634766  0.25630089  0.95061472  1
  Se  Se153  1  0.08596189  0.57444035  0.44417499  1
  Se  Se154  1  0.06933251  0.59199380  0.93989399  1
  Se  Se155  1  0.07370416  0.92185274  0.43921981  1
  Se  Se156  1  0.08064437  0.92749859  0.93897947  1
  Se  Se157  1  0.41907712  0.24504018  0.44558486  1
  Se  Se158  1  0.42466581  0.25008859  0.94259881  1
  Se  Se159  1  0.41599118  0.60267420  0.44816975  1
  Se  Se160  1  0.41105861  0.57933857  0.93226200  1
  Se  Se161  1  0.41277616  0.92884950  0.44068173  1
  Se  Se162  1  0.42229986  0.91711498  0.95129934  1
  Se  Se163  1  0.74754559  0.25073251  0.43497079  1
  Se  Se164  1  0.75491686  0.25258065  0.95092296  1
  Se  Se165  1  0.75052931  0.58000475  0.44149853  1
  Se  Se166  1  0.74375338  0.58116838  0.94739015  1
  Se  Se167  1  0.74510979  0.92473421  0.42811207  1
  Se  Se168  1  0.75402334  0.92447117  0.95516566  1
  Se  Se169  1  0.25276169  0.07770092  0.44682642  1
  Se  Se170  1  0.25595362  0.08858940  0.94606964  1
  Se  Se171  1  0.25406659  0.41000722  0.44841656  1
  Se  Se172  1  0.25811728  0.40375710  0.93586570  1
  Se  Se173  1  0.25547005  0.74310869  0.44012822  1
  Se  Se174  1  0.25604908  0.74340356  0.94306853  1
  Se  Se175  1  0.58412492  0.08770191  0.43669818  1
  Se  Se176  1  0.59873512  0.08020667  0.94474043  1
  Se  Se177  1  0.58031699  0.41726706  0.44175276  1
  Se  Se178  1  0.59039428  0.40841908  0.94209460  1
  Se  Se179  1  0.59677656  0.75434186  0.43697205  1
  Se  Se180  1  0.58429400  0.74816882  0.95234258  1
  Se  Se181  1  0.91205721  0.08427102  0.43497155  1
  Se  Se182  1  0.91401595  0.08914308  0.94955557  1
  Se  Se183  1  0.91067846  0.41288212  0.43915297  1
  Se  Se184  1  0.91305500  0.42282970  0.95281876  1
  Se  Se185  1  0.92555104  0.74062874  0.43977011  1
  Se  Se186  1  0.91161463  0.75177837  0.95435794  1
  Se  Se187  1  0.24007951  0.24877973  0.30710290  1
  Se  Se188  1  0.25096447  0.25265733  0.80396617  1
  Se  Se189  1  0.24344578  0.56724096  0.31520689  1
  Se  Se190  1  0.24013396  0.57936514  0.79635555  1
  Se  Se191  1  0.23911346  0.91234796  0.31259029  1
  Se  Se192  1  0.25437719  0.92019094  0.80440214  1
  Se  Se193  1  0.57658675  0.25888787  0.29979292  1
  Se  Se194  1  0.58773629  0.24604397  0.80347334  1
  Se  Se195  1  0.58440919  0.58397699  0.30280197  1
  Se  Se196  1  0.57736022  0.56859845  0.80379356  1
  Se  Se197  1  0.57510814  0.92160688  0.28790665  1
  Se  Se198  1  0.58334988  0.91238677  0.81579236  1
  Se  Se199  1  0.88594612  0.23550119  0.29135746  1
  Se  Se200  1  0.94406865  0.27391221  0.81626737  1
  Se  Se201  1  0.91944353  0.58468075  0.30443064  1
  Se  Se202  1  0.90320783  0.57882748  0.80700464  1
  Se  Se203  1  0.91607206  0.91936081  0.29727440  1
  Se  Se204  1  0.91411975  0.92141221  0.81020954  1
  Se  Se205  1  0.07481134  0.08478070  0.29940052  1
  Se  Se206  1  0.08423603  0.09095728  0.81038774  1
  Se  Se207  1  0.07546836  0.41258032  0.30364168  1
  Se  Se208  1  0.09809278  0.43777971  0.80772818  1
  Se  Se209  1  0.08245912  0.74797060  0.30319609  1
  Se  Se210  1  0.08967489  0.76215554  0.81491760  1
  Se  Se211  1  0.41490131  0.09378644  0.30720555  1
  Se  Se212  1  0.42189881  0.08636010  0.80728564  1
  Se  Se213  1  0.40945498  0.42050694  0.30961685  1
  Se  Se214  1  0.41796882  0.41027533  0.79672525  1
  Se  Se215  1  0.42682584  0.75795602  0.30487139  1
  Se  Se216  1  0.42162769  0.75170592  0.81546918  1
  Se  Se217  1  0.72702780  0.07461204  0.29449362  1
  Se  Se218  1  0.76873373  0.10019458  0.80845692  1
  Se  Se219  1  0.74725800  0.42017902  0.30089411  1
  Se  Se220  1  0.75524234  0.40757209  0.80516077  1
  Se  Se221  1  0.75399467  0.75349318  0.30086616  1
  Se  Se222  1  0.75232414  0.75555037  0.81502097  1
  Se  Se223  1  0.23846036  0.09517536  0.18744527  1
  Se  Se224  1  0.25300362  0.07978947  0.69684741  1
  Se  Se225  1  0.24283338  0.41582884  0.19458281  1
  Se  Se226  1  0.26122894  0.41659397  0.69230063  1
  Se  Se227  1  0.24607256  0.75336786  0.19180604  1
  Se  Se228  1  0.23708801  0.75668158  0.68860046  1
  Se  Se229  1  0.56249530  0.11378716  0.19052082  1
  Se  Se230  1  0.58618621  0.08988077  0.68797341  1
  Se  Se231  1  0.56977903  0.42449747  0.19371254  1
  Se  Se232  1  0.58944660  0.41050387  0.68914102  1
  Se  Se233  1  0.58811430  0.75238731  0.19808186  1
  Se  Se234  1  0.57428024  0.75972093  0.69670993  1
  Se  Se235  1  0.91548046  0.08695942  0.19342512  1
  Se  Se236  1  0.93093883  0.06979363  0.69475295  1
  Se  Se237  1  0.91567679  0.41840182  0.19587508  1
  Se  Se238  1  0.91246776  0.41161790  0.68880305  1
  Se  Se239  1  0.92058796  0.74463577  0.19509023  1
  Se  Se240  1  0.90706398  0.75762313  0.69656141  1
  Se  Se241  1  0.07674750  0.25525194  0.19391821  1
  Se  Se242  1  0.09324387  0.24653330  0.69564210  1
  Se  Se243  1  0.08429164  0.58447129  0.20011224  1
  Se  Se244  1  0.05757846  0.57072368  0.67844523  1
  Se  Se245  1  0.08251087  0.91579646  0.19692429  1
  Se  Se246  1  0.07946937  0.91844069  0.69969910  1
  Se  Se247  1  0.39411891  0.27119800  0.19441450  1
  Se  Se248  1  0.42140232  0.24757029  0.69338757  1
  Se  Se249  1  0.41691085  0.57873919  0.19012223  1
  Se  Se250  1  0.42516904  0.57753360  0.68464353  1
  Se  Se251  1  0.41112119  0.90852064  0.19111544  1
  Se  Se252  1  0.41580195  0.92334313  0.70452037  1
  Se  Se253  1  0.76201032  0.25917084  0.20971673  1
  Se  Se254  1  0.75248601  0.23999031  0.69459578  1
  Se  Se255  1  0.75007116  0.58637540  0.19919598  1
  Se  Se256  1  0.75385261  0.57248099  0.68554158  1
  Se  Se257  1  0.75933005  0.91613495  0.18751630  1
  Se  Se258  1  0.75201657  0.91448825  0.69433177  1
