# generated using pymatgen
data_In86Cu29Se144
_symmetry_space_group_name_H-M   'P 1'
_cell_length_a   17.59149915
_cell_length_b   17.59018333
_cell_length_c   23.45829772
_cell_angle_alpha   90.00724845
_cell_angle_beta   90.00961057
_cell_angle_gamma   90.03632368
_symmetry_Int_Tables_number   1
_chemical_formula_structural   In86Cu29Se144
_chemical_formula_sum   'In86 Cu29 Se144'
_cell_volume   7258.87995745
_cell_formula_units_Z   1
loop_
 _symmetry_equiv_pos_site_id
 _symmetry_equiv_pos_as_xyz
  1  'x, y, z'
loop_
 _atom_site_type_symbol
 _atom_site_label
 _atom_site_symmetry_multiplicity
 _atom_site_fract_x
 _atom_site_fract_y
 _atom_site_fract_z
 _atom_site_occupancy
  In  In0  1  0.00413151  0.15561043  0.12645434  1
  In  In1  1  0.01935836  0.16913990  0.62310380  1
  In  In2  1  0.02008581  0.49229997  0.12801382  1
  In  In3  1  -0.00497821  0.49301772  0.61496327  1
  In  In4  1  0.00870931  0.83790217  0.14186872  1
  In  In5  1  -0.00705342  0.83817264  0.62214379  1
  In  In6  1  0.34549218  0.17886638  0.11186046  1
  In  In7  1  0.33321498  0.17382309  0.63289246  1
  In  In8  1  0.32867176  0.50625119  0.12246107  1
  In  In9  1  0.32793533  0.50483783  0.63046053  1
  In  In10  1  0.33870222  0.80780026  0.12037968  1
  In  In11  1  0.34271795  0.83213619  0.63285283  1
  In  In12  1  0.66107375  0.17031753  0.13350941  1
  In  In13  1  0.65296905  0.18811037  0.64317181  1
  In  In14  1  0.66989850  0.49436768  0.13288614  1
  In  In15  1  0.67579255  0.49383566  0.62941040  1
  In  In16  1  0.65281813  0.84017174  0.12684484  1
  In  In17  1  0.66040742  0.84368206  0.63050356  1
  In  In18  1  0.17245230  0.01740324  0.37389043  1
  In  In19  1  0.18552286  -0.00145702  0.87575112  1
  In  In20  1  0.17421286  0.32790323  0.38077516  1
  In  In21  1  0.16904586  0.32965153  0.87696517  1
  In  In22  1  0.15727556  0.65785658  0.36361555  1
  In  In23  1  0.17358426  0.64939423  0.88264676  1
  In  In24  1  0.50716342  0.00645280  0.37303095  1
  In  In25  1  0.50254158  0.00528408  0.88006238  1
  In  In26  1  0.48799407  0.32686577  0.37103434  1
  In  In27  1  0.47486935  0.30524653  0.85008641  1
  In  In28  1  0.50173638  0.66893236  0.36267542  1
  In  In29  1  0.50049923  0.66770445  0.87118634  1
  In  In30  1  0.82474287  -0.00001189  0.36553492  1
  In  In31  1  0.80695799  0.01312835  0.87722291  1
  In  In32  1  0.83612142  0.34363755  0.37628128  1
  In  In33  1  0.81407209  0.30365634  0.84999200  1
  In  In34  1  0.83084914  0.66181464  0.37036042  1
  In  In35  1  0.82655268  0.67229436  0.87703908  1
  In  In36  1  0.00983892  0.17922568  0.37259794  1
  In  In37  1  -0.00857296  0.17956450  0.87369650  1
  In  In38  1  -0.00554918  0.50121539  0.37979286  1
  In  In39  1  0.01784433  0.48638480  0.88290205  1
  In  In40  1  0.00472624  0.83273864  0.36062161  1
  In  In41  1  -0.00323438  0.83206159  0.87626546  1
  In  In42  1  0.32599789  0.17617380  0.38118158  1
  In  In43  1  0.33827663  0.16531483  0.87930063  1
  In  In44  1  0.32564054  0.48961414  0.37035703  1
  In  In45  1  0.32475036  0.48981936  0.87061011  1
  In  In46  1  0.34212252  0.83076214  0.36833297  1
  In  In47  1  0.34734051  0.84593175  0.86945819  1
  In  In48  1  0.65470848  0.15737541  0.36793990  1
  In  In49  1  0.63489144  0.14297100  0.83779921  1
  In  In50  1  0.67260923  0.50602571  0.37214571  1
  In  In51  1  0.65408391  0.49051063  0.86678463  1
  In  In52  1  0.66680807  0.83730213  0.36596965  1
  In  In53  1  0.65830220  0.82801627  0.87717111  1
  In  In54  1  0.15736210  0.00088147  0.12556595  1
  In  In55  1  0.16460413  0.01442999  0.62575080  1
  In  In56  1  0.18035450  0.34151908  0.11044076  1
  In  In57  1  0.16867011  0.33534529  0.62797129  1
  In  In58  1  0.18724519  0.65430351  0.14337187  1
  In  In59  1  0.18281196  0.65939207  0.62557904  1
  In  In60  1  0.51188750  0.00565604  0.11154542  1
  In  In61  1  0.48489941  0.02783488  0.64829795  1
  In  In62  1  0.50102543  0.33252059  0.12809087  1
  In  In63  1  0.50004409  0.32258407  0.63838613  1
  In  In64  1  0.49018430  0.67381157  0.12562765  1
  In  In65  1  0.50085639  0.67045725  0.63194370  1
  In  In66  1  0.82973222  0.00860458  0.13970936  1
  In  In67  1  0.82354425  -0.00105385  0.62622445  1
  In  In68  1  0.81949219  0.31839273  0.12960220  1
  In  In69  1  0.82490587  0.34533341  0.63094855  1
  In  In70  1  0.83037902  0.67141969  0.13494926  1
  In  In71  1  0.83990402  0.65617213  0.62421922  1
  In  In72  1  0.49405443  0.49268412  -0.00378279  1
  In  In73  1  -0.00070693  0.00175011  0.74966855  1
  In  In74  1  0.50015216  0.49511868  0.50115418  1
  In  In75  1  0.84132479  0.49505594  -0.00512118  1
  In  In76  1  0.83411268  0.17281047  0.49977312  1
  In  In77  1  0.83011695  0.16632270  0.00243174  1
  In  In78  1  0.50322288  0.83869230  0.49334576  1
  In  In79  1  0.82730654  0.82992593  0.48652858  1
  In  In80  1  -0.00017152  0.66209986  0.75354446  1
  In  In81  1  0.17316722  0.83258003  0.00588556  1
  In  In82  1  -0.00629460  0.33029682  0.25035937  1
  In  In83  1  0.32981374  -0.00571426  0.24205694  1
  In  In84  1  0.16944758  0.83092305  0.50025244  1
  In  In85  1  0.83217451  0.83727739  0.00074209  1
  Cu  Cu86  1  0.00796767  0.65704439  0.49670409  1
  Cu  Cu87  1  0.00177774  0.00501502  0.49471281  1
  Cu  Cu88  1  0.00663601  0.66141078  0.01300470  1
  Cu  Cu89  1  0.50254306  0.49654583  0.24736558  1
  Cu  Cu90  1  0.17540417  0.82840159  0.75113295  1
  Cu  Cu91  1  0.65150109  0.01422887  0.50421390  1
  Cu  Cu92  1  0.49973326  0.82893986  0.24463678  1
  Cu  Cu93  1  0.17299849  0.16748884  0.75217751  1
  Cu  Cu94  1  0.83153099  0.82928970  0.25008087  1
  Cu  Cu95  1  0.16873448  0.49379953  0.75344080  1
  Cu  Cu96  1  0.67607225  0.66155997  0.49908290  1
  Cu  Cu97  1  0.83445560  0.50314343  0.25335202  1
  Cu  Cu98  1  0.17015643  0.49768921  0.24907975  1
  Cu  Cu99  1  0.83480079  0.50687580  0.74819737  1
  Cu  Cu100  1  0.50520180  0.83491008  0.75470683  1
  Cu  Cu101  1  0.17044141  0.17396630  0.25098751  1
  Cu  Cu102  1  0.66571811  0.33219452  0.50751953  1
  Cu  Cu103  1  0.33921966  0.00277324  -0.00150863  1
  Cu  Cu104  1  0.65805642  0.66341251  0.00078614  1
  Cu  Cu105  1  0.33466299  0.01298592  0.50778500  1
  Cu  Cu106  1  0.82199452  0.83560811  0.75489061  1
  Cu  Cu107  1  0.33362101  0.32722495  0.50334197  1
  Cu  Cu108  1  0.49788397  0.50614437  0.74960487  1
  Cu  Cu109  1  0.33228823  0.65932342  0.49861410  1
  Cu  Cu110  1  0.00494186  0.33263543  -0.00460079  1
  Cu  Cu111  1  0.00858369  0.33484650  0.50047877  1
  Cu  Cu112  1  0.65888710  0.32456851  -0.00036235  1
  Cu  Cu113  1  -0.00056727  -0.00146957  0.00549184  1
  Cu  Cu114  1  0.49329177  0.16742467  0.24454409  1
  Se  Se115  1  0.08603090  0.08498750  0.05068517  1
  Se  Se116  1  0.08739155  0.08425868  0.54789783  1
  Se  Se117  1  0.08610130  0.42014938  0.04648956  1
  Se  Se118  1  0.09217517  0.41865922  0.55369298  1
  Se  Se119  1  0.08187560  0.74830796  0.06856841  1
  Se  Se120  1  0.07655379  0.74079470  0.56123564  1
  Se  Se121  1  0.42469270  0.08880803  0.04748776  1
  Se  Se122  1  0.41889902  0.09176794  0.56230441  1
  Se  Se123  1  0.40542936  0.40586746  0.05821138  1
  Se  Se124  1  0.41276299  0.40818543  0.56461887  1
  Se  Se125  1  0.42141551  0.74390439  0.04439081  1
  Se  Se126  1  0.41356281  0.74439599  0.55307901  1
  Se  Se127  1  0.74229625  0.07681250  0.06327017  1
  Se  Se128  1  0.74028344  0.08842327  0.56080611  1
  Se  Se129  1  0.74439072  0.40681484  0.05430318  1
  Se  Se130  1  0.75223578  0.41996604  0.55194055  1
  Se  Se131  1  0.74437463  0.74127745  0.05776651  1
  Se  Se132  1  0.74549102  0.75038442  0.56036002  1
  Se  Se133  1  0.23698479  0.23402459  0.05027863  1
  Se  Se134  1  0.24879936  0.24782387  0.55956402  1
  Se  Se135  1  0.25174541  0.59647033  0.05644286  1
  Se  Se136  1  0.25034416  0.57559071  0.55041478  1
  Se  Se137  1  0.26302290  0.92534665  0.06422640  1
  Se  Se138  1  0.25884187  0.92127468  0.56204223  1
  Se  Se139  1  0.58026518  0.24581227  0.05933060  1
  Se  Se140  1  0.58053511  0.25191475  0.55996199  1
  Se  Se141  1  0.58661083  0.57723868  0.06100448  1
  Se  Se142  1  0.58886057  0.58999991  0.55941281  1
  Se  Se143  1  0.57990731  0.90683462  0.04723576  1
  Se  Se144  1  0.57485293  0.93002407  0.56334135  1
  Se  Se145  1  0.92452785  0.25831101  0.06046491  1
  Se  Se146  1  0.92463448  0.25902121  0.56229980  1
  Se  Se147  1  0.91899207  0.58275667  0.06659572  1
  Se  Se148  1  0.91536325  0.58230296  0.54833696  1
  Se  Se149  1  0.92071319  0.92120486  0.06657875  1
  Se  Se150  1  0.91620336  0.92538147  0.54949091  1
  Se  Se151  1  0.08901790  0.24720465  0.45003083  1
  Se  Se152  1  0.08356378  0.24294200  0.94469657  1
  Se  Se153  1  0.09233883  0.57730019  0.44275278  1
  Se  Se154  1  0.08274480  0.58109193  0.95290221  1
  Se  Se155  1  0.08058623  0.92014716  0.43817308  1
  Se  Se156  1  0.07895238  0.92053012  0.94272873  1
  Se  Se157  1  0.41949591  0.24790505  0.44947778  1
  Se  Se158  1  0.42368191  0.25172687  0.94357747  1
  Se  Se159  1  0.41724043  0.58720330  0.43693106  1
  Se  Se160  1  0.40844128  0.58453276  0.93651269  1
  Se  Se161  1  0.40459149  0.93119473  0.44133708  1
  Se  Se162  1  0.42195273  0.91658437  0.94837362  1
  Se  Se163  1  0.73987448  0.25612202  0.43881383  1
  Se  Se164  1  0.74146985  0.24930340  0.93870461  1
  Se  Se165  1  0.75775542  0.57939282  0.44549502  1
  Se  Se166  1  0.73936400  0.58301767  0.94225207  1
  Se  Se167  1  0.73083689  0.93141302  0.44417103  1
  Se  Se168  1  0.73442703  0.92495103  0.94880091  1
  Se  Se169  1  0.24847486  0.08906559  0.45119012  1
  Se  Se170  1  0.25059871  0.08411793  0.94987540  1
  Se  Se171  1  0.25455687  0.41440836  0.44923933  1
  Se  Se172  1  0.23884788  0.42414589  0.94463554  1
  Se  Se173  1  0.25703713  0.74330391  0.43744955  1
  Se  Se174  1  0.25702502  0.75326109  0.93560696  1
  Se  Se175  1  0.57131786  0.09501700  0.44775038  1
  Se  Se176  1  0.59522131  0.09472037  0.93579511  1
  Se  Se177  1  0.58949008  0.40880942  0.43927927  1
  Se  Se178  1  0.58091278  0.40124318  0.93693290  1
  Se  Se179  1  0.59461639  0.74110146  0.43953867  1
  Se  Se180  1  0.57726917  0.74625322  0.94703702  1
  Se  Se181  1  0.91831295  0.08071431  0.43548950  1
  Se  Se182  1  0.92022680  0.07355773  0.94069906  1
  Se  Se183  1  0.91867474  0.41475565  0.45036703  1
  Se  Se184  1  0.91432350  0.39643502  0.93254653  1
  Se  Se185  1  0.93100037  0.74340030  0.43810212  1
  Se  Se186  1  0.92741971  0.73756268  0.94943705  1
  Se  Se187  1  0.25441314  0.25585031  0.30421257  1
  Se  Se188  1  0.25415887  0.24863872  0.80880742  1
  Se  Se189  1  0.25498207  0.58222898  0.30173582  1
  Se  Se190  1  0.24939865  0.58421405  0.80209570  1
  Se  Se191  1  0.24218084  0.91272778  0.31053853  1
  Se  Se192  1  0.25524674  0.91862550  0.79989561  1
  Se  Se193  1  0.57521873  0.24804650  0.30301244  1
  Se  Se194  1  0.60120766  0.27545145  0.79971608  1
  Se  Se195  1  0.58566394  0.58050624  0.30136288  1
  Se  Se196  1  0.58484013  0.58731216  0.80141145  1
  Se  Se197  1  0.57522045  0.91569216  0.30213257  1
  Se  Se198  1  0.58529115  0.91908442  0.80954669  1
  Se  Se199  1  0.90227970  0.24031652  0.30898031  1
  Se  Se200  1  0.92911201  0.25356641  0.79306169  1
  Se  Se201  1  0.92229685  0.58325768  0.30479353  1
  Se  Se202  1  0.91387782  0.57432833  0.81849611  1
  Se  Se203  1  0.91235297  0.91666761  0.30199215  1
  Se  Se204  1  0.90431502  0.91565071  0.81367745  1
  Se  Se205  1  0.08588069  0.09153462  0.30337887  1
  Se  Se206  1  0.09098917  0.08594554  0.81239022  1
  Se  Se207  1  0.08819515  0.41769333  0.31029149  1
  Se  Se208  1  0.08431684  0.40981636  0.80387972  1
  Se  Se209  1  0.09140576  0.75302599  0.29701098  1
  Se  Se210  1  0.09235031  0.75369460  0.81208658  1
  Se  Se211  1  0.41267163  0.08765886  0.30693616  1
  Se  Se212  1  0.41654016  0.08074343  0.80959937  1
  Se  Se213  1  0.41591940  0.41664187  0.30160027  1
  Se  Se214  1  0.41297257  0.42004350  0.79833058  1
  Se  Se215  1  0.41300675  0.74646703  0.29544720  1
  Se  Se216  1  0.41713453  0.75013808  0.80218864  1
  Se  Se217  1  0.73495268  0.07421711  0.30069839  1
  Se  Se218  1  0.76987307  0.10700239  0.80009551  1
  Se  Se219  1  0.75153345  0.41734690  0.30433112  1
  Se  Se220  1  0.75328503  0.42273457  0.80222070  1
  Se  Se221  1  0.74751173  0.74650336  0.30382276  1
  Se  Se222  1  0.74356349  0.74726726  0.80672074  1
  Se  Se223  1  0.24785914  0.09528607  0.18696709  1
  Se  Se224  1  0.25139058  0.08050913  0.69825236  1
  Se  Se225  1  0.24942124  0.41674454  0.19077352  1
  Se  Se226  1  0.25425956  0.41366088  0.69834263  1
  Se  Se227  1  0.23770001  0.77287811  0.19512810  1
  Se  Se228  1  0.25568903  0.74586271  0.69557504  1
  Se  Se229  1  0.57541678  0.07891547  0.19530489  1
  Se  Se230  1  0.60129239  0.07638325  0.70341811  1
  Se  Se231  1  0.58668976  0.40971348  0.19842515  1
  Se  Se232  1  0.58037727  0.42304645  0.69440770  1
  Se  Se233  1  0.58487717  0.74336198  0.19423054  1
  Se  Se234  1  0.58655509  0.75248139  0.69761736  1
  Se  Se235  1  0.91776002  0.09230849  0.19999535  1
  Se  Se236  1  0.91680652  0.08911390  0.68410507  1
  Se  Se237  1  0.90727657  0.42273654  0.18692331  1
  Se  Se238  1  0.91912343  0.42515300  0.69441354  1
  Se  Se239  1  0.92051175  0.74798964  0.20087312  1
  Se  Se240  1  0.90848139  0.75962357  0.69604233  1
  Se  Se241  1  0.09088965  0.25289523  0.18789484  1
  Se  Se242  1  0.08845795  0.25010845  0.69908629  1
  Se  Se243  1  0.08234046  0.58243143  0.20128052  1
  Se  Se244  1  0.08878569  0.57539531  0.69124374  1
  Se  Se245  1  0.07946204  0.93590788  0.20390335  1
  Se  Se246  1  0.09114161  0.90589358  0.69137225  1
  Se  Se247  1  0.40983906  0.25278563  0.19468934  1
  Se  Se248  1  0.42291824  0.23822954  0.70719287  1
  Se  Se249  1  0.41882704  0.57927387  0.19262930  1
  Se  Se250  1  0.41352595  0.58885427  0.69610477  1
  Se  Se251  1  0.42369714  0.91032382  0.18144210  1
  Se  Se252  1  0.41882751  0.91706254  0.70228163  1
  Se  Se253  1  0.74873671  0.24265886  0.20460666  1
  Se  Se254  1  0.76187458  0.25060169  0.69880333  1
  Se  Se255  1  0.74821997  0.58366940  0.19931765  1
  Se  Se256  1  0.75048206  0.58941790  0.69560198  1
  Se  Se257  1  0.74770027  0.91004176  0.19502616  1
  Se  Se258  1  0.74557899  0.92265470  0.70001196  1
