# generated using pymatgen
data_In86Cu29Se144
_symmetry_space_group_name_H-M   'P 1'
_cell_length_a   17.58411847
_cell_length_b   17.58675037
_cell_length_c   23.44264407
_cell_angle_alpha   89.98774263
_cell_angle_beta   89.98662619
_cell_angle_gamma   89.99391986
_symmetry_Int_Tables_number   1
_chemical_formula_structural   In86Cu29Se144
_chemical_formula_sum   'In86 Cu29 Se144'
_cell_volume   7249.57871444
_cell_formula_units_Z   1
loop_
 _symmetry_equiv_pos_site_id
 _symmetry_equiv_pos_as_xyz
  1  'x, y, z'
loop_
 _atom_site_type_symbol
 _atom_site_label
 _atom_site_symmetry_multiplicity
 _atom_site_fract_x
 _atom_site_fract_y
 _atom_site_fract_z
 _atom_site_occupancy
  In  In0  1  -0.01964364  0.16349751  0.12870724  1
  In  In1  1  0.00474120  0.15622573  0.63481285  1
  In  In2  1  0.00958397  0.50643625  0.11897686  1
  In  In3  1  -0.00757523  0.50325701  0.63142718  1
  In  In4  1  0.00878249  0.82802160  0.12906470  1
  In  In5  1  0.00750146  0.83190788  0.63248457  1
  In  In6  1  0.33484942  0.16626098  0.13361496  1
  In  In7  1  0.32442996  0.16160267  0.61699815  1
  In  In8  1  0.32811528  0.49564589  0.12013449  1
  In  In9  1  0.34411140  0.50097102  0.63102750  1
  In  In10  1  0.33439224  0.83273525  0.11454354  1
  In  In11  1  0.32152708  0.84049441  0.63173941  1
  In  In12  1  0.68618946  0.17140214  0.12717543  1
  In  In13  1  0.65535248  0.17618562  0.62362058  1
  In  In14  1  0.65699403  0.49434741  0.11664113  1
  In  In15  1  0.66291661  0.48892732  0.61740977  1
  In  In16  1  0.65332400  0.83638916  0.11737692  1
  In  In17  1  0.67890053  0.83742464  0.63016838  1
  In  In18  1  0.16671967  -0.00015939  0.37767305  1
  In  In19  1  0.15922290  -0.01163175  0.87207021  1
  In  In20  1  0.15835856  0.31472193  0.37616149  1
  In  In21  1  0.16452121  0.35505686  0.87629004  1
  In  In22  1  0.17154274  0.68171959  0.37682422  1
  In  In23  1  0.16775831  0.66816943  0.87406225  1
  In  In24  1  0.50380486  0.01345419  0.37300653  1
  In  In25  1  0.48834544  -0.00634815  0.86357671  1
  In  In26  1  0.50057924  0.33355005  0.37140007  1
  In  In27  1  0.50864681  0.34122199  0.87543994  1
  In  In28  1  0.49283292  0.65312074  0.37458355  1
  In  In29  1  0.49091437  0.67383713  0.88891207  1
  In  In30  1  0.83697596  -0.00606930  0.37313461  1
  In  In31  1  0.84351240  0.01442305  0.86388532  1
  In  In32  1  0.84366364  0.34357802  0.37494258  1
  In  In33  1  0.84064944  0.33027657  0.87927098  1
  In  In34  1  0.83253079  0.65048908  0.37237011  1
  In  In35  1  0.82688862  0.65048359  0.87739249  1
  In  In36  1  0.01674999  0.17493141  0.37870340  1
  In  In37  1  -0.01320081  0.16434804  0.86293340  1
  In  In38  1  -0.01094981  0.49510483  0.37358660  1
  In  In39  1  -0.00325048  0.50216936  0.87161789  1
  In  In40  1  0.01001532  0.84262365  0.36954867  1
  In  In41  1  0.01523369  0.83784440  0.87225278  1
  In  In42  1  0.33251175  0.16513170  0.37353444  1
  In  In43  1  0.34332060  0.16340262  0.86932742  1
  In  In44  1  0.35122819  0.49882463  0.37598557  1
  In  In45  1  0.32725263  0.51244209  0.88399827  1
  In  In46  1  0.31639734  0.83025072  0.37624285  1
  In  In47  1  0.32947634  0.82987359  0.87894503  1
  In  In48  1  0.65225749  0.16945882  0.38028351  1
  In  In49  1  0.68607274  0.17165124  0.86896342  1
  In  In50  1  0.68032380  0.47906354  0.38919364  1
  In  In51  1  0.66029565  0.51409302  0.89384431  1
  In  In52  1  0.66648494  0.84523607  0.37249040  1
  In  In53  1  0.65177825  0.83698731  0.87732358  1
  In  In54  1  0.17315794  -0.00743202  0.12807349  1
  In  In55  1  0.16919451  -0.00071601  0.62601721  1
  In  In56  1  0.16401884  0.34643438  0.12623626  1
  In  In57  1  0.16606616  0.31731407  0.62125787  1
  In  In58  1  0.16392208  0.65820346  0.11374228  1
  In  In59  1  0.15680177  0.67732899  0.63230184  1
  In  In60  1  0.49514666  -0.01098918  0.12056634  1
  In  In61  1  0.48790241  0.00598595  0.62886457  1
  In  In62  1  0.49709375  0.33779888  0.13493942  1
  In  In63  1  0.50840506  0.33409888  0.61292367  1
  In  In64  1  0.48016288  0.65016276  0.09512999  1
  In  In65  1  0.49525022  0.64798102  0.63175168  1
  In  In66  1  0.83287655  0.01414182  0.12339741  1
  In  In67  1  0.83538596  0.01105443  0.64507367  1
  In  In68  1  0.82539516  0.32295940  0.12319325  1
  In  In69  1  0.82577173  0.34326439  0.62582717  1
  In  In70  1  0.85157889  0.66972051  0.12242456  1
  In  In71  1  0.84411357  0.66026519  0.63010102  1
  In  In72  1  0.66101902  0.66923148  0.75977874  1
  In  In73  1  0.50550619  0.16822894  -0.00537111  1
  In  In74  1  0.83110725  0.83130051  -0.00260395  1
  In  In75  1  0.33027620  0.33273159  0.74955703  1
  In  In76  1  0.00125072  0.32837231  0.25248586  1
  In  In77  1  0.84726941  0.82654910  0.51144106  1
  In  In78  1  0.66906424  0.33621478  0.74704868  1
  In  In79  1  0.66513122  0.00459665  0.24315463  1
  In  In80  1  0.16656170  0.49647094  0.50178535  1
  In  In81  1  0.15907358  0.16962366  -0.00137806  1
  In  In82  1  0.83683158  0.17277851  0.50278960  1
  In  In83  1  0.66526764  0.66610875  0.23972390  1
  In  In84  1  0.32980105  0.66480870  0.23840381  1
  In  In85  1  0.49844745  0.82738095  0.49774700  1
  Cu  Cu86  1  0.01004792  0.00286738  0.50346050  1
  Cu  Cu87  1  -0.00291735  0.33970550  -0.00032412  1
  Cu  Cu88  1  0.33056362  0.66726589  0.50149432  1
  Cu  Cu89  1  0.83637929  0.49703214  0.24965191  1
  Cu  Cu90  1  0.66672004  0.00210322  0.50313731  1
  Cu  Cu91  1  0.49904729  0.16089624  0.74247177  1
  Cu  Cu92  1  0.48610559  0.83134142  0.23965997  1
  Cu  Cu93  1  0.67191857  0.33399558  -0.00019635  1
  Cu  Cu94  1  0.49336926  0.82945761  0.75371429  1
  Cu  Cu95  1  0.17290062  0.83204783  0.75246263  1
  Cu  Cu96  1  0.49642317  0.16875625  0.25270062  1
  Cu  Cu97  1  0.66416361  0.65500257  0.49901744  1
  Cu  Cu98  1  0.16802410  0.15893538  0.25316971  1
  Cu  Cu99  1  0.84072660  0.83774638  0.75345091  1
  Cu  Cu100  1  0.82838278  0.49909456  0.75381780  1
  Cu  Cu101  1  0.33087010  -0.00592212  -0.00439912  1
  Cu  Cu102  1  0.66604291  0.00394984  -0.00264223  1
  Cu  Cu103  1  0.17147040  0.50442331  0.24385226  1
  Cu  Cu104  1  0.15987685  0.84009079  0.25154290  1
  Cu  Cu105  1  0.00387593  0.66338283  -0.00424114  1
  Cu  Cu106  1  0.16932559  0.16101565  0.74693778  1
  Cu  Cu107  1  0.33811153  0.32994638  0.49662527  1
  Cu  Cu108  1  0.33207414  0.34399353  0.00408714  1
  Cu  Cu109  1  0.50962511  0.49331457  0.25043030  1
  Cu  Cu110  1  0.33258538  0.00262710  0.50063677  1
  Cu  Cu111  1  -0.00126761  0.66359142  0.50511256  1
  Cu  Cu112  1  0.83811874  0.83107286  0.24797523  1
  Cu  Cu113  1  0.16042541  0.50535133  0.75184396  1
  Cu  Cu114  1  -0.00336656  0.00135268  -0.00592943  1
  Se  Se115  1  0.07413322  0.07881685  0.06089356  1
  Se  Se116  1  0.08872691  0.08773035  0.55845571  1
  Se  Se117  1  0.08770526  0.41903659  0.04968084  1
  Se  Se118  1  0.07644094  0.41233489  0.56325687  1
  Se  Se119  1  0.08052187  0.74987146  0.05195461  1
  Se  Se120  1  0.07955621  0.75180454  0.55520187  1
  Se  Se121  1  0.40784210  0.08220928  0.05307950  1
  Se  Se122  1  0.41886405  0.08541575  0.55127386  1
  Se  Se123  1  0.42350010  0.41582732  0.05857185  1
  Se  Se124  1  0.41082582  0.41580765  0.55565454  1
  Se  Se125  1  0.42742434  0.76736811  0.04512744  1
  Se  Se126  1  0.41199947  0.74457721  0.56442529  1
  Se  Se127  1  0.74953513  0.08634130  0.04965940  1
  Se  Se128  1  0.75059620  0.07669610  0.56313242  1
  Se  Se129  1  0.75422077  0.41589578  0.05535918  1
  Se  Se130  1  0.74425202  0.40927367  0.54943386  1
  Se  Se131  1  0.74564339  0.74378426  0.06140265  1
  Se  Se132  1  0.74246588  0.73639384  0.55978807  1
  Se  Se133  1  0.25515382  0.25459545  0.05979276  1
  Se  Se134  1  0.24992282  0.24848926  0.54647376  1
  Se  Se135  1  0.27437152  0.60171756  0.05613040  1
  Se  Se136  1  0.25137599  0.58807713  0.56439587  1
  Se  Se137  1  0.24432904  0.91631891  0.05006637  1
  Se  Se138  1  0.25068366  0.91730926  0.55367686  1
  Se  Se139  1  0.58964284  0.25413295  0.06116770  1
  Se  Se140  1  0.59060320  0.25308759  0.54541424  1
  Se  Se141  1  0.59562473  0.58990898  0.04695344  1
  Se  Se142  1  0.57858318  0.58021785  0.55595650  1
  Se  Se143  1  0.57902220  0.92042616  0.04509429  1
  Se  Se144  1  0.58761365  0.91648864  0.56017951  1
  Se  Se145  1  0.91848009  0.25186105  0.05338456  1
  Se  Se146  1  0.92428325  0.25330193  0.56888285  1
  Se  Se147  1  0.92001985  0.58196619  0.04997498  1
  Se  Se148  1  0.91386995  0.57924265  0.55416842  1
  Se  Se149  1  0.92011632  0.92113537  0.05883500  1
  Se  Se150  1  0.92381067  0.93136346  0.56674164  1
  Se  Se151  1  0.08107076  0.25368768  0.45673481  1
  Se  Se152  1  0.07428152  0.25954495  0.93607655  1
  Se  Se153  1  0.08046868  0.58993096  0.43989021  1
  Se  Se154  1  0.08468436  0.57962985  0.94078369  1
  Se  Se155  1  0.08535108  0.91432722  0.44802886  1
  Se  Se156  1  0.08522613  0.91562644  0.95103675  1
  Se  Se157  1  0.41907033  0.24751131  0.44034060  1
  Se  Se158  1  0.40729185  0.26169366  0.94195073  1
  Se  Se159  1  0.41660163  0.58326270  0.45314996  1
  Se  Se160  1  0.42487733  0.57334869  0.95292714  1
  Se  Se161  1  0.41200114  0.92197269  0.43814450  1
  Se  Se162  1  0.41972308  0.91722689  0.94240020  1
  Se  Se163  1  0.74774370  0.25687362  0.43923499  1
  Se  Se164  1  0.75391119  0.24858969  0.94773960  1
  Se  Se165  1  0.75635048  0.57825167  0.44911161  1
  Se  Se166  1  0.75953378  0.58034647  0.95808915  1
  Se  Se167  1  0.74994196  0.91732803  0.45037263  1
  Se  Se168  1  0.74930333  0.92700877  0.93597517  1
  Se  Se169  1  0.24958112  0.08479178  0.44494821  1
  Se  Se170  1  0.25447277  0.08237585  0.93898687  1
  Se  Se171  1  0.25583785  0.41101977  0.43696747  1
  Se  Se172  1  0.24602397  0.42440267  0.95180383  1
  Se  Se173  1  0.24639890  0.75454479  0.45525439  1
  Se  Se174  1  0.24061554  0.75368014  0.94589673  1
  Se  Se175  1  0.57994368  0.08224496  0.45182773  1
  Se  Se176  1  0.58881993  0.07937944  0.93044782  1
  Se  Se177  1  0.55994710  0.43424606  0.43967322  1
  Se  Se178  1  0.58111685  0.41518500  0.95287396  1
  Se  Se179  1  0.59399547  0.74023714  0.43597908  1
  Se  Se180  1  0.60046773  0.73737978  0.94594902  1
  Se  Se181  1  0.92348180  0.07572107  0.44313378  1
  Se  Se182  1  0.91667217  0.08831753  0.94314213  1
  Se  Se183  1  0.92967969  0.40869165  0.44873905  1
  Se  Se184  1  0.91480164  0.42307376  0.94510931  1
  Se  Se185  1  0.92268533  0.74250751  0.43769415  1
  Se  Se186  1  0.92341580  0.74504641  0.93617776  1
  Se  Se187  1  0.24781167  0.24836335  0.30388336  1
  Se  Se188  1  0.23952882  0.24511639  0.81289730  1
  Se  Se189  1  0.24886115  0.57973041  0.31087482  1
  Se  Se190  1  0.24942037  0.58172000  0.80501433  1
  Se  Se191  1  0.24845093  0.91820463  0.30461361  1
  Se  Se192  1  0.25454674  0.91725202  0.80614323  1
  Se  Se193  1  0.58456038  0.24958386  0.30243766  1
  Se  Se194  1  0.57471355  0.24170439  0.80554125  1
  Se  Se195  1  0.58808819  0.57665238  0.30934437  1
  Se  Se196  1  0.57267655  0.57736156  0.81572587  1
  Se  Se197  1  0.57085120  0.90883349  0.29949567  1
  Se  Se198  1  0.58158259  0.91503121  0.79946805  1
  Se  Se199  1  0.91161840  0.23778253  0.31094865  1
  Se  Se200  1  0.91112938  0.25820490  0.79985426  1
  Se  Se201  1  0.92072630  0.58256018  0.29952320  1
  Se  Se202  1  0.91320047  0.58671716  0.80174764  1
  Se  Se203  1  0.91766548  0.91669281  0.30198008  1
  Se  Se204  1  0.92660899  0.91869631  0.80602150  1
  Se  Se205  1  0.08166623  0.08181379  0.30805195  1
  Se  Se206  1  0.08660764  0.08365612  0.80670943  1
  Se  Se207  1  0.09428132  0.42353990  0.30822020  1
  Se  Se208  1  0.07775327  0.41713593  0.80051784  1
  Se  Se209  1  0.08401317  0.74784824  0.30322795  1
  Se  Se210  1  0.08484221  0.74789361  0.80131259  1
  Se  Se211  1  0.41437549  0.08067251  0.30206857  1
  Se  Se212  1  0.41106559  0.08102267  0.79407059  1
  Se  Se213  1  0.41675196  0.41595708  0.29956408  1
  Se  Se214  1  0.41486994  0.42168785  0.81256768  1
  Se  Se215  1  0.41723558  0.75225205  0.30791006  1
  Se  Se216  1  0.41560156  0.74665392  0.81049192  1
  Se  Se217  1  0.74782455  0.08561777  0.31370451  1
  Se  Se218  1  0.74297722  0.07710584  0.79818002  1
  Se  Se219  1  0.75396792  0.41650898  0.30489405  1
  Se  Se220  1  0.74490099  0.42674162  0.81735098  1
  Se  Se221  1  0.75304944  0.75586319  0.30771773  1
  Se  Se222  1  0.75859951  0.75952187  0.81407729  1
  Se  Se223  1  0.25153333  0.07909865  0.19689633  1
  Se  Se224  1  0.25580144  0.08165385  0.69453298  1
  Se  Se225  1  0.25459556  0.41636303  0.19662256  1
  Se  Se226  1  0.23735568  0.42213454  0.68934316  1
  Se  Se227  1  0.23769168  0.76002687  0.18750345  1
  Se  Se228  1  0.25350150  0.74495404  0.69951505  1
  Se  Se229  1  0.57210350  0.09345156  0.18334042  1
  Se  Se230  1  0.58657154  0.08066515  0.69098914  1
  Se  Se231  1  0.59543300  0.41290274  0.19717922  1
  Se  Se232  1  0.57013717  0.42347604  0.69377535  1
  Se  Se233  1  0.56614427  0.74903615  0.18291022  1
  Se  Se234  1  0.57652478  0.75603975  0.68979427  1
  Se  Se235  1  0.91093789  0.07932767  0.20145855  1
  Se  Se236  1  0.92561962  0.08334835  0.71070815  1
  Se  Se237  1  0.91895076  0.41960450  0.18768481  1
  Se  Se238  1  0.90994817  0.41697329  0.69868302  1
  Se  Se239  1  0.92396425  0.74713039  0.19877698  1
  Se  Se240  1  0.91637306  0.75146915  0.69713715  1
  Se  Se241  1  0.09097361  0.23955016  0.18836078  1
  Se  Se242  1  0.08683013  0.24926314  0.69872597  1
  Se  Se243  1  0.08687715  0.58687263  0.19273337  1
  Se  Se244  1  0.07647095  0.58769076  0.69741109  1
  Se  Se245  1  0.07801566  0.92378658  0.19658277  1
  Se  Se246  1  0.08968774  0.91735218  0.69847315  1
  Se  Se247  1  0.41249641  0.25356934  0.20060331  1
  Se  Se248  1  0.42137379  0.24774481  0.68510428  1
  Se  Se249  1  0.43135777  0.57633405  0.18895795  1
  Se  Se250  1  0.40929825  0.58508423  0.70612448  1
  Se  Se251  1  0.40493223  0.91882616  0.19055038  1
  Se  Se252  1  0.41507130  0.91537705  0.69705518  1
  Se  Se253  1  0.75701010  0.24843072  0.20262191  1
  Se  Se254  1  0.75728203  0.23996160  0.69292528  1
  Se  Se255  1  0.76067041  0.57633036  0.18511478  1
  Se  Se256  1  0.74506635  0.57747671  0.69315876  1
  Se  Se257  1  0.75400803  0.90664292  0.18666024  1
  Se  Se258  1  0.75071662  0.91771003  0.70400060  1
