# generated using pymatgen
data_In86Cu29Se144
_symmetry_space_group_name_H-M   'P 1'
_cell_length_a   17.58950707
_cell_length_b   17.59039268
_cell_length_c   23.45301196
_cell_angle_alpha   90.01860650
_cell_angle_beta   90.00858493
_cell_angle_gamma   89.99539261
_symmetry_Int_Tables_number   1
_chemical_formula_structural   In86Cu29Se144
_chemical_formula_sum   'In86 Cu29 Se144'
_cell_volume   7256.51002075
_cell_formula_units_Z   1
loop_
 _symmetry_equiv_pos_site_id
 _symmetry_equiv_pos_as_xyz
  1  'x, y, z'
loop_
 _atom_site_type_symbol
 _atom_site_label
 _atom_site_symmetry_multiplicity
 _atom_site_fract_x
 _atom_site_fract_y
 _atom_site_fract_z
 _atom_site_occupancy
  In  In0  1  0.00881852  0.17380386  0.11227611  1
  In  In1  1  0.01201385  0.19132631  0.62180304  1
  In  In2  1  -0.00352264  0.49720667  0.12358586  1
  In  In3  1  -0.00009271  0.49674191  0.63304756  1
  In  In4  1  0.00641528  0.82132280  0.12042059  1
  In  In5  1  -0.00802948  0.83879272  0.62524267  1
  In  In6  1  0.33972852  0.17456794  0.11066716  1
  In  In7  1  0.34091856  0.17681557  0.61559877  1
  In  In8  1  0.34170665  0.49309811  0.12370771  1
  In  In9  1  0.33117234  0.49948790  0.62717466  1
  In  In10  1  0.33708954  0.82896275  0.12055321  1
  In  In11  1  0.33249112  0.82238340  0.62089489  1
  In  In12  1  0.66549523  0.16097200  0.11470316  1
  In  In13  1  0.66457861  0.16620407  0.62949759  1
  In  In14  1  0.66024618  0.51801850  0.13368520  1
  In  In15  1  0.66782320  0.48452706  0.63046528  1
  In  In16  1  0.64796746  0.82917849  0.12550662  1
  In  In17  1  0.66903507  0.84114796  0.62376354  1
  In  In18  1  0.18706437  0.01246794  0.38471624  1
  In  In19  1  0.16841231  -0.00244644  0.87703550  1
  In  In20  1  0.18850657  0.32502990  0.39400999  1
  In  In21  1  0.16544158  0.31956660  0.86278231  1
  In  In22  1  0.16606153  0.65260179  0.37368858  1
  In  In23  1  0.17747956  0.67239371  0.86697935  1
  In  In24  1  0.49364507  -0.00264297  0.38483742  1
  In  In25  1  0.50529167  0.00008734  0.87616393  1
  In  In26  1  0.48704230  0.33431665  0.37939130  1
  In  In27  1  0.49479752  0.32865642  0.87604877  1
  In  In28  1  0.50865656  0.67142604  0.36182356  1
  In  In29  1  0.47880054  0.67331960  0.89372104  1
  In  In30  1  0.82579252  0.00170579  0.38573865  1
  In  In31  1  0.83330363  0.01793933  0.86884352  1
  In  In32  1  0.84150178  0.32703780  0.39258512  1
  In  In33  1  0.82054412  0.32768948  0.85914781  1
  In  In34  1  0.82846637  0.67523263  0.38879342  1
  In  In35  1  0.83648503  0.64790181  0.86770526  1
  In  In36  1  0.00157465  0.16586933  0.38454668  1
  In  In37  1  -0.00370980  0.16572628  0.87126856  1
  In  In38  1  0.01086695  0.49004767  0.38961424  1
  In  In39  1  -0.01274825  0.49403480  0.85254870  1
  In  In40  1  -0.00014745  0.81933140  0.38125613  1
  In  In41  1  0.01738352  0.83288428  0.87103970  1
  In  In42  1  0.33007127  0.17138571  0.39475774  1
  In  In43  1  0.32359293  0.18347843  0.88945462  1
  In  In44  1  0.33041306  0.49749493  0.36936653  1
  In  In45  1  0.33753306  0.50038586  0.87478332  1
  In  In46  1  0.35670096  0.82690775  0.37687422  1
  In  In47  1  0.33414915  0.82742405  0.88128982  1
  In  In48  1  0.66285816  0.16693911  0.38329136  1
  In  In49  1  0.66767434  0.17077527  0.86933784  1
  In  In50  1  0.66330545  0.51465235  0.38293473  1
  In  In51  1  0.65864367  0.47948640  0.86451607  1
  In  In52  1  0.66329422  0.82965824  0.38226081  1
  In  In53  1  0.64677107  0.82966227  0.87268159  1
  In  In54  1  0.17969269  0.00772028  0.11485432  1
  In  In55  1  0.16638913  0.01385169  0.62232960  1
  In  In56  1  0.18573522  0.34002139  0.11595651  1
  In  In57  1  0.16499456  0.32892051  0.62999979  1
  In  In58  1  0.16851564  0.68223419  0.11657105  1
  In  In59  1  0.18080878  0.65348089  0.63251359  1
  In  In60  1  0.49588085  -0.00403766  0.11654735  1
  In  In61  1  0.50653390  0.01266492  0.61764447  1
  In  In62  1  0.48412660  0.32423830  0.10922684  1
  In  In63  1  0.50471385  0.33436383  0.63153753  1
  In  In64  1  0.49845288  0.66559056  0.12358952  1
  In  In65  1  0.48342233  0.66717812  0.62431977  1
  In  In66  1  0.82017490  0.00576852  0.12377704  1
  In  In67  1  0.82611599  -0.00881951  0.62199995  1
  In  In68  1  0.84171965  0.33002871  0.11850826  1
  In  In69  1  0.83430245  0.33627870  0.62736403  1
  In  In70  1  0.82808610  0.65234516  0.12787091  1
  In  In71  1  0.83884785  0.67659639  0.62243767  1
  In  In72  1  0.82309019  0.49254207  -0.00520780  1
  In  In73  1  0.49939818  0.49796464  0.50423140  1
  In  In74  1  0.16781099  0.50267377  -0.00952540  1
  In  In75  1  0.15966884  0.83719090  0.50004530  1
  In  In76  1  0.66150063  0.34212292  0.25428255  1
  In  In77  1  0.00031427  0.00067266  0.25618902  1
  In  In78  1  0.66153311  0.66309948  0.75206603  1
  In  In79  1  0.33701770  -0.00470068  0.24869992  1
  In  In80  1  -0.00066587  0.00447686  0.74751355  1
  In  In81  1  0.65916336  -0.00378459  0.26155485  1
  In  In82  1  -0.00021095  0.65919088  0.24558463  1
  In  In83  1  0.00590304  0.34064981  0.24784910  1
  In  In84  1  0.33847473  0.00912156  0.74342275  1
  In  In85  1  0.83432724  0.83770780  0.00062830  1
  Cu  Cu86  1  0.83613511  0.17324451  0.24584780  1
  Cu  Cu87  1  0.82779454  0.50857598  0.26466857  1
  Cu  Cu88  1  0.17401842  0.82763640  0.74717829  1
  Cu  Cu89  1  0.33743710  -0.00254736  -0.00343337  1
  Cu  Cu90  1  0.83165642  0.83224513  0.74717668  1
  Cu  Cu91  1  0.67029540  0.32537732  0.50838672  1
  Cu  Cu92  1  0.66637657  0.67078549  0.50303456  1
  Cu  Cu93  1  0.49361602  0.49949114  0.75286913  1
  Cu  Cu94  1  0.66372163  0.33043925  -0.00601662  1
  Cu  Cu95  1  -0.00123544  0.32616009  -0.00998329  1
  Cu  Cu96  1  0.17983187  0.18077050  0.25671850  1
  Cu  Cu97  1  0.66353765  -0.00241502  0.50352866  1
  Cu  Cu98  1  0.49381635  0.83397707  0.75555514  1
  Cu  Cu99  1  0.18211667  0.49636631  0.24882209  1
  Cu  Cu100  1  0.82285615  0.82626321  0.25970906  1
  Cu  Cu101  1  0.83018812  0.16631986  0.74202422  1
  Cu  Cu102  1  0.67636138  0.00754026  -0.00568959  1
  Cu  Cu103  1  0.17156256  0.83861008  0.24404643  1
  Cu  Cu104  1  -0.00289850  0.34175824  0.50968175  1
  Cu  Cu105  1  0.65786240  0.66442533  0.00108084  1
  Cu  Cu106  1  0.00250397  0.66119929  0.50687665  1
  Cu  Cu107  1  0.49344189  0.50122027  0.24832251  1
  Cu  Cu108  1  0.00330611  0.00166124  -0.00681199  1
  Cu  Cu109  1  0.50072912  0.16983080  0.75061974  1
  Cu  Cu110  1  -0.00806529  0.00423134  0.50460992  1
  Cu  Cu111  1  0.33655653  0.66790224  0.49775651  1
  Cu  Cu112  1  0.49198989  0.16528577  0.24598194  1
  Cu  Cu113  1  0.17020475  0.49445851  0.75036238  1
  Cu  Cu114  1  0.00441469  0.66675475  -0.01049405  1
  Se  Se115  1  0.08735104  0.08279849  0.04904650  1
  Se  Se116  1  0.07472853  0.08727342  0.55661062  1
  Se  Se117  1  0.07300948  0.40963398  0.05294695  1
  Se  Se118  1  0.08575914  0.41941956  0.56195177  1
  Se  Se119  1  0.08432282  0.75313436  0.04220299  1
  Se  Se120  1  0.08278399  0.74329003  0.56658108  1
  Se  Se121  1  0.42116363  0.08310122  0.04807329  1
  Se  Se122  1  0.40705169  0.07525323  0.55324296  1
  Se  Se123  1  0.40666113  0.41404779  0.04463375  1
  Se  Se124  1  0.40906919  0.40552916  0.55869492  1
  Se  Se125  1  0.43295457  0.76161856  0.05476046  1
  Se  Se126  1  0.42023281  0.75337476  0.54726054  1
  Se  Se127  1  0.76041844  0.09106946  0.04650711  1
  Se  Se128  1  0.74490179  0.08140303  0.55831919  1
  Se  Se129  1  0.73631923  0.41049212  0.06354640  1
  Se  Se130  1  0.75035502  0.41662324  0.55490522  1
  Se  Se131  1  0.74759167  0.74033933  0.05814486  1
  Se  Se132  1  0.74959368  0.75516351  0.55583367  1
  Se  Se133  1  0.23201240  0.23436633  0.04999324  1
  Se  Se134  1  0.23797821  0.24546398  0.55505589  1
  Se  Se135  1  0.25246795  0.58636887  0.05790577  1
  Se  Se136  1  0.25699561  0.58437165  0.55300477  1
  Se  Se137  1  0.25519855  0.91425245  0.05233166  1
  Se  Se138  1  0.25235321  0.92265419  0.55924193  1
  Se  Se139  1  0.58314427  0.24682020  0.05002379  1
  Se  Se140  1  0.58056998  0.24886051  0.55987727  1
  Se  Se141  1  0.57933170  0.57676188  0.05394887  1
  Se  Se142  1  0.58986732  0.58873296  0.56594970  1
  Se  Se143  1  0.59552568  0.92559263  0.05241461  1
  Se  Se144  1  0.57838999  0.91263828  0.55419857  1
  Se  Se145  1  0.91375089  0.24672909  0.04635208  1
  Se  Se146  1  0.91152631  0.25176101  0.55430734  1
  Se  Se147  1  0.92248316  0.58813185  0.05033599  1
  Se  Se148  1  0.91890590  0.58162120  0.56166399  1
  Se  Se149  1  0.92652946  0.92735382  0.06213070  1
  Se  Se150  1  0.91206339  0.91335365  0.55131236  1
  Se  Se151  1  0.07509950  0.26222059  0.44740443  1
  Se  Se152  1  0.08476957  0.24477387  0.93881417  1
  Se  Se153  1  0.08938556  0.58361052  0.45252919  1
  Se  Se154  1  0.07240763  0.58083299  0.92683376  1
  Se  Se155  1  0.07269080  0.93086775  0.43718076  1
  Se  Se156  1  0.08712057  0.91397771  0.94644252  1
  Se  Se157  1  0.43189297  0.24316507  0.45304697  1
  Se  Se158  1  0.43401717  0.23546576  0.94953376  1
  Se  Se159  1  0.41926165  0.58811537  0.43797697  1
  Se  Se160  1  0.41303487  0.57123159  0.95388786  1
  Se  Se161  1  0.39193436  0.93141935  0.44724732  1
  Se  Se162  1  0.42074465  0.91579644  0.94270440  1
  Se  Se163  1  0.75142702  0.24175307  0.45215365  1
  Se  Se164  1  0.75187526  0.25357957  0.94001574  1
  Se  Se165  1  0.75112417  0.58353991  0.45484470  1
  Se  Se166  1  0.73378954  0.58653483  0.93700518  1
  Se  Se167  1  0.74655921  0.91266934  0.44993277  1
  Se  Se168  1  0.74830230  0.92036826  0.93354229  1
  Se  Se169  1  0.23063699  0.10585219  0.46113924  1
  Se  Se170  1  0.25037679  0.07909524  0.94581278  1
  Se  Se171  1  0.24639683  0.43818678  0.44779564  1
  Se  Se172  1  0.25022079  0.40406772  0.93585395  1
  Se  Se173  1  0.25052769  0.74642545  0.43937016  1
  Se  Se174  1  0.24367982  0.74860631  0.94600945  1
  Se  Se175  1  0.58157972  0.08033292  0.44825555  1
  Se  Se176  1  0.59042248  0.08610967  0.94075304  1
  Se  Se177  1  0.59344432  0.40708697  0.44394765  1
  Se  Se178  1  0.58075039  0.41538406  0.94372498  1
  Se  Se179  1  0.57750310  0.74180647  0.44529953  1
  Se  Se180  1  0.57814659  0.75416441  0.95147937  1
  Se  Se181  1  0.91054372  0.08803316  0.44927087  1
  Se  Se182  1  0.91668821  0.08454854  0.94426533  1
  Se  Se183  1  0.91234730  0.42454170  0.45563952  1
  Se  Se184  1  0.91834398  0.41027624  0.93453193  1
  Se  Se185  1  0.92009250  0.74959360  0.45690184  1
  Se  Se186  1  0.91712794  0.74607842  0.93484680  1
  Se  Se187  1  0.26396997  0.25465416  0.31494234  1
  Se  Se188  1  0.26773685  0.25005186  0.80190396  1
  Se  Se189  1  0.25555605  0.58920824  0.30040247  1
  Se  Se190  1  0.25347630  0.57856398  0.80364708  1
  Se  Se191  1  0.24403632  0.91083206  0.31303778  1
  Se  Se192  1  0.25185469  0.91275585  0.80517920  1
  Se  Se193  1  0.57455137  0.24156397  0.30758728  1
  Se  Se194  1  0.58394991  0.25575929  0.80280450  1
  Se  Se195  1  0.58629404  0.57461435  0.30068443  1
  Se  Se196  1  0.56839124  0.58304430  0.81557518  1
  Se  Se197  1  0.56573470  0.90305620  0.31237360  1
  Se  Se198  1  0.58173981  0.91930178  0.80028656  1
  Se  Se199  1  0.91517727  0.24853437  0.30867521  1
  Se  Se200  1  0.91414768  0.24393554  0.79989958  1
  Se  Se201  1  0.92009048  0.58028795  0.32026516  1
  Se  Se202  1  0.92103925  0.59430290  0.78959806  1
  Se  Se203  1  0.90757210  0.90658986  0.31468627  1
  Se  Se204  1  0.91234925  0.91112122  0.81042738  1
  Se  Se205  1  0.09684263  0.09486392  0.31018172  1
  Se  Se206  1  0.09517025  0.08787633  0.80497986  1
  Se  Se207  1  0.09685182  0.42264167  0.31066204  1
  Se  Se208  1  0.08397573  0.40998764  0.79868772  1
  Se  Se209  1  0.09035854  0.75590522  0.30329091  1
  Se  Se210  1  0.08525963  0.74682855  0.79781106  1
  Se  Se211  1  0.41657547  0.08999874  0.31222801  1
  Se  Se212  1  0.42057903  0.09246809  0.81239931  1
  Se  Se213  1  0.41689750  0.41459522  0.30336524  1
  Se  Se214  1  0.41435965  0.41273967  0.80557931  1
  Se  Se215  1  0.40571035  0.73785702  0.30004118  1
  Se  Se216  1  0.41601906  0.74760803  0.80958020  1
  Se  Se217  1  0.75806233  0.09407598  0.30818333  1
  Se  Se218  1  0.74579578  0.08467865  0.79649395  1
  Se  Se219  1  0.75750955  0.41710385  0.32099636  1
  Se  Se220  1  0.77129736  0.44260306  0.80119300  1
  Se  Se221  1  0.74357852  0.74298517  0.31308442  1
  Se  Se222  1  0.75413226  0.75569411  0.81240655  1
  Se  Se223  1  0.24897123  0.09344959  0.19290305  1
  Se  Se224  1  0.24422908  0.09976707  0.69150846  1
  Se  Se225  1  0.26024454  0.40937133  0.19499321  1
  Se  Se226  1  0.25398242  0.41278858  0.69585771  1
  Se  Se227  1  0.25094136  0.75185704  0.19197837  1
  Se  Se228  1  0.26085435  0.74482384  0.69778430  1
  Se  Se229  1  0.57797280  0.08674533  0.19127957  1
  Se  Se230  1  0.58029346  0.08142844  0.69804410  1
  Se  Se231  1  0.57037490  0.41770352  0.18654726  1
  Se  Se232  1  0.58264785  0.41706396  0.70441024  1
  Se  Se233  1  0.59460169  0.73215400  0.19451350  1
  Se  Se234  1  0.57381019  0.75440074  0.69126090  1
  Se  Se235  1  0.91610360  0.08943578  0.18864772  1
  Se  Se236  1  0.91331464  0.08897729  0.68231097  1
  Se  Se237  1  0.89981965  0.42904216  0.19697708  1
  Se  Se238  1  0.92399869  0.40465673  0.69859239  1
  Se  Se239  1  0.90486843  0.75689390  0.19216475  1
  Se  Se240  1  0.91969258  0.75306429  0.69730451  1
  Se  Se241  1  0.09389598  0.24708987  0.18981755  1
  Se  Se242  1  0.08015408  0.25576033  0.70424504  1
  Se  Se243  1  0.09723970  0.57183698  0.18679974  1
  Se  Se244  1  0.08752422  0.58243328  0.69874773  1
  Se  Se245  1  0.08752420  0.91698407  0.18691472  1
  Se  Se246  1  0.09533712  0.91153517  0.69049776  1
  Se  Se247  1  0.41414319  0.24846840  0.18929585  1
  Se  Se248  1  0.41629335  0.24900583  0.69441030  1
  Se  Se249  1  0.41324205  0.58384048  0.19305438  1
  Se  Se250  1  0.41309234  0.58319686  0.69743070  1
  Se  Se251  1  0.43104448  0.90690132  0.19268440  1
  Se  Se252  1  0.42214637  0.91070443  0.68705005  1
  Se  Se253  1  0.75093225  0.24998857  0.18953820  1
  Se  Se254  1  0.74589731  0.25449919  0.69532579  1
  Se  Se255  1  0.74759592  0.58829330  0.20656945  1
  Se  Se256  1  0.75250075  0.58342467  0.68800675  1
  Se  Se257  1  0.75111564  0.91175016  0.19583867  1
  Se  Se258  1  0.74731622  0.91788978  0.69901011  1
