# generated using pymatgen
data_In86Cu29Se144
_symmetry_space_group_name_H-M   'P 1'
_cell_length_a   17.57682868
_cell_length_b   17.57719735
_cell_length_c   23.43503767
_cell_angle_alpha   90.00861662
_cell_angle_beta   90.00457807
_cell_angle_gamma   89.99557136
_symmetry_Int_Tables_number   1
_chemical_formula_structural   In86Cu29Se144
_chemical_formula_sum   'In86 Cu29 Se144'
_cell_volume   7240.28725260
_cell_formula_units_Z   1
loop_
 _symmetry_equiv_pos_site_id
 _symmetry_equiv_pos_as_xyz
  1  'x, y, z'
loop_
 _atom_site_type_symbol
 _atom_site_label
 _atom_site_symmetry_multiplicity
 _atom_site_fract_x
 _atom_site_fract_y
 _atom_site_fract_z
 _atom_site_occupancy
  In  In0  1  0.00901777  0.16485402  0.12868614  1
  In  In1  1  0.01085936  0.15402323  0.61655158  1
  In  In2  1  0.00754536  0.49285373  0.13729488  1
  In  In3  1  0.00200761  0.51150501  0.62489433  1
  In  In4  1  -0.00433989  0.84347772  0.13385338  1
  In  In5  1  -0.01561812  0.83244034  0.61955437  1
  In  In6  1  0.35517420  0.19612050  0.09719364  1
  In  In7  1  0.33066275  0.17456706  0.63101492  1
  In  In8  1  0.33209167  0.48975557  0.11173890  1
  In  In9  1  0.33891911  0.49733047  0.63332372  1
  In  In10  1  0.34297762  0.82439181  0.12390198  1
  In  In11  1  0.34897575  0.81605689  0.63810619  1
  In  In12  1  0.66674694  0.18020887  0.12709932  1
  In  In13  1  0.65017478  0.17575158  0.63680879  1
  In  In14  1  0.65184525  0.49288947  0.12082785  1
  In  In15  1  0.65471295  0.49504585  0.61309115  1
  In  In16  1  0.66273249  0.82290680  0.11718561  1
  In  In17  1  0.66988604  0.82942996  0.61868642  1
  In  In18  1  0.16989234  0.01503633  0.37668843  1
  In  In19  1  0.17903495  0.00258350  0.87296655  1
  In  In20  1  0.16218363  0.32870047  0.36740908  1
  In  In21  1  0.19521457  0.31556406  0.90368723  1
  In  In22  1  0.16397235  0.67663289  0.37320781  1
  In  In23  1  0.16515793  0.65653770  0.86989832  1
  In  In24  1  0.49840278  -0.00850136  0.37531423  1
  In  In25  1  0.49977525  -0.00097088  0.87524813  1
  In  In26  1  0.51192115  0.35095603  0.35293976  1
  In  In27  1  0.48890100  0.33111343  0.88026993  1
  In  In28  1  0.50417319  0.65981589  0.38927950  1
  In  In29  1  0.49690155  0.66955275  0.87476610  1
  In  In30  1  0.83907259  -0.01276267  0.37808672  1
  In  In31  1  0.81681849  -0.00130826  0.87301424  1
  In  In32  1  0.83912116  0.33838282  0.37092491  1
  In  In33  1  0.83078593  0.34273279  0.87495627  1
  In  In34  1  0.83282406  0.65756974  0.38911691  1
  In  In35  1  0.84588742  0.66586283  0.87289524  1
  In  In36  1  0.01012084  0.17253494  0.36771606  1
  In  In37  1  0.00777475  0.17825830  0.87957914  1
  In  In38  1  -0.00689161  0.49588110  0.37036074  1
  In  In39  1  0.00902718  0.51154506  0.87430135  1
  In  In40  1  -0.00813474  0.82593704  0.36883897  1
  In  In41  1  0.00010902  0.81783160  0.87566567  1
  In  In42  1  0.32406438  0.17175196  0.37403635  1
  In  In43  1  0.33809962  0.16796623  0.88090614  1
  In  In44  1  0.35656018  0.49472738  0.37576774  1
  In  In45  1  0.33458180  0.49523936  0.87696653  1
  In  In46  1  0.34218670  0.82425086  0.38398782  1
  In  In47  1  0.34108609  0.84671974  0.86574715  1
  In  In48  1  0.65447906  0.17344409  0.37136771  1
  In  In49  1  0.65621853  0.15055632  0.86720828  1
  In  In50  1  0.66698143  0.50066666  0.38157889  1
  In  In51  1  0.65208946  0.48264684  0.86493945  1
  In  In52  1  0.66728793  0.82763247  0.39000936  1
  In  In53  1  0.65975190  0.84038306  0.87912477  1
  In  In54  1  0.16053039  0.00882137  0.12628299  1
  In  In55  1  0.16832786  0.01393291  0.62384769  1
  In  In56  1  0.17155967  0.33457103  0.12236211  1
  In  In57  1  0.18251701  0.32921832  0.62586542  1
  In  In58  1  0.17133770  0.65433992  0.12799588  1
  In  In59  1  0.16835356  0.65742986  0.63856522  1
  In  In60  1  0.49339430  -0.00542599  0.12077535  1
  In  In61  1  0.50949075  -0.01152424  0.63601188  1
  In  In62  1  0.50293420  0.33777580  0.12141999  1
  In  In63  1  0.49004938  0.35086127  0.63906481  1
  In  In64  1  0.49869150  0.66206915  0.11537824  1
  In  In65  1  0.48637711  0.64862439  0.59621928  1
  In  In66  1  0.84520186  -0.00254989  0.12710162  1
  In  In67  1  0.82821395  -0.01883272  0.62070421  1
  In  In68  1  0.82838315  0.34334644  0.13633704  1
  In  In69  1  0.81268091  0.33040500  0.62242299  1
  In  In70  1  0.83017474  0.67885960  0.12574532  1
  In  In71  1  0.83739440  0.67321978  0.61654495  1
  In  In72  1  -0.00351088  -0.00558675  0.74044487  1
  In  In73  1  0.33561653  0.65633380  0.25108344  1
  In  In74  1  0.83318353  0.16391190  0.00327987  1
  In  In75  1  0.16851505  0.83666050  0.49895462  1
  In  In76  1  0.83089730  0.50965915  -0.00356705  1
  In  In77  1  0.17148588  0.49704002  0.50540122  1
  In  In78  1  0.65922557  0.66442196  0.74345878  1
  In  In79  1  0.66494528  0.66305605  0.25523897  1
  In  In80  1  0.67089133  -0.00033329  0.25968686  1
  In  In81  1  0.00189482  0.34280350  0.75436490  1
  In  In82  1  0.49143811  0.16918843  0.50175170  1
  In  In83  1  0.17022954  0.83385655  -0.00108577  1
  In  In84  1  0.83596907  0.16561259  0.50043293  1
  In  In85  1  0.32590186  0.00329952  0.24484170  1
  Cu  Cu86  1  0.49625372  0.16981437  0.24233965  1
  Cu  Cu87  1  0.17335363  0.49382973  0.75637625  1
  Cu  Cu88  1  0.00027704  0.33444168  0.49148509  1
  Cu  Cu89  1  0.33732426  0.33051851  0.50244811  1
  Cu  Cu90  1  0.33322781  -0.00252347  0.50251323  1
  Cu  Cu91  1  0.17139463  0.17103214  0.75429860  1
  Cu  Cu92  1  0.66994982  -0.00075754  0.50620643  1
  Cu  Cu93  1  0.16422734  0.49802750  0.24793040  1
  Cu  Cu94  1  0.49144496  0.16841282  0.75735505  1
  Cu  Cu95  1  0.33674019  0.00101564  -0.00527826  1
  Cu  Cu96  1  0.84121599  0.16975486  0.24824879  1
  Cu  Cu97  1  0.65959979  0.34117218  0.49764974  1
  Cu  Cu98  1  -0.00525364  -0.00553736  0.00485624  1
  Cu  Cu99  1  0.65897451  0.32769518  -0.00482560  1
  Cu  Cu100  1  0.16678323  0.82756249  0.75312278  1
  Cu  Cu101  1  0.33830381  0.66821320  -0.00414615  1
  Cu  Cu102  1  -0.00007251  0.66752022  0.50054333  1
  Cu  Cu103  1  0.83042840  0.82704273  0.74385354  1
  Cu  Cu104  1  0.50209521  0.83387413  0.75097265  1
  Cu  Cu105  1  0.16332492  0.83864793  0.25413786  1
  Cu  Cu106  1  0.82455457  0.16726671  0.74675140  1
  Cu  Cu107  1  0.82942538  0.50301166  0.74975728  1
  Cu  Cu108  1  0.82838366  0.50555353  0.25777885  1
  Cu  Cu109  1  0.66407041  0.66626518  -0.00501788  1
  Cu  Cu110  1  0.00597240  0.33821399  0.00930152  1
  Cu  Cu111  1  0.83596261  0.83238194  0.25111525  1
  Cu  Cu112  1  0.17069453  0.17371271  0.24400598  1
  Cu  Cu113  1  0.66200354  -0.00395176  -0.00149426  1
  Cu  Cu114  1  -0.00057728  0.67185079  0.00140926  1
  Se  Se115  1  0.07845480  0.08233400  0.05200442  1
  Se  Se116  1  0.08955027  0.07874158  0.54496251  1
  Se  Se117  1  0.08645027  0.42688099  0.05864015  1
  Se  Se118  1  0.07743523  0.40554524  0.56221721  1
  Se  Se119  1  0.08169069  0.74879922  0.06369979  1
  Se  Se120  1  0.08384353  0.74080345  0.56266460  1
  Se  Se121  1  0.42286196  0.08155015  0.04852953  1
  Se  Se122  1  0.41330448  0.07488746  0.56608490  1
  Se  Se123  1  0.41641565  0.40627138  0.04707899  1
  Se  Se124  1  0.41503364  0.41693229  0.55732833  1
  Se  Se125  1  0.42126880  0.75293602  0.04814306  1
  Se  Se126  1  0.41728075  0.76260327  0.55004066  1
  Se  Se127  1  0.74124149  0.07341582  0.06316566  1
  Se  Se128  1  0.73972758  0.08771646  0.56623346  1
  Se  Se129  1  0.74668980  0.40770790  0.05163944  1
  Se  Se130  1  0.75114223  0.41901949  0.54771146  1
  Se  Se131  1  0.75032740  0.74670046  0.04792745  1
  Se  Se132  1  0.77184079  0.77190284  0.55202296  1
  Se  Se133  1  0.23569342  0.24588902  0.04737434  1
  Se  Se134  1  0.25247681  0.24501961  0.55150865  1
  Se  Se135  1  0.25374623  0.58923327  0.05175014  1
  Se  Se136  1  0.25740238  0.59005722  0.56297523  1
  Se  Se137  1  0.25907300  0.92377022  0.06121392  1
  Se  Se138  1  0.25801731  0.91687953  0.56595661  1
  Se  Se139  1  0.58140277  0.24445640  0.05252890  1
  Se  Se140  1  0.58063014  0.26161793  0.55992393  1
  Se  Se141  1  0.58372748  0.57990965  0.04790993  1
  Se  Se142  1  0.60941693  0.60395686  0.54603479  1
  Se  Se143  1  0.58023941  0.91274690  0.05436132  1
  Se  Se144  1  0.58185824  0.91771519  0.55604060  1
  Se  Se145  1  0.91616442  0.26077729  0.06363185  1
  Se  Se146  1  0.92477072  0.25901510  0.56101133  1
  Se  Se147  1  0.92277549  0.58800998  0.06289712  1
  Se  Se148  1  0.91727812  0.58016413  0.55109882  1
  Se  Se149  1  0.91349727  0.90848237  0.05449444  1
  Se  Se150  1  0.93090989  0.93414296  0.55197901  1
  Se  Se151  1  0.08676736  0.25058097  0.44360178  1
  Se  Se152  1  0.08270203  0.24760652  0.95713697  1
  Se  Se153  1  0.08116852  0.58596407  0.44204509  1
  Se  Se154  1  0.08447891  0.58976451  0.94949859  1
  Se  Se155  1  0.08012337  0.91897301  0.43409288  1
  Se  Se156  1  0.07692727  0.92253225  0.93817974  1
  Se  Se157  1  0.41752661  0.26130895  0.43389354  1
  Se  Se158  1  0.40857707  0.25420802  0.95408147  1
  Se  Se159  1  0.41211848  0.58070171  0.45269574  1
  Se  Se160  1  0.41992265  0.58227404  0.94385779  1
  Se  Se161  1  0.41804174  0.91745501  0.44896264  1
  Se  Se162  1  0.41881432  0.91318524  0.94539260  1
  Se  Se163  1  0.74032348  0.25498322  0.44199357  1
  Se  Se164  1  0.74547031  0.25000961  0.93780052  1
  Se  Se165  1  0.72624069  0.59913762  0.45154340  1
  Se  Se166  1  0.73799344  0.58633361  0.92932099  1
  Se  Se167  1  0.75269788  0.91849858  0.45064505  1
  Se  Se168  1  0.75101774  0.91492906  0.94879792  1
  Se  Se169  1  0.25665890  0.08558903  0.44901771  1
  Se  Se170  1  0.24788837  0.08382072  0.94783126  1
  Se  Se171  1  0.25526125  0.40884214  0.44009663  1
  Se  Se172  1  0.23209875  0.44261911  0.94772184  1
  Se  Se173  1  0.25821253  0.73417404  0.44912403  1
  Se  Se174  1  0.25699524  0.74821219  0.93477721  1
  Se  Se175  1  0.58932444  0.07713708  0.44468987  1
  Se  Se176  1  0.58067493  0.08259888  0.94704896  1
  Se  Se177  1  0.57217570  0.41626241  0.44160370  1
  Se  Se178  1  0.57862094  0.41710591  0.94611671  1
  Se  Se179  1  0.56468683  0.76516741  0.45122823  1
  Se  Se180  1  0.57972944  0.75171485  0.94428762  1
  Se  Se181  1  0.92603118  0.08234754  0.43778996  1
  Se  Se182  1  0.92158892  0.07584444  0.93799848  1
  Se  Se183  1  0.91371313  0.41976460  0.44564762  1
  Se  Se184  1  0.92795280  0.41348233  0.94398246  1
  Se  Se185  1  0.91788872  0.75211571  0.44722309  1
  Se  Se186  1  0.91201880  0.75109654  0.94950969  1
  Se  Se187  1  0.25421560  0.25453982  0.29911581  1
  Se  Se188  1  0.25026498  0.25160356  0.81302134  1
  Se  Se189  1  0.24315593  0.57208804  0.31506567  1
  Se  Se190  1  0.25743757  0.58287496  0.80375569  1
  Se  Se191  1  0.24993633  0.90912718  0.31522912  1
  Se  Se192  1  0.24758800  0.91991728  0.79836482  1
  Se  Se193  1  0.58635369  0.25000753  0.29324350  1
  Se  Se194  1  0.57729032  0.24963381  0.81082041  1
  Se  Se195  1  0.57056300  0.57353968  0.30919951  1
  Se  Se196  1  0.56873476  0.57452324  0.80188061  1
  Se  Se197  1  0.58076153  0.90170808  0.30938858  1
  Se  Se198  1  0.58462637  0.91835095  0.80401271  1
  Se  Se199  1  0.92164060  0.25473996  0.30339673  1
  Se  Se200  1  0.90838313  0.24250466  0.80744432  1
  Se  Se201  1  0.91129961  0.59035198  0.30948216  1
  Se  Se202  1  0.91913505  0.57970475  0.80167520  1
  Se  Se203  1  0.91940635  0.92025895  0.30001179  1
  Se  Se204  1  0.90979509  0.90803856  0.80759774  1
  Se  Se205  1  0.09208314  0.08634179  0.29911060  1
  Se  Se206  1  0.08209241  0.08806893  0.80563339  1
  Se  Se207  1  0.07972576  0.41671612  0.30290154  1
  Se  Se208  1  0.09855399  0.41251839  0.82028844  1
  Se  Se209  1  0.08073372  0.74832093  0.30037221  1
  Se  Se210  1  0.08119354  0.74390966  0.80309592  1
  Se  Se211  1  0.42325988  0.08940898  0.30747150  1
  Se  Se212  1  0.41112162  0.08048692  0.80905015  1
  Se  Se213  1  0.39952252  0.40540314  0.29569920  1
  Se  Se214  1  0.41261760  0.41144315  0.80671862  1
  Se  Se215  1  0.42480150  0.74638088  0.31066125  1
  Se  Se216  1  0.41718400  0.75078765  0.80302808  1
  Se  Se217  1  0.76302279  0.09468229  0.31486989  1
  Se  Se218  1  0.74558721  0.07718799  0.79694348  1
  Se  Se219  1  0.74584247  0.41972446  0.30932679  1
  Se  Se220  1  0.75035110  0.41364668  0.79981054  1
  Se  Se221  1  0.75558298  0.75546795  0.31295500  1
  Se  Se222  1  0.75106504  0.75057787  0.80859352  1
  Se  Se223  1  0.25485624  0.10158288  0.18063650  1
  Se  Se224  1  0.25004645  0.08582372  0.69859472  1
  Se  Se225  1  0.24993901  0.42307714  0.19068670  1
  Se  Se226  1  0.25351717  0.41200590  0.69918636  1
  Se  Se227  1  0.24532627  0.75761910  0.19528651  1
  Se  Se228  1  0.25287516  0.74302067  0.70283379  1
  Se  Se229  1  0.58000342  0.08207056  0.19126133  1
  Se  Se230  1  0.57669769  0.08525140  0.70383631  1
  Se  Se231  1  0.59048281  0.40749010  0.19517925  1
  Se  Se232  1  0.59929630  0.41414254  0.69453181  1
  Se  Se233  1  0.57549587  0.74940903  0.19117129  1
  Se  Se234  1  0.57140382  0.75361784  0.68354489  1
  Se  Se235  1  0.92081918  0.08375835  0.19555386  1
  Se  Se236  1  0.90635556  0.09121973  0.68537109  1
  Se  Se237  1  0.91373239  0.42168177  0.20436620  1
  Se  Se238  1  0.90786677  0.41974287  0.68760994  1
  Se  Se239  1  0.91810536  0.74836354  0.19754794  1
  Se  Se240  1  0.91832875  0.74565355  0.69456576  1
  Se  Se241  1  0.08336291  0.25791242  0.19389621  1
  Se  Se242  1  0.08536448  0.24441502  0.69279749  1
  Se  Se243  1  0.08239295  0.58930817  0.20150440  1
  Se  Se244  1  0.08334587  0.57335028  0.70461466  1
  Se  Se245  1  0.08627642  0.92405687  0.19799044  1
  Se  Se246  1  0.09186729  0.90484294  0.68555945  1
  Se  Se247  1  0.41487038  0.25271044  0.18861138  1
  Se  Se248  1  0.41370988  0.25384216  0.70047296  1
  Se  Se249  1  0.42185056  0.57195556  0.18556736  1
  Se  Se250  1  0.43160024  0.58733787  0.68632999  1
  Se  Se251  1  0.42353459  0.90646765  0.19856960  1
  Se  Se252  1  0.41235918  0.91947380  0.70224473  1
  Se  Se253  1  0.75100698  0.25049066  0.20037112  1
  Se  Se254  1  0.74081679  0.25662507  0.70108324  1
  Se  Se255  1  0.75194830  0.57623770  0.18764700  1
  Se  Se256  1  0.75479134  0.57955233  0.68426054  1
  Se  Se257  1  0.75107308  0.90832621  0.19088659  1
  Se  Se258  1  0.74482978  0.91183718  0.69536015  1
