# generated using pymatgen
data_In86Cu29Se144
_symmetry_space_group_name_H-M   'P 1'
_cell_length_a   17.58096353
_cell_length_b   17.58717230
_cell_length_c   23.43994327
_cell_angle_alpha   90.00049413
_cell_angle_beta   89.99009750
_cell_angle_gamma   90.00006899
_symmetry_Int_Tables_number   1
_chemical_formula_structural   In86Cu29Se144
_chemical_formula_sum   'In86 Cu29 Se144'
_cell_volume   7247.61710468
_cell_formula_units_Z   1
loop_
 _symmetry_equiv_pos_site_id
 _symmetry_equiv_pos_as_xyz
  1  'x, y, z'
loop_
 _atom_site_type_symbol
 _atom_site_label
 _atom_site_symmetry_multiplicity
 _atom_site_fract_x
 _atom_site_fract_y
 _atom_site_fract_z
 _atom_site_occupancy
  In  In0  1  0.01174431  0.16490063  0.12652324  1
  In  In1  1  -0.00166744  0.17023505  0.63618205  1
  In  In2  1  0.00045127  0.50511478  0.11315608  1
  In  In3  1  -0.01321866  0.51317429  0.63548579  1
  In  In4  1  -0.01230209  0.83864135  0.12005288  1
  In  In5  1  0.01270871  0.81851299  0.63530342  1
  In  In6  1  0.35602124  0.13856843  0.14794114  1
  In  In7  1  0.33422911  0.14603314  0.62460557  1
  In  In8  1  0.33983298  0.50522892  0.11390136  1
  In  In9  1  0.34804108  0.51803601  0.63425869  1
  In  In10  1  0.34431958  0.82996604  0.12585447  1
  In  In11  1  0.34044237  0.83018181  0.62617660  1
  In  In12  1  0.65306147  0.16517485  0.12746520  1
  In  In13  1  0.66366813  0.16938436  0.62998768  1
  In  In14  1  0.66856428  0.51126681  0.10799910  1
  In  In15  1  0.66719887  0.49118968  0.63827530  1
  In  In16  1  0.66258318  0.83424616  0.12182605  1
  In  In17  1  0.65574848  0.84334399  0.63297368  1
  In  In18  1  0.16488305  -0.01449054  0.37756921  1
  In  In19  1  0.17090679  0.00152453  0.86801643  1
  In  In20  1  0.16091488  0.33667096  0.37699957  1
  In  In21  1  0.16462921  0.34694262  0.87447484  1
  In  In22  1  0.18739864  0.66789561  0.37147327  1
  In  In23  1  0.16052932  0.66268662  0.86965184  1
  In  In24  1  0.49522587  -0.00198463  0.37046970  1
  In  In25  1  0.49993259  -0.00600752  0.87912938  1
  In  In26  1  0.49577572  0.32853660  0.37710538  1
  In  In27  1  0.50787659  0.32726657  0.87731487  1
  In  In28  1  0.50540431  0.67521604  0.36514431  1
  In  In29  1  0.50202250  0.67085680  0.87545936  1
  In  In30  1  0.82542123  0.00579084  0.37287282  1
  In  In31  1  0.81792640  -0.01533703  0.86658516  1
  In  In32  1  0.83994342  0.33710837  0.37837447  1
  In  In33  1  0.83804189  0.34456931  0.86977490  1
  In  In34  1  0.81691619  0.66897561  0.37535815  1
  In  In35  1  0.82659890  0.66517512  0.87918167  1
  In  In36  1  -0.00560051  0.16773873  0.37628919  1
  In  In37  1  -0.00237036  0.16495620  0.86654180  1
  In  In38  1  -0.00682917  0.49179111  0.37796004  1
  In  In39  1  -0.00239730  0.50320567  0.87442336  1
  In  In40  1  0.00584920  0.84626886  0.38231908  1
  In  In41  1  -0.00980404  0.82117215  0.86458962  1
  In  In42  1  0.35398357  0.16512057  0.37272624  1
  In  In43  1  0.35023569  0.15924292  0.88046122  1
  In  In44  1  0.32862369  0.51628246  0.36681876  1
  In  In45  1  0.32355852  0.50457025  0.88030600  1
  In  In46  1  0.33770891  0.83350289  0.37294815  1
  In  In47  1  0.34873043  0.84225961  0.87289363  1
  In  In48  1  0.66076556  0.14325953  0.36155143  1
  In  In49  1  0.65332467  0.15366141  0.86845567  1
  In  In50  1  0.66367897  0.51588530  0.37511742  1
  In  In51  1  0.66369732  0.51035826  0.87565358  1
  In  In52  1  0.65240451  0.82261434  0.36795917  1
  In  In53  1  0.65921985  0.82824822  0.87898324  1
  In  In54  1  0.18355117  0.00371668  0.12876518  1
  In  In55  1  0.18316959  -0.01474861  0.63370577  1
  In  In56  1  0.16555471  0.33700576  0.11965085  1
  In  In57  1  0.16513618  0.32507038  0.62978061  1
  In  In58  1  0.18008731  0.66365269  0.12577671  1
  In  In59  1  0.16635975  0.67135183  0.63058268  1
  In  In60  1  0.49945365  0.00469724  0.12486567  1
  In  In61  1  0.50251170  -0.00561572  0.62379479  1
  In  In62  1  0.49727118  0.33468695  0.11119195  1
  In  In63  1  0.51761910  0.33248113  0.62928635  1
  In  In64  1  0.50391957  0.66823140  0.11661590  1
  In  In65  1  0.49303409  0.67286191  0.64273134  1
  In  In66  1  0.83174099  -0.01697909  0.12161000  1
  In  In67  1  0.82852809  0.00433338  0.63604686  1
  In  In68  1  0.82378298  0.33998304  0.11762864  1
  In  In69  1  0.82210002  0.34605034  0.63596002  1
  In  In70  1  0.81119950  0.65693915  0.10360470  1
  In  In71  1  0.83545369  0.66095553  0.63118134  1
  In  In72  1  0.16504353  0.83073264  0.00490691  1
  In  In73  1  0.50358808  0.50048872  0.50931781  1
  In  In74  1  0.32938959  0.32898072  0.75360171  1
  In  In75  1  0.33170598  0.33525765  0.25149842  1
  In  In76  1  0.00049495  0.67094352  0.24247627  1
  In  In77  1  0.66851082  0.33481628  0.24135353  1
  In  In78  1  0.00139039  0.33463683  0.25517310  1
  In  In79  1  0.82920368  0.16904705  -0.00364451  1
  In  In80  1  0.82713852  0.16712191  0.49480964  1
  In  In81  1  0.16754211  0.15927831  0.49386095  1
  In  In82  1  -0.00295469  -0.00008992  0.25256898  1
  In  In83  1  0.16568877  0.50045216  0.49669061  1
  In  In84  1  0.83741630  0.83189399  0.50433480  1
  In  In85  1  0.17877194  0.16841471  0.00521034  1
  Cu  Cu86  1  0.33515435  0.33346316  -0.00316866  1
  Cu  Cu87  1  0.16385182  0.16398158  0.75055229  1
  Cu  Cu88  1  0.65814727  -0.00695458  0.49689800  1
  Cu  Cu89  1  0.66755432  0.33974037  -0.00531538  1
  Cu  Cu90  1  0.34022501  0.67369848  0.50043020  1
  Cu  Cu91  1  0.00907586  -0.00609640  0.51117926  1
  Cu  Cu92  1  0.82932620  0.83197164  0.75229876  1
  Cu  Cu93  1  0.34124963  0.32834421  0.49943182  1
  Cu  Cu94  1  0.17344848  0.83489526  0.25011156  1
  Cu  Cu95  1  0.83220197  0.50423533  0.75652046  1
  Cu  Cu96  1  0.67061968  0.33229968  0.50740584  1
  Cu  Cu97  1  0.81753153  0.82954239  0.24671187  1
  Cu  Cu98  1  0.33324568  0.66808821  -0.00211542  1
  Cu  Cu99  1  0.16260649  0.50265135  0.75287465  1
  Cu  Cu100  1  0.66776798  0.66452021  0.50089295  1
  Cu  Cu101  1  0.50148432  0.83576383  0.75474787  1
  Cu  Cu102  1  0.34493559  -0.01175827  0.50135346  1
  Cu  Cu103  1  -0.01301421  0.34416974  0.50983631  1
  Cu  Cu104  1  0.82950394  0.17192361  0.75298410  1
  Cu  Cu105  1  0.65957782  -0.00241057  -0.00351278  1
  Cu  Cu106  1  0.00277309  0.66629099  0.50888600  1
  Cu  Cu107  1  0.49935419  0.15730405  0.75048066  1
  Cu  Cu108  1  0.49724172  0.83757613  0.24543661  1
  Cu  Cu109  1  -0.00343143  0.66462725  -0.00936319  1
  Cu  Cu110  1  0.00138082  0.33681539  -0.00502209  1
  Cu  Cu111  1  -0.00196753  -0.00485814  -0.00705677  1
  Cu  Cu112  1  0.17468004  0.83143364  0.75112778  1
  Cu  Cu113  1  0.82872918  0.50694691  0.24212564  1
  Cu  Cu114  1  0.49990275  0.51015895  0.24036809  1
  Se  Se115  1  0.08026511  0.06919506  0.05514648  1
  Se  Se116  1  0.08503423  0.08106577  0.56760989  1
  Se  Se117  1  0.08566037  0.41780492  0.04962569  1
  Se  Se118  1  0.07872136  0.41667652  0.56488666  1
  Se  Se119  1  0.07178882  0.73748297  0.06129244  1
  Se  Se120  1  0.08983922  0.75015225  0.55524909  1
  Se  Se121  1  0.41795319  0.09181889  0.05685695  1
  Se  Se122  1  0.42209443  0.07958389  0.55230038  1
  Se  Se123  1  0.42058216  0.42270323  0.04406094  1
  Se  Se124  1  0.40891836  0.40939572  0.56629402  1
  Se  Se125  1  0.41636676  0.75194613  0.04969768  1
  Se  Se126  1  0.42646213  0.74548862  0.55946704  1
  Se  Se127  1  0.74308445  0.07681542  0.05741600  1
  Se  Se128  1  0.74244960  0.07267644  0.55549235  1
  Se  Se129  1  0.75449590  0.42231466  0.04434113  1
  Se  Se130  1  0.74719248  0.42140306  0.55895578  1
  Se  Se131  1  0.75869494  0.77194911  0.05067393  1
  Se  Se132  1  0.74325619  0.74727581  0.56354099  1
  Se  Se133  1  0.26884678  0.25385847  0.06680403  1
  Se  Se134  1  0.25579258  0.25100766  0.55700772  1
  Se  Se135  1  0.24678102  0.58373346  0.04794403  1
  Se  Se136  1  0.26032856  0.58742815  0.55672491  1
  Se  Se137  1  0.26067418  0.92284036  0.05568358  1
  Se  Se138  1  0.25582501  0.91173233  0.55527744  1
  Se  Se139  1  0.59132607  0.25289818  0.05119781  1
  Se  Se140  1  0.58514704  0.24644935  0.55453517  1
  Se  Se141  1  0.57773187  0.58497333  0.04332483  1
  Se  Se142  1  0.59021047  0.59146405  0.56832915  1
  Se  Se143  1  0.57742445  0.91839416  0.05468869  1
  Se  Se144  1  0.57979628  0.90803308  0.55180252  1
  Se  Se145  1  0.92718106  0.25404493  0.05779577  1
  Se  Se146  1  0.91217945  0.25288845  0.56372950  1
  Se  Se147  1  0.91301817  0.58135522  0.04574250  1
  Se  Se148  1  0.91402494  0.58403152  0.55513917  1
  Se  Se149  1  0.91167323  0.91333814  0.04399368  1
  Se  Se150  1  0.92229591  0.92013908  0.56947203  1
  Se  Se151  1  0.06726514  0.26167270  0.44981946  1
  Se  Se152  1  0.08060807  0.24888126  0.94132558  1
  Se  Se153  1  0.07761881  0.59372728  0.43722109  1
  Se  Se154  1  0.08574960  0.58177840  0.94392661  1
  Se  Se155  1  0.09176159  0.91220607  0.45707248  1
  Se  Se156  1  0.08048079  0.91519937  0.93558860  1
  Se  Se157  1  0.42542440  0.24364748  0.45045829  1
  Se  Se158  1  0.42197544  0.24912532  0.94853018  1
  Se  Se159  1  0.41730541  0.58739754  0.44195554  1
  Se  Se160  1  0.41499896  0.58539227  0.94294532  1
  Se  Se161  1  0.42590282  0.90833569  0.44323093  1
  Se  Se162  1  0.42191978  0.91155309  0.95127988  1
  Se  Se163  1  0.73609556  0.25495678  0.43466848  1
  Se  Se164  1  0.74182522  0.25466911  0.93285976  1
  Se  Se165  1  0.75190079  0.58079146  0.45001176  1
  Se  Se166  1  0.74754997  0.58313524  0.94927811  1
  Se  Se167  1  0.74503987  0.91503687  0.44001635  1
  Se  Se168  1  0.74611046  0.91442983  0.94666240  1
  Se  Se169  1  0.26447890  0.07039215  0.44029552  1
  Se  Se170  1  0.25886116  0.07176438  0.94475353  1
  Se  Se171  1  0.26513457  0.41129822  0.44004601  1
  Se  Se172  1  0.24581993  0.41601780  0.94993268  1
  Se  Se173  1  0.25417799  0.75227267  0.44556991  1
  Se  Se174  1  0.25204854  0.74862683  0.93722503  1
  Se  Se175  1  0.58201876  0.08018450  0.44112734  1
  Se  Se176  1  0.57748867  0.08602511  0.94789210  1
  Se  Se177  1  0.59074423  0.41216509  0.44312916  1
  Se  Se178  1  0.58108626  0.42103362  0.94336098  1
  Se  Se179  1  0.58271490  0.74306762  0.44546756  1
  Se  Se180  1  0.56171875  0.76614005  0.94821062  1
  Se  Se181  1  0.92692917  0.06837279  0.44766439  1
  Se  Se182  1  0.91610382  0.07623290  0.93637292  1
  Se  Se183  1  0.90694783  0.42432862  0.45242855  1
  Se  Se184  1  0.91583488  0.41973376  0.94523045  1
  Se  Se185  1  0.92486281  0.74123474  0.44039724  1
  Se  Se186  1  0.91423508  0.75359547  0.94408906  1
  Se  Se187  1  0.24501393  0.24499747  0.31614964  1
  Se  Se188  1  0.24295503  0.23854301  0.81725282  1
  Se  Se189  1  0.24859950  0.58727271  0.29336007  1
  Se  Se190  1  0.25062563  0.58330671  0.80318343  1
  Se  Se191  1  0.25292008  0.91927020  0.30488834  1
  Se  Se192  1  0.25598287  0.91609835  0.80425994  1
  Se  Se193  1  0.57876443  0.24875934  0.30498351  1
  Se  Se194  1  0.57993071  0.24639036  0.80073053  1
  Se  Se195  1  0.58573906  0.58606894  0.29839043  1
  Se  Se196  1  0.58037051  0.58781659  0.80410494  1
  Se  Se197  1  0.58284107  0.91695467  0.30172922  1
  Se  Se198  1  0.58615453  0.91902562  0.80740370  1
  Se  Se199  1  0.90319935  0.23992329  0.30466221  1
  Se  Se200  1  0.91650154  0.25444158  0.80310342  1
  Se  Se201  1  0.91013553  0.58074903  0.30689541  1
  Se  Se202  1  0.91575208  0.58968202  0.80780768  1
  Se  Se203  1  0.90463452  0.90238541  0.30824993  1
  Se  Se204  1  0.91713702  0.91811534  0.80045651  1
  Se  Se205  1  0.08925424  0.08938859  0.31310775  1
  Se  Se206  1  0.08037083  0.07821710  0.80159096  1
  Se  Se207  1  0.09486614  0.43337561  0.30608091  1
  Se  Se208  1  0.07847139  0.41771815  0.80296570  1
  Se  Se209  1  0.08615849  0.76011446  0.30930370  1
  Se  Se210  1  0.08472452  0.74866185  0.79904409  1
  Se  Se211  1  0.42106006  0.08392595  0.29806672  1
  Se  Se212  1  0.41720947  0.07560801  0.80536168  1
  Se  Se213  1  0.42874470  0.42981007  0.30737156  1
  Se  Se214  1  0.41463013  0.41628747  0.81531815  1
  Se  Se215  1  0.41463147  0.75106557  0.29922561  1
  Se  Se216  1  0.41538903  0.74924755  0.80280911  1
  Se  Se217  1  0.76006062  0.08334117  0.29548554  1
  Se  Se218  1  0.74764681  0.08245133  0.80193487  1
  Se  Se219  1  0.75553960  0.42482721  0.30700811  1
  Se  Se220  1  0.74479720  0.42149277  0.80639845  1
  Se  Se221  1  0.73974109  0.74172246  0.30001704  1
  Se  Se222  1  0.74723130  0.75085997  0.80893234  1
  Se  Se223  1  0.23671407  0.09570598  0.20258650  1
  Se  Se224  1  0.25219344  0.08117300  0.70161823  1
  Se  Se225  1  0.24856019  0.42449368  0.18768541  1
  Se  Se226  1  0.24557620  0.42632260  0.68986880  1
  Se  Se227  1  0.25292967  0.75270203  0.19368618  1
  Se  Se228  1  0.25738742  0.74739953  0.69634504  1
  Se  Se229  1  0.58049250  0.08303691  0.19857009  1
  Se  Se230  1  0.58455246  0.07804509  0.69385394  1
  Se  Se231  1  0.57828555  0.42581747  0.18275025  1
  Se  Se232  1  0.57411731  0.41933851  0.70480560  1
  Se  Se233  1  0.57854034  0.75247761  0.19119909  1
  Se  Se234  1  0.58830786  0.75203429  0.70393517  1
  Se  Se235  1  0.91254215  0.08571010  0.18568366  1
  Se  Se236  1  0.91452776  0.08624748  0.70162606  1
  Se  Se237  1  0.91252369  0.42318626  0.18893696  1
  Se  Se238  1  0.91597809  0.41871051  0.70222702  1
  Se  Se239  1  0.90097524  0.75299887  0.18640885  1
  Se  Se240  1  0.91406072  0.74891771  0.69872588  1
  Se  Se241  1  0.09591439  0.24631303  0.19682568  1
  Se  Se242  1  0.08230914  0.25430923  0.70323154  1
  Se  Se243  1  0.08895671  0.57382558  0.18976209  1
  Se  Se244  1  0.08234818  0.58826102  0.69782963  1
  Se  Se245  1  0.08732061  0.90927625  0.18934598  1
  Se  Se246  1  0.08682863  0.91442325  0.69921514  1
  Se  Se247  1  0.43165388  0.25432095  0.19471802  1
  Se  Se248  1  0.41873818  0.24039498  0.69009802  1
  Se  Se249  1  0.41498417  0.58863760  0.18635728  1
  Se  Se250  1  0.43176711  0.57445435  0.71178246  1
  Se  Se251  1  0.41275755  0.92277124  0.19511996  1
  Se  Se252  1  0.41925663  0.91627287  0.69572732  1
  Se  Se253  1  0.76195673  0.24153907  0.18706470  1
  Se  Se254  1  0.74416480  0.25308118  0.69891860  1
  Se  Se255  1  0.74458527  0.58529186  0.18692795  1
  Se  Se256  1  0.74843206  0.58443147  0.70015395  1
  Se  Se257  1  0.74192077  0.91994507  0.19490789  1
  Se  Se258  1  0.74641997  0.91835702  0.70076410  1
