# generated using pymatgen
data_In86Cu29Se144
_symmetry_space_group_name_H-M   'P 1'
_cell_length_a   17.58549911
_cell_length_b   17.58460098
_cell_length_c   23.45246700
_cell_angle_alpha   90.00281663
_cell_angle_beta   89.99102102
_cell_angle_gamma   90.00502812
_symmetry_Int_Tables_number   1
_chemical_formula_structural   In86Cu29Se144
_chemical_formula_sum   'In86 Cu29 Se144'
_cell_volume   7252.29969977
_cell_formula_units_Z   1
loop_
 _symmetry_equiv_pos_site_id
 _symmetry_equiv_pos_as_xyz
  1  'x, y, z'
loop_
 _atom_site_type_symbol
 _atom_site_label
 _atom_site_symmetry_multiplicity
 _atom_site_fract_x
 _atom_site_fract_y
 _atom_site_fract_z
 _atom_site_occupancy
  In  In0  1  0.01170958  0.15714710  0.14112036  1
  In  In1  1  0.00583276  0.17747588  0.61128141  1
  In  In2  1  0.00742049  0.48179291  0.12995778  1
  In  In3  1  0.00771863  0.49518650  0.62180670  1
  In  In4  1  0.01705143  0.83581678  0.12690674  1
  In  In5  1  0.00445948  0.84109985  0.62196075  1
  In  In6  1  0.33658768  0.16410675  0.12263376  1
  In  In7  1  0.33185291  0.16767443  0.62611190  1
  In  In8  1  0.32867600  0.50826523  0.13142902  1
  In  In9  1  0.32668043  0.49660804  0.62900548  1
  In  In10  1  0.32025352  0.83759828  0.12627962  1
  In  In11  1  0.34400225  0.82796047  0.62866257  1
  In  In12  1  0.65617830  0.17046842  0.13454371  1
  In  In13  1  0.66338968  0.17094137  0.62368862  1
  In  In14  1  0.65499200  0.48609151  0.12281541  1
  In  In15  1  0.66768429  0.49551186  0.63279282  1
  In  In16  1  0.68002119  0.83963003  0.12090836  1
  In  In17  1  0.65025118  0.84805534  0.63062371  1
  In  In18  1  0.18438543  0.01225184  0.36485728  1
  In  In19  1  0.18377236  -0.01429388  0.89716627  1
  In  In20  1  0.17369209  0.33486029  0.37412262  1
  In  In21  1  0.17661963  0.32728434  0.88122620  1
  In  In22  1  0.17058721  0.64614202  0.37883437  1
  In  In23  1  0.19209892  0.65119977  0.89618831  1
  In  In24  1  0.49952607  -0.00006893  0.37650832  1
  In  In25  1  0.50364182  0.00664688  0.87142419  1
  In  In26  1  0.47567948  0.31459506  0.37093882  1
  In  In27  1  0.48938468  0.32165020  0.87038730  1
  In  In28  1  0.49926325  0.67965392  0.37935339  1
  In  In29  1  0.49011346  0.66240487  0.86302200  1
  In  In30  1  0.84856986  0.02870397  0.35403785  1
  In  In31  1  0.81611358  0.00861140  0.87205337  1
  In  In32  1  0.81492554  0.30532238  0.35353401  1
  In  In33  1  0.83257762  0.33570864  0.87136442  1
  In  In34  1  0.83892903  0.67253670  0.37691808  1
  In  In35  1  0.82518106  0.67364556  0.87153130  1
  In  In36  1  0.00544548  0.17000968  0.36950066  1
  In  In37  1  0.00622598  0.17451209  0.87453983  1
  In  In38  1  0.02728112  0.48636217  0.38602879  1
  In  In39  1  0.01282620  0.50800282  0.87418136  1
  In  In40  1  -0.00802903  0.84031882  0.37444077  1
  In  In41  1  0.01154347  0.84638146  0.87443485  1
  In  In42  1  0.33679393  0.16735876  0.38190659  1
  In  In43  1  0.33303321  0.16441558  0.87669482  1
  In  In44  1  0.32013816  0.48708528  0.36743934  1
  In  In45  1  0.32613225  0.49892318  0.87076193  1
  In  In46  1  0.34641534  0.84245488  0.36635992  1
  In  In47  1  0.33122077  0.83194180  0.87373695  1
  In  In48  1  0.65902986  0.16189544  0.37526522  1
  In  In49  1  0.65506209  0.15152338  0.85552795  1
  In  In50  1  0.67853394  0.49360088  0.37889769  1
  In  In51  1  0.65106113  0.48846808  0.86197651  1
  In  In52  1  0.65038940  0.84446303  0.38144878  1
  In  In53  1  0.65947511  0.83494743  0.86557367  1
  In  In54  1  0.17174874  0.00026106  0.12614958  1
  In  In55  1  0.16770787  0.01543479  0.62554439  1
  In  In56  1  0.17575964  0.33379820  0.12717216  1
  In  In57  1  0.17725676  0.34109535  0.60894087  1
  In  In58  1  0.18512570  0.67237948  0.11235614  1
  In  In59  1  0.18023759  0.66499986  0.62796694  1
  In  In60  1  0.47280193  0.01894877  0.13516381  1
  In  In61  1  0.50019621  0.00520668  0.62269538  1
  In  In62  1  0.50966848  0.32039007  0.13262701  1
  In  In63  1  0.50033773  0.32986252  0.62551341  1
  In  In64  1  0.49249358  0.65660728  0.12339476  1
  In  In65  1  0.48667043  0.67335846  0.62940074  1
  In  In66  1  0.82217158  0.02103461  0.14724473  1
  In  In67  1  0.81951486  0.00908422  0.62607516  1
  In  In68  1  0.84177230  0.30988928  0.14740358  1
  In  In69  1  0.82955741  0.32070631  0.61959676  1
  In  In70  1  0.83155377  0.67711870  0.12468232  1
  In  In71  1  0.82821372  0.65717993  0.62639653  1
  In  In72  1  0.84566823  0.49350666  0.49990553  1
  In  In73  1  0.83765637  0.49345039  0.00584297  1
  In  In74  1  0.17186619  0.83127814  0.49915877  1
  In  In75  1  0.82768687  0.84133352  0.49214263  1
  In  In76  1  0.49006078  0.84043655  0.00805912  1
  In  In77  1  0.00396441  0.66916435  0.74437694  1
  In  In78  1  0.66136409  0.66257664  0.24852328  1
  In  In79  1  0.84260628  0.16618875  0.00018161  1
  In  In80  1  0.85144986  0.83603646  0.00255319  1
  In  In81  1  -0.00291950  0.00349219  0.74857205  1
  In  In82  1  0.00591093  0.66500591  0.25634401  1
  In  In83  1  -0.00012874  0.33180746  0.75261546  1
  In  In84  1  0.49678415  0.49720599  0.50505529  1
  In  In85  1  0.48824126  0.49126230  -0.01170691  1
  Cu  Cu86  1  0.17451751  0.17055827  0.25027815  1
  Cu  Cu87  1  0.82524907  0.49774999  0.74953285  1
  Cu  Cu88  1  0.66995147  0.31808446  0.00654809  1
  Cu  Cu89  1  0.01226922  0.66240074  0.00202734  1
  Cu  Cu90  1  0.49846890  0.83306342  0.24921643  1
  Cu  Cu91  1  0.49740742  0.16809526  0.74480303  1
  Cu  Cu92  1  0.82725458  0.84065104  0.25544819  1
  Cu  Cu93  1  0.01358141  0.33200657  0.00429115  1
  Cu  Cu94  1  0.66702661  0.67329488  0.50603265  1
  Cu  Cu95  1  0.49442293  0.16217295  0.25450163  1
  Cu  Cu96  1  0.49730175  0.50184392  0.74663810  1
  Cu  Cu97  1  0.82105302  0.83176911  0.74819898  1
  Cu  Cu98  1  0.50064334  0.49459537  0.25078832  1
  Cu  Cu99  1  0.83381005  0.49611355  0.25182153  1
  Cu  Cu100  1  0.17333130  0.16807795  0.75281404  1
  Cu  Cu101  1  0.17042953  0.49973353  0.24905754  1
  Cu  Cu102  1  0.00279011  0.00318166  0.01081851  1
  Cu  Cu103  1  0.65995279  0.65946497  -0.01582506  1
  Cu  Cu104  1  0.33975458  0.00156465  0.49928963  1
  Cu  Cu105  1  -0.00316045  0.33002504  0.48930849  1
  Cu  Cu106  1  0.66012333  0.32479750  0.49571788  1
  Cu  Cu107  1  0.33772007  0.32982781  0.00105197  1
  Cu  Cu108  1  0.50058080  0.84035215  0.74862133  1
  Cu  Cu109  1  0.17644594  0.83396046  0.75729767  1
  Cu  Cu110  1  0.66481639  0.00702456  0.50002403  1
  Cu  Cu111  1  -0.00071371  0.00292214  0.49098564  1
  Cu  Cu112  1  0.66299075  0.00494053  -0.00374720  1
  Cu  Cu113  1  0.16872175  0.83464936  0.24782602  1
  Cu  Cu114  1  0.33433020  0.66350678  0.50264913  1
  Se  Se115  1  0.08511794  0.08856051  0.06081117  1
  Se  Se116  1  0.08214267  0.08011290  0.54997844  1
  Se  Se117  1  0.09402615  0.41874281  0.05542839  1
  Se  Se118  1  0.07675699  0.41334283  0.54648493  1
  Se  Se119  1  0.08776966  0.75321431  0.05347601  1
  Se  Se120  1  0.08128579  0.74339756  0.56101596  1
  Se  Se121  1  0.41538365  0.08427674  0.04888127  1
  Se  Se122  1  0.41653740  0.08797612  0.55476155  1
  Se  Se123  1  0.41697141  0.40933481  0.06502838  1
  Se  Se124  1  0.40328684  0.40532188  0.55732531  1
  Se  Se125  1  0.40364425  0.73925109  0.05822053  1
  Se  Se126  1  0.41758083  0.75107780  0.55069671  1
  Se  Se127  1  0.74616410  0.08066814  0.05929993  1
  Se  Se128  1  0.74935963  0.09057718  0.55182041  1
  Se  Se129  1  0.75232253  0.39716643  0.06602535  1
  Se  Se130  1  0.73908926  0.41238728  0.55254967  1
  Se  Se131  1  0.74212522  0.74008127  0.04523913  1
  Se  Se132  1  0.74667834  0.75494977  0.56315016  1
  Se  Se133  1  0.25246952  0.24991292  0.05570400  1
  Se  Se134  1  0.22498898  0.22056226  0.55945380  1
  Se  Se135  1  0.25613788  0.57453582  0.05058684  1
  Se  Se136  1  0.25099929  0.58058458  0.55423523  1
  Se  Se137  1  0.25095074  0.92076399  0.05343650  1
  Se  Se138  1  0.25687896  0.92338771  0.56114707  1
  Se  Se139  1  0.57944948  0.23909002  0.05503310  1
  Se  Se140  1  0.57690857  0.24792627  0.55273940  1
  Se  Se141  1  0.58636915  0.58200946  0.05039291  1
  Se  Se142  1  0.58929143  0.58937295  0.56338134  1
  Se  Se143  1  0.58851943  0.92736563  0.06150413  1
  Se  Se144  1  0.58158480  0.92144165  0.55071509  1
  Se  Se145  1  0.92937288  0.25415542  0.06411875  1
  Se  Se146  1  0.91188931  0.25080604  0.54485971  1
  Se  Se147  1  0.92634949  0.58977141  0.06407620  1
  Se  Se148  1  0.92743930  0.59366963  0.55769153  1
  Se  Se149  1  0.91729804  0.93036273  0.07367940  1
  Se  Se150  1  0.92011701  0.92905066  0.55556298  1
  Se  Se151  1  0.08696768  0.25026295  0.44050271  1
  Se  Se152  1  0.08830976  0.24562089  0.94821015  1
  Se  Se153  1  0.07599155  0.59241347  0.45121558  1
  Se  Se154  1  0.09124952  0.57271813  0.95325757  1
  Se  Se155  1  0.08538795  0.92352693  0.43689812  1
  Se  Se156  1  0.08019796  0.91386448  0.95713245  1
  Se  Se157  1  0.40925249  0.25273213  0.45537979  1
  Se  Se158  1  0.41923255  0.24542216  0.94801739  1
  Se  Se159  1  0.41177744  0.58429229  0.43836718  1
  Se  Se160  1  0.40508827  0.59681936  0.94101703  1
  Se  Se161  1  0.41865503  0.91321621  0.44660619  1
  Se  Se162  1  0.41119751  0.92881943  0.94063886  1
  Se  Se163  1  0.74744883  0.24676654  0.44159424  1
  Se  Se164  1  0.74842829  0.24751578  0.93862736  1
  Se  Se165  1  0.74781946  0.59398941  0.44808856  1
  Se  Se166  1  0.74666909  0.57387298  0.93536902  1
  Se  Se167  1  0.74724950  0.93771582  0.43313841  1
  Se  Se168  1  0.74478530  0.91564184  0.94405825  1
  Se  Se169  1  0.25039464  0.08066840  0.44832577  1
  Se  Se170  1  0.23152547  0.10601067  0.94558868  1
  Se  Se171  1  0.23853341  0.42875478  0.44580417  1
  Se  Se172  1  0.25753913  0.41579551  0.94752696  1
  Se  Se173  1  0.26136061  0.74490675  0.43655126  1
  Se  Se174  1  0.23904960  0.77064199  0.94709401  1
  Se  Se175  1  0.57537980  0.08581141  0.44803112  1
  Se  Se176  1  0.58603129  0.09011090  0.94134479  1
  Se  Se177  1  0.58357142  0.41108573  0.43900860  1
  Se  Se178  1  0.59283238  0.40038154  0.94298077  1
  Se  Se179  1  0.58244247  0.75384113  0.45208949  1
  Se  Se180  1  0.57767630  0.75035036  0.93747752  1
  Se  Se181  1  0.91829098  0.08919997  0.43947372  1
  Se  Se182  1  0.92583150  0.06868564  0.93879502  1
  Se  Se183  1  0.91219922  0.40396846  0.42652955  1
  Se  Se184  1  0.93018882  0.40779579  0.94228911  1
  Se  Se185  1  0.92884855  0.74462754  0.44871175  1
  Se  Se186  1  0.93113276  0.73829613  0.93828714  1
  Se  Se187  1  0.25702173  0.24887026  0.30800499  1
  Se  Se188  1  0.25557853  0.25294491  0.80564401  1
  Se  Se189  1  0.25359243  0.58644740  0.29964849  1
  Se  Se190  1  0.24968823  0.59204472  0.80661269  1
  Se  Se191  1  0.25549824  0.91690868  0.29935617  1
  Se  Se192  1  0.25050776  0.92539307  0.80939476  1
  Se  Se193  1  0.57634745  0.24887304  0.30704369  1
  Se  Se194  1  0.58055276  0.25400762  0.79858206  1
  Se  Se195  1  0.57714702  0.57470474  0.31562997  1
  Se  Se196  1  0.58314059  0.58719253  0.79828025  1
  Se  Se197  1  0.57930331  0.91753150  0.30265317  1
  Se  Se198  1  0.58523049  0.92572884  0.79963892  1
  Se  Se199  1  0.92821509  0.25378311  0.29767041  1
  Se  Se200  1  0.90567931  0.23625986  0.80492028  1
  Se  Se201  1  0.91266028  0.57413312  0.31321485  1
  Se  Se202  1  0.90968212  0.57771443  0.80747415  1
  Se  Se203  1  0.92119337  0.92069324  0.29967639  1
  Se  Se204  1  0.90526315  0.90877167  0.80877173  1
  Se  Se205  1  0.08879537  0.08463813  0.30066643  1
  Se  Se206  1  0.09098292  0.08450979  0.81034156  1
  Se  Se207  1  0.08800225  0.41579075  0.30212827  1
  Se  Se208  1  0.09444532  0.41982285  0.80867058  1
  Se  Se209  1  0.09529339  0.75751713  0.31582169  1
  Se  Se210  1  0.09047882  0.75257622  0.81088953  1
  Se  Se211  1  0.41171975  0.08040991  0.30960812  1
  Se  Se212  1  0.41723980  0.08735977  0.80401978  1
  Se  Se213  1  0.41400935  0.41327545  0.30237830  1
  Se  Se214  1  0.41995145  0.42163172  0.80751130  1
  Se  Se215  1  0.41894035  0.74506109  0.30080709  1
  Se  Se216  1  0.41383107  0.75682793  0.80038795  1
  Se  Se217  1  0.73120005  0.07647144  0.30178542  1
  Se  Se218  1  0.75622659  0.08608695  0.79279788  1
  Se  Se219  1  0.74374651  0.41557824  0.30025197  1
  Se  Se220  1  0.74632546  0.40917145  0.80099537  1
  Se  Se221  1  0.74779812  0.75589506  0.31204119  1
  Se  Se222  1  0.74003710  0.74541416  0.80009172  1
  Se  Se223  1  0.25342122  0.08452299  0.19509175  1
  Se  Se224  1  0.25398715  0.08153949  0.69972388  1
  Se  Se225  1  0.25679237  0.41575196  0.19905926  1
  Se  Se226  1  0.24399271  0.40705558  0.69242332  1
  Se  Se227  1  0.24778420  0.74569229  0.19619742  1
  Se  Se228  1  0.25327024  0.75303136  0.69716526  1
  Se  Se229  1  0.57740102  0.07856773  0.19927695  1
  Se  Se230  1  0.58324578  0.08536415  0.69354916  1
  Se  Se231  1  0.58676843  0.41104930  0.20142591  1
  Se  Se232  1  0.57923126  0.41496040  0.69596610  1
  Se  Se233  1  0.57861402  0.75611788  0.18398215  1
  Se  Se234  1  0.57912967  0.75061794  0.69500751  1
  Se  Se235  1  0.91152870  0.09897273  0.20912178  1
  Se  Se236  1  0.91723681  0.09500596  0.68427396  1
  Se  Se237  1  0.92003138  0.41328996  0.20159790  1
  Se  Se238  1  0.90885076  0.42288767  0.68900378  1
  Se  Se239  1  0.91130285  0.75800872  0.19747767  1
  Se  Se240  1  0.90761817  0.76210365  0.68776641  1
  Se  Se241  1  0.09066991  0.25571954  0.19863234  1
  Se  Se242  1  0.08902819  0.24416187  0.69155501  1
  Se  Se243  1  0.09113334  0.58250741  0.18824745  1
  Se  Se244  1  0.09451501  0.57130228  0.69440013  1
  Se  Se245  1  0.08521035  0.92188331  0.19934059  1
  Se  Se246  1  0.09562800  0.90984183  0.69458705  1
  Se  Se247  1  0.41550375  0.24588012  0.19696640  1
  Se  Se248  1  0.41291175  0.25300635  0.69519661  1
  Se  Se249  1  0.41984859  0.58305353  0.20107151  1
  Se  Se250  1  0.41054185  0.58234954  0.69474550  1
  Se  Se251  1  0.41138444  0.91167219  0.19532633  1
  Se  Se252  1  0.41815472  0.92177435  0.69339055  1
  Se  Se253  1  0.73836009  0.24601295  0.20629153  1
  Se  Se254  1  0.74192628  0.25896412  0.69218390  1
  Se  Se255  1  0.75571455  0.57441242  0.18746331  1
  Se  Se256  1  0.74482474  0.58659393  0.69916462  1
  Se  Se257  1  0.74156112  0.91907106  0.20115665  1
  Se  Se258  1  0.74595272  0.92171390  0.69554293  1
