# generated using pymatgen
data_In86Cu29Se144
_symmetry_space_group_name_H-M   'P 1'
_cell_length_a   17.58420700
_cell_length_b   17.58496601
_cell_length_c   23.44068945
_cell_angle_alpha   89.99716353
_cell_angle_beta   90.03084622
_cell_angle_gamma   90.00667148
_symmetry_Int_Tables_number   1
_chemical_formula_structural   In86Cu29Se144
_chemical_formula_sum   'In86 Cu29 Se144'
_cell_volume   7248.27455676
_cell_formula_units_Z   1
loop_
 _symmetry_equiv_pos_site_id
 _symmetry_equiv_pos_as_xyz
  1  'x, y, z'
loop_
 _atom_site_type_symbol
 _atom_site_label
 _atom_site_symmetry_multiplicity
 _atom_site_fract_x
 _atom_site_fract_y
 _atom_site_fract_z
 _atom_site_occupancy
  In  In0  1  -0.00356520  0.17163570  0.12625892  1
  In  In1  1  0.00157323  0.17587813  0.61978438  1
  In  In2  1  0.01368972  0.50614665  0.12022265  1
  In  In3  1  -0.00221899  0.50404102  0.61705294  1
  In  In4  1  -0.01004778  0.83057185  0.12698667  1
  In  In5  1  0.00779713  0.82190464  0.62452347  1
  In  In6  1  0.33128719  0.15096467  0.12954568  1
  In  In7  1  0.33780179  0.15961278  0.63594062  1
  In  In8  1  0.34368985  0.50878200  0.11692834  1
  In  In9  1  0.33343351  0.49796840  0.62792061  1
  In  In10  1  0.33765738  0.82735288  0.13014347  1
  In  In11  1  0.33314321  0.82804825  0.62353185  1
  In  In12  1  0.67053083  0.17473647  0.12155943  1
  In  In13  1  0.66257055  0.16849247  0.62128520  1
  In  In14  1  0.65258561  0.50209892  0.11213842  1
  In  In15  1  0.66765542  0.50349215  0.62637377  1
  In  In16  1  0.65855575  0.82191251  0.10118807  1
  In  In17  1  0.65051545  0.83501266  0.62694913  1
  In  In18  1  0.16863108  -0.01475953  0.37834769  1
  In  In19  1  0.17417682  0.00017467  0.86798256  1
  In  In20  1  0.18668541  0.34407121  0.38294652  1
  In  In21  1  0.18608289  0.34152417  0.86465406  1
  In  In22  1  0.17190430  0.66235634  0.37454861  1
  In  In23  1  0.17257475  0.64867296  0.86996373  1
  In  In24  1  0.48584584  0.00907576  0.38734477  1
  In  In25  1  0.49510710  0.00478137  0.88503662  1
  In  In26  1  0.50435989  0.32974131  0.38231672  1
  In  In27  1  0.49414133  0.33894100  0.87848812  1
  In  In28  1  0.49092095  0.67843866  0.38314513  1
  In  In29  1  0.49604871  0.66652697  0.87267177  1
  In  In30  1  0.84457873  0.00564448  0.37440631  1
  In  In31  1  0.81237426  0.00520437  0.89389726  1
  In  In32  1  0.82470130  0.34247776  0.37641632  1
  In  In33  1  0.82872134  0.34115061  0.88120016  1
  In  In34  1  0.83312857  0.64929094  0.37110452  1
  In  In35  1  0.81425874  0.67714018  0.89436861  1
  In  In36  1  -0.00420803  0.15456403  0.37924280  1
  In  In37  1  -0.00572030  0.16225736  0.87951292  1
  In  In38  1  -0.00207287  0.50348810  0.37680267  1
  In  In39  1  -0.00338774  0.50172848  0.88321898  1
  In  In40  1  0.01665024  0.83092607  0.37285488  1
  In  In41  1  -0.00662831  0.82365640  0.87439914  1
  In  In42  1  0.34305136  0.17099483  0.37834365  1
  In  In43  1  0.34325495  0.17677718  0.86372834  1
  In  In44  1  0.32744358  0.50311742  0.39089337  1
  In  In45  1  0.33283602  0.50144654  0.86887136  1
  In  In46  1  0.33751091  0.83120128  0.37695287  1
  In  In47  1  0.34381814  0.84185932  0.86541570  1
  In  In48  1  0.65610069  0.17893598  0.37760128  1
  In  In49  1  0.65682091  0.16559526  0.88783335  1
  In  In50  1  0.67171630  0.49852000  0.37720319  1
  In  In51  1  0.64517370  0.52126903  0.89283577  1
  In  In52  1  0.65298073  0.82449704  0.37319056  1
  In  In53  1  0.66207565  0.82201779  0.88925267  1
  In  In54  1  0.18620359  0.01007773  0.13143233  1
  In  In55  1  0.21480105  0.00674321  0.61495705  1
  In  In56  1  0.16253700  0.33485847  0.12674107  1
  In  In57  1  0.17103121  0.34744252  0.62564991  1
  In  In58  1  0.17957391  0.65622857  0.13237624  1
  In  In59  1  0.17256494  0.67348153  0.61996915  1
  In  In60  1  0.49400483  -0.00935981  0.11762853  1
  In  In61  1  0.47574605  -0.01828794  0.60516977  1
  In  In62  1  0.50719739  0.34238474  0.12100727  1
  In  In63  1  0.47921423  0.31898853  0.60892214  1
  In  In64  1  0.49485979  0.66229117  0.11644273  1
  In  In65  1  0.49755652  0.66117180  0.62694299  1
  In  In66  1  0.81692415  -0.00788432  0.11001612  1
  In  In67  1  0.81715454  0.00229377  0.62567599  1
  In  In68  1  0.82413386  0.32400513  0.12008103  1
  In  In69  1  0.83700157  0.33700170  0.61936643  1
  In  In70  1  0.83882833  0.67117531  0.11981057  1
  In  In71  1  0.83810213  0.65663869  0.62820036  1
  In  In72  1  0.00195278  0.32996920  0.24557624  1
  In  In73  1  0.00370866  0.66688913  0.74904196  1
  In  In74  1  0.66124968  0.66422851  0.23779511  1
  In  In75  1  0.00443316  -0.00751266  0.75168881  1
  In  In76  1  0.16709227  0.17229210  0.00228534  1
  In  In77  1  0.16771476  0.16876095  0.49961329  1
  In  In78  1  0.16260251  0.83080146  -0.00597397  1
  In  In79  1  0.00625641  -0.00468121  0.24632483  1
  In  In80  1  0.66042109  0.34037504  0.75263940  1
  In  In81  1  0.65370252  0.00221067  0.75944255  1
  In  In82  1  0.33815894  0.33459744  0.26050668  1
  In  In83  1  0.66574955  -0.00084600  0.24045882  1
  In  In84  1  0.00657919  0.34051187  0.74258668  1
  In  In85  1  0.82902148  0.83589759  0.49504203  1
  Cu  Cu86  1  0.66562197  0.66564125  0.50197667  1
  Cu  Cu87  1  0.33824119  -0.00064074  -0.00299291  1
  Cu  Cu88  1  0.33548338  0.66670226  0.50348508  1
  Cu  Cu89  1  0.49970764  0.17144114  0.25517204  1
  Cu  Cu90  1  0.17413162  0.50213844  0.25258153  1
  Cu  Cu91  1  0.83415506  0.82307695  0.24258125  1
  Cu  Cu92  1  0.49669930  0.49854146  0.75056333  1
  Cu  Cu93  1  0.83016936  0.16672736  0.24519628  1
  Cu  Cu94  1  0.00030026  0.66447772  0.00072712  1
  Cu  Cu95  1  0.83763676  0.16898656  0.75063529  1
  Cu  Cu96  1  0.34137068  0.33485396  -0.00710236  1
  Cu  Cu97  1  0.49059721  0.84038410  0.24948614  1
  Cu  Cu98  1  0.00282133  0.66074379  0.49685913  1
  Cu  Cu99  1  0.66512510  0.01159050  0.49806582  1
  Cu  Cu100  1  0.49700132  0.16056777  0.74540117  1
  Cu  Cu101  1  0.00357249  0.33443224  0.00388945  1
  Cu  Cu102  1  -0.00721708  0.00259786  0.00116450  1
  Cu  Cu103  1  0.17844390  0.83776035  0.74336238  1
  Cu  Cu104  1  0.33381424  0.66541622  -0.00217205  1
  Cu  Cu105  1  0.49568978  0.82609689  0.74622165  1
  Cu  Cu106  1  0.82334387  0.83073925  0.76560750  1
  Cu  Cu107  1  0.82523164  0.51310417  0.75615879  1
  Cu  Cu108  1  0.67152341  0.33796336  0.50058876  1
  Cu  Cu109  1  0.83390577  0.49404594  0.25080069  1
  Cu  Cu110  1  0.17408296  0.82484325  0.25414002  1
  Cu  Cu111  1  -0.00111676  0.00067063  0.50066749  1
  Cu  Cu112  1  -0.00827697  0.33458898  0.49836714  1
  Cu  Cu113  1  0.66373448  0.33102162  0.00070264  1
  Cu  Cu114  1  0.49930356  0.50677600  0.24586627  1
  Se  Se115  1  0.08030021  0.07368378  0.06175230  1
  Se  Se116  1  0.08399370  0.07304914  0.56328008  1
  Se  Se117  1  0.09205293  0.41658313  0.05246216  1
  Se  Se118  1  0.07726174  0.41231461  0.55423601  1
  Se  Se119  1  0.08221670  0.74302797  0.06209003  1
  Se  Se120  1  0.08302759  0.74762126  0.54895607  1
  Se  Se121  1  0.41499901  0.08530274  0.05353715  1
  Se  Se122  1  0.41547415  0.09581842  0.55516382  1
  Se  Se123  1  0.42099210  0.41945323  0.05078753  1
  Se  Se124  1  0.43097059  0.43761912  0.55708548  1
  Se  Se125  1  0.41173954  0.75254976  0.05257294  1
  Se  Se126  1  0.42184547  0.74838486  0.55612056  1
  Se  Se127  1  0.75816034  0.09964176  0.05261727  1
  Se  Se128  1  0.75095952  0.08948080  0.55291413  1
  Se  Se129  1  0.74586635  0.41489041  0.05458422  1
  Se  Se130  1  0.75178897  0.42204229  0.55627384  1
  Se  Se131  1  0.75518897  0.74188516  0.04662125  1
  Se  Se132  1  0.74685583  0.74765319  0.56188835  1
  Se  Se133  1  0.26379274  0.25912808  0.06079351  1
  Se  Se134  1  0.25459701  0.25178638  0.56493053  1
  Se  Se135  1  0.24875900  0.58321999  0.05118734  1
  Se  Se136  1  0.25142298  0.58222871  0.55591386  1
  Se  Se137  1  0.25287984  0.92105443  0.05504289  1
  Se  Se138  1  0.24332337  0.89633233  0.54984266  1
  Se  Se139  1  0.57830929  0.24834987  0.05350197  1
  Se  Se140  1  0.58634710  0.25253207  0.55092596  1
  Se  Se141  1  0.59330144  0.60502159  0.04558380  1
  Se  Se142  1  0.58380397  0.58256481  0.55616410  1
  Se  Se143  1  0.59393304  0.93269989  0.04940841  1
  Se  Se144  1  0.58874234  0.92007592  0.54993453  1
  Se  Se145  1  0.91906684  0.24912507  0.05371449  1
  Se  Se146  1  0.91212420  0.24739444  0.55075999  1
  Se  Se147  1  0.91966559  0.57954475  0.05499431  1
  Se  Se148  1  0.91203445  0.58488900  0.54941249  1
  Se  Se149  1  0.91711052  0.91258423  0.05355346  1
  Se  Se150  1  0.91816460  0.92002562  0.56277445  1
  Se  Se151  1  0.07555622  0.25897261  0.43723549  1
  Se  Se152  1  0.08209517  0.26076361  0.93708559  1
  Se  Se153  1  0.08817125  0.57868567  0.44407756  1
  Se  Se154  1  0.08602605  0.58578667  0.94620755  1
  Se  Se155  1  0.08052715  0.91437427  0.45004881  1
  Se  Se156  1  0.07298364  0.92840686  0.93679097  1
  Se  Se157  1  0.40186685  0.26807214  0.44646578  1
  Se  Se158  1  0.42013246  0.24281733  0.94440154  1
  Se  Se159  1  0.42196555  0.58478343  0.45134777  1
  Se  Se160  1  0.41330223  0.58090917  0.94145745  1
  Se  Se161  1  0.42615581  0.90348524  0.44760619  1
  Se  Se162  1  0.41696579  0.90824445  0.94755713  1
  Se  Se163  1  0.75038124  0.25162174  0.44411835  1
  Se  Se164  1  0.74883234  0.25139197  0.94594600  1
  Se  Se165  1  0.75020824  0.58468842  0.44760959  1
  Se  Se166  1  0.77162307  0.55401333  0.94324700  1
  Se  Se167  1  0.73855620  0.92754084  0.43413099  1
  Se  Se168  1  0.75168486  0.90149593  0.95426316  1
  Se  Se169  1  0.25641715  0.07583989  0.44191547  1
  Se  Se170  1  0.25572089  0.08241770  0.94060593  1
  Se  Se171  1  0.25830844  0.41254259  0.46150829  1
  Se  Se172  1  0.25408082  0.41770870  0.94350781  1
  Se  Se173  1  0.25276985  0.74586564  0.44401238  1
  Se  Se174  1  0.25562267  0.74532769  0.93452889  1
  Se  Se175  1  0.57847200  0.09326593  0.44669508  1
  Se  Se176  1  0.59618349  0.06426578  0.95183603  1
  Se  Se177  1  0.58718205  0.41916825  0.44619901  1
  Se  Se178  1  0.57747249  0.41501059  0.95001551  1
  Se  Se179  1  0.58278629  0.75268284  0.45242631  1
  Se  Se180  1  0.58371771  0.72729386  0.95155340  1
  Se  Se181  1  0.91153623  0.08432570  0.45340284  1
  Se  Se182  1  0.91040622  0.08859661  0.95055477  1
  Se  Se183  1  0.91259874  0.42094691  0.44343112  1
  Se  Se184  1  0.91762406  0.41540508  0.95053841  1
  Se  Se185  1  0.92088423  0.74386173  0.43719714  1
  Se  Se186  1  0.91789106  0.75236782  0.95141867  1
  Se  Se187  1  0.24037250  0.24278132  0.31102018  1
  Se  Se188  1  0.24483432  0.24182270  0.79915082  1
  Se  Se189  1  0.26025760  0.57820007  0.30913923  1
  Se  Se190  1  0.25134698  0.57891350  0.79543959  1
  Se  Se191  1  0.25293613  0.91291859  0.30591592  1
  Se  Se192  1  0.25731754  0.92355250  0.79823980  1
  Se  Se193  1  0.58248948  0.25923710  0.30269970  1
  Se  Se194  1  0.57657135  0.23931310  0.80830127  1
  Se  Se195  1  0.57834515  0.58582776  0.31026353  1
  Se  Se196  1  0.58108805  0.58105656  0.80427278  1
  Se  Se197  1  0.57532658  0.91835504  0.30737567  1
  Se  Se198  1  0.57141884  0.90234076  0.81478307  1
  Se  Se199  1  0.91204338  0.24177969  0.30838393  1
  Se  Se200  1  0.91421060  0.25377328  0.80797347  1
  Se  Se201  1  0.92003452  0.57817720  0.29955128  1
  Se  Se202  1  0.91086079  0.58933744  0.81474921  1
  Se  Se203  1  0.91055464  0.90458037  0.30514987  1
  Se  Se204  1  0.90293125  0.91940340  0.81666297  1
  Se  Se205  1  0.09039038  0.08431675  0.31052937  1
  Se  Se206  1  0.08662090  0.09466295  0.80723738  1
  Se  Se207  1  0.09365474  0.41710056  0.30875495  1
  Se  Se208  1  0.08672109  0.43038621  0.80825319  1
  Se  Se209  1  0.08600900  0.74225274  0.30265853  1
  Se  Se210  1  0.09633421  0.76185333  0.80670663  1
  Se  Se211  1  0.41836576  0.08579501  0.30651703  1
  Se  Se212  1  0.42113013  0.07643523  0.80550391  1
  Se  Se213  1  0.42628916  0.43106795  0.31418576  1
  Se  Se214  1  0.41558886  0.41125845  0.80287751  1
  Se  Se215  1  0.41722143  0.74889763  0.30324162  1
  Se  Se216  1  0.41172079  0.74369520  0.80048788  1
  Se  Se217  1  0.75208726  0.08641490  0.30770679  1
  Se  Se218  1  0.75367396  0.09397512  0.81039709  1
  Se  Se219  1  0.74470437  0.41640311  0.30137331  1
  Se  Se220  1  0.74595387  0.43053002  0.81423742  1
  Se  Se221  1  0.75209797  0.75013187  0.30617055  1
  Se  Se222  1  0.74017872  0.74474422  0.81295588  1
  Se  Se223  1  0.25440337  0.08601683  0.20871504  1
  Se  Se224  1  0.24576154  0.08477183  0.70259166  1
  Se  Se225  1  0.25289539  0.42130530  0.19148641  1
  Se  Se226  1  0.24928375  0.42045108  0.69976589  1
  Se  Se227  1  0.25827921  0.74333948  0.19931901  1
  Se  Se228  1  0.25457123  0.74407204  0.69570355  1
  Se  Se229  1  0.57244904  0.09245603  0.18789101  1
  Se  Se230  1  0.57388695  0.07985164  0.68462274  1
  Se  Se231  1  0.58414457  0.42567095  0.19287532  1
  Se  Se232  1  0.57005622  0.41704641  0.68624694  1
  Se  Se233  1  0.57260520  0.76419950  0.18647213  1
  Se  Se234  1  0.58352147  0.74465461  0.69693969  1
  Se  Se235  1  0.90598821  0.07951202  0.18820641  1
  Se  Se236  1  0.91278194  0.08657900  0.69078672  1
  Se  Se237  1  0.91340914  0.41926393  0.18562611  1
  Se  Se238  1  0.90438193  0.43291011  0.69448071  1
  Se  Se239  1  0.92260549  0.73866403  0.19756092  1
  Se  Se240  1  0.90568058  0.76270508  0.69746911  1
  Se  Se241  1  0.09770820  0.23355991  0.19597320  1
  Se  Se242  1  0.09430109  0.24217729  0.69087979  1
  Se  Se243  1  0.08673364  0.58061698  0.19884886  1
  Se  Se244  1  0.08898110  0.57734618  0.68791848  1
  Se  Se245  1  0.09931183  0.90438840  0.18734273  1
  Se  Se246  1  0.09458526  0.91541177  0.68403477  1
  Se  Se247  1  0.42115046  0.25007070  0.19051662  1
  Se  Se248  1  0.41922039  0.25447237  0.69778072  1
  Se  Se249  1  0.41607155  0.58935794  0.19318284  1
  Se  Se250  1  0.41389753  0.58407112  0.69859906  1
  Se  Se251  1  0.41026371  0.92479443  0.19480836  1
  Se  Se252  1  0.41699483  0.91387125  0.69226282  1
  Se  Se253  1  0.74540182  0.25375140  0.19818018  1
  Se  Se254  1  0.75524030  0.24974055  0.69314311  1
  Se  Se255  1  0.75619862  0.57276443  0.18554321  1
  Se  Se256  1  0.74402124  0.59122370  0.69781312  1
  Se  Se257  1  0.74900425  0.89772959  0.18447418  1
  Se  Se258  1  0.74859123  0.91072637  0.70000072  1
