# generated using pymatgen
data_In86Cu29Se144
_symmetry_space_group_name_H-M   'P 1'
_cell_length_a   17.57590217
_cell_length_b   17.57550664
_cell_length_c   23.43708905
_cell_angle_alpha   90.00013880
_cell_angle_beta   89.99688142
_cell_angle_gamma   90.02804064
_symmetry_Int_Tables_number   1
_chemical_formula_structural   In86Cu29Se144
_chemical_formula_sum   'In86 Cu29 Se144'
_cell_volume   7239.84214386
_cell_formula_units_Z   1
loop_
 _symmetry_equiv_pos_site_id
 _symmetry_equiv_pos_as_xyz
  1  'x, y, z'
loop_
 _atom_site_type_symbol
 _atom_site_label
 _atom_site_symmetry_multiplicity
 _atom_site_fract_x
 _atom_site_fract_y
 _atom_site_fract_z
 _atom_site_occupancy
  In  In0  1  -0.00414158  0.16041488  0.13919894  1
  In  In1  1  -0.01771433  0.17430175  0.64340039  1
  In  In2  1  -0.00777098  0.48934944  0.10775833  1
  In  In3  1  -0.01260082  0.51024040  0.63280786  1
  In  In4  1  0.00095992  0.83192301  0.11924120  1
  In  In5  1  0.00164112  0.83564345  0.62624698  1
  In  In6  1  0.32264170  0.16072210  0.13235875  1
  In  In7  1  0.33815904  0.14094923  0.62554367  1
  In  In8  1  0.33333320  0.52129677  0.12138998  1
  In  In9  1  0.34419983  0.50539354  0.62668762  1
  In  In10  1  0.32779122  0.83465547  0.12658390  1
  In  In11  1  0.33230000  0.83578805  0.62396618  1
  In  In12  1  0.67466615  0.18047615  0.12443646  1
  In  In13  1  0.67863982  0.17203832  0.62090518  1
  In  In14  1  0.68035515  0.49872478  0.11586279  1
  In  In15  1  0.67840833  0.49086135  0.63521771  1
  In  In16  1  0.66205596  0.82975898  0.10799303  1
  In  In17  1  0.66250061  0.82488492  0.62366690  1
  In  In18  1  0.15879187  -0.01011828  0.37511060  1
  In  In19  1  0.16051576  -0.00944065  0.86925509  1
  In  In20  1  0.14945774  0.34161184  0.37274967  1
  In  In21  1  0.15499386  0.34856179  0.88192868  1
  In  In22  1  0.17721956  0.67223238  0.36922573  1
  In  In23  1  0.16630512  0.66874778  0.87175207  1
  In  In24  1  0.49433915  -0.00028896  0.38768136  1
  In  In25  1  0.48741409  -0.00473274  0.86192619  1
  In  In26  1  0.49538590  0.32281589  0.37910219  1
  In  In27  1  0.51279486  0.32577686  0.86364878  1
  In  In28  1  0.48978183  0.68449798  0.38285714  1
  In  In29  1  0.51333867  0.68637307  0.86627054  1
  In  In30  1  0.84311903  0.00022232  0.37999046  1
  In  In31  1  0.83145395  -0.01208137  0.87093937  1
  In  In32  1  0.84432227  0.32515786  0.38447492  1
  In  In33  1  0.85252225  0.35387065  0.85648296  1
  In  In34  1  0.82752915  0.67167297  0.38603851  1
  In  In35  1  0.83547031  0.66298045  0.87659870  1
  In  In36  1  -0.00840732  0.16088844  0.36849262  1
  In  In37  1  -0.00645158  0.17072923  0.86104426  1
  In  In38  1  -0.00167783  0.48965924  0.37168838  1
  In  In39  1  -0.00400620  0.50011825  0.87534904  1
  In  In40  1  -0.01685145  0.85233788  0.38412460  1
  In  In41  1  0.00542193  0.83251428  0.87352411  1
  In  In42  1  0.34754717  0.15478198  0.38429941  1
  In  In43  1  0.34095215  0.15182880  0.86279989  1
  In  In44  1  0.31756985  0.50420005  0.37269325  1
  In  In45  1  0.31539953  0.50655231  0.87772492  1
  In  In46  1  0.33106541  0.83421154  0.37639377  1
  In  In47  1  0.33319139  0.83484545  0.87303134  1
  In  In48  1  0.67210462  0.15901731  0.38793890  1
  In  In49  1  0.66806101  0.18112273  0.85454353  1
  In  In50  1  0.67563839  0.51515148  0.37713701  1
  In  In51  1  0.68361438  0.52072662  0.86762931  1
  In  In52  1  0.66625253  0.83477803  0.38559434  1
  In  In53  1  0.68215717  0.81204745  0.89317502  1
  In  In54  1  0.17187654  -0.00419309  0.13239987  1
  In  In55  1  0.17618992  -0.01184051  0.63115167  1
  In  In56  1  0.15180252  0.32942007  0.12080096  1
  In  In57  1  0.15493909  0.32254538  0.62778609  1
  In  In58  1  0.17201623  0.67756636  0.11535279  1
  In  In59  1  0.15359488  0.68066958  0.63464719  1
  In  In60  1  0.50199911  -0.01400669  0.12833085  1
  In  In61  1  0.49133473  -0.01206554  0.61321418  1
  In  In62  1  0.51384825  0.32711316  0.12350457  1
  In  In63  1  0.51962347  0.32408506  0.63274474  1
  In  In64  1  0.48671695  0.66800244  0.12314842  1
  In  In65  1  0.49116709  0.68040283  0.64028755  1
  In  In66  1  0.84535262  -0.00545009  0.13078673  1
  In  In67  1  0.84339173  0.00779093  0.62359256  1
  In  In68  1  0.83698106  0.33564982  0.12538919  1
  In  In69  1  0.82849705  0.33335986  0.62912443  1
  In  In70  1  0.83768522  0.67374521  0.11100193  1
  In  In71  1  0.83781114  0.66809798  0.62619237  1
  In  In72  1  0.00319144  0.67049010  0.24071318  1
  In  In73  1  0.83248348  0.16255938  -0.00053011  1
  In  In74  1  0.51063985  0.50065480  0.50465585  1
  In  In75  1  0.67606579  0.33642792  0.24502650  1
  In  In76  1  0.50022524  0.50651776  -0.00362629  1
  In  In77  1  0.66479174  0.67335770  0.25476759  1
  In  In78  1  0.67125033  -0.00143795  0.25772618  1
  In  In79  1  0.32065190  0.33798433  0.75374382  1
  In  In80  1  0.16026394  0.16636788  -0.00801342  1
  In  In81  1  0.16132505  0.15498712  0.50079690  1
  In  In82  1  0.66506006  -0.00418524  0.74387741  1
  In  In83  1  0.49738543  0.15280498  -0.01759678  1
  In  In84  1  0.16406913  0.50389456  0.49638125  1
  In  In85  1  0.32283924  0.32552196  0.25743834  1
  Cu  Cu86  1  0.50231359  0.83811629  0.74965036  1
  Cu  Cu87  1  0.33088582  0.67506417  -0.00230715  1
  Cu  Cu88  1  0.49691187  0.50680348  0.75099424  1
  Cu  Cu89  1  0.00306661  0.66487554  -0.00693364  1
  Cu  Cu90  1  0.16534952  0.83446171  0.25048914  1
  Cu  Cu91  1  0.33413449  -0.00671466  0.00195383  1
  Cu  Cu92  1  0.66464906  -0.00258391  -0.00570020  1
  Cu  Cu93  1  0.83936097  0.82572366  0.75326385  1
  Cu  Cu94  1  0.50329706  0.15686269  0.25722675  1
  Cu  Cu95  1  0.17131398  0.83495139  0.75101149  1
  Cu  Cu96  1  0.16528524  0.15691964  0.25268455  1
  Cu  Cu97  1  0.48660820  0.83079589  0.25094258  1
  Cu  Cu98  1  0.16751681  0.50297995  0.24072831  1
  Cu  Cu99  1  0.15833780  0.50458076  0.75321351  1
  Cu  Cu100  1  0.83222578  0.50147587  0.75068682  1
  Cu  Cu101  1  0.16277015  0.16294824  0.74824486  1
  Cu  Cu102  1  0.00140157  0.67196984  0.50458308  1
  Cu  Cu103  1  0.33012689  0.67212347  0.50440374  1
  Cu  Cu104  1  0.67225930  0.33361632  0.50648537  1
  Cu  Cu105  1  0.84040876  0.50360080  0.24510380  1
  Cu  Cu106  1  0.00082741  0.00579639  0.50676728  1
  Cu  Cu107  1  0.67032930  0.00003331  0.50616193  1
  Cu  Cu108  1  0.00287945  -0.00555333  0.00003916  1
  Cu  Cu109  1  0.48961678  0.50767286  0.24671031  1
  Cu  Cu110  1  0.67552920  0.33871888  -0.00925724  1
  Cu  Cu111  1  0.33763913  0.32125791  0.50363230  1
  Cu  Cu112  1  0.33616187  0.33736350  -0.00304350  1
  Cu  Cu113  1  0.67268840  0.66088625  0.50924096  1
  Cu  Cu114  1  -0.00915042  0.33540874  0.50534391  1
  Se  Se115  1  0.07786518  0.07944998  0.06080234  1
  Se  Se116  1  0.07459373  0.08284411  0.57363142  1
  Se  Se117  1  0.09266809  0.41766385  0.04706859  1
  Se  Se118  1  0.07685631  0.41585207  0.56050871  1
  Se  Se119  1  0.08170519  0.75206649  0.04790393  1
  Se  Se120  1  0.08655464  0.75502355  0.55388140  1
  Se  Se121  1  0.41159904  0.08006564  0.05995036  1
  Se  Se122  1  0.41304513  0.07659983  0.54590050  1
  Se  Se123  1  0.41677012  0.41031430  0.06116913  1
  Se  Se124  1  0.41796449  0.40644803  0.56084228  1
  Se  Se125  1  0.41234689  0.75561991  0.05447344  1
  Se  Se126  1  0.41915997  0.74788183  0.55809913  1
  Se  Se127  1  0.74028331  0.07407731  0.06077514  1
  Se  Se128  1  0.75760587  0.08511867  0.55340959  1
  Se  Se129  1  0.76050729  0.41323343  0.04921754  1
  Se  Se130  1  0.75389760  0.42093773  0.55596794  1
  Se  Se131  1  0.74616790  0.74606552  0.04498069  1
  Se  Se132  1  0.75510176  0.75081039  0.55631857  1
  Se  Se133  1  0.25837965  0.25022997  0.05550788  1
  Se  Se134  1  0.25184279  0.24816472  0.56198074  1
  Se  Se135  1  0.24789954  0.58607375  0.04642643  1
  Se  Se136  1  0.25015068  0.58902349  0.56296393  1
  Se  Se137  1  0.24577625  0.91768272  0.05595445  1
  Se  Se138  1  0.24905342  0.91602667  0.55434916  1
  Se  Se139  1  0.59087772  0.25071467  0.04336180  1
  Se  Se140  1  0.58524030  0.24794054  0.55245406  1
  Se  Se141  1  0.58991132  0.59190717  0.05979121  1
  Se  Se142  1  0.58710193  0.58959454  0.57245735  1
  Se  Se143  1  0.57551232  0.91927281  0.04697335  1
  Se  Se144  1  0.58756525  0.91021257  0.55233914  1
  Se  Se145  1  0.92562903  0.24686807  0.06079596  1
  Se  Se146  1  0.91530128  0.24916984  0.56178711  1
  Se  Se147  1  0.91561785  0.58396139  0.04551803  1
  Se  Se148  1  0.91855641  0.58481539  0.55331251  1
  Se  Se149  1  0.91379905  0.91596745  0.05257755  1
  Se  Se150  1  0.91734006  0.91610218  0.55581617  1
  Se  Se151  1  0.07454895  0.25678883  0.44627885  1
  Se  Se152  1  0.06339744  0.25609368  0.94089604  1
  Se  Se153  1  0.07439732  0.59432343  0.43530494  1
  Se  Se154  1  0.08645768  0.58193526  0.94003875  1
  Se  Se155  1  0.07948690  0.91930288  0.45242416  1
  Se  Se156  1  0.08773968  0.91419292  0.94641786  1
  Se  Se157  1  0.42577868  0.24060478  0.45367332  1
  Se  Se158  1  0.40810153  0.25677593  0.93289724  1
  Se  Se159  1  0.40659614  0.58260922  0.44613821  1
  Se  Se160  1  0.41105782  0.59500023  0.93593982  1
  Se  Se161  1  0.43530389  0.88913931  0.44327981  1
  Se  Se162  1  0.41835185  0.91957599  0.94184179  1
  Se  Se163  1  0.75376399  0.24954589  0.45051997  1
  Se  Se164  1  0.75048952  0.25212961  0.93267480  1
  Se  Se165  1  0.75644926  0.57880067  0.45516650  1
  Se  Se166  1  0.75119168  0.58657693  0.94940586  1
  Se  Se167  1  0.75263147  0.92183804  0.44715079  1
  Se  Se168  1  0.75770123  0.91563510  0.94960009  1
  Se  Se169  1  0.25578910  0.06732484  0.44438806  1
  Se  Se170  1  0.25894469  0.07657332  0.93971312  1
  Se  Se171  1  0.25628590  0.40172162  0.44438734  1
  Se  Se172  1  0.24631552  0.41977420  0.95096272  1
  Se  Se173  1  0.24693131  0.74972537  0.44679081  1
  Se  Se174  1  0.24715995  0.75441763  0.94114586  1
  Se  Se175  1  0.58296769  0.08124034  0.45276046  1
  Se  Se176  1  0.59803948  0.07489984  0.92460754  1
  Se  Se177  1  0.59525283  0.40980419  0.43860633  1
  Se  Se178  1  0.58836523  0.41527326  0.93455011  1
  Se  Se179  1  0.59075497  0.74060385  0.45083985  1
  Se  Se180  1  0.57418676  0.75151299  0.95273388  1
  Se  Se181  1  0.92069991  0.08860286  0.44918351  1
  Se  Se182  1  0.92504158  0.07526984  0.93833110  1
  Se  Se183  1  0.91580626  0.42375558  0.44930346  1
  Se  Se184  1  0.91505399  0.41363017  0.94319657  1
  Se  Se185  1  0.91533593  0.75375098  0.45008092  1
  Se  Se186  1  0.92052132  0.75062818  0.94170668  1
  Se  Se187  1  0.23811067  0.23540028  0.32227104  1
  Se  Se188  1  0.23572743  0.24368269  0.81580201  1
  Se  Se189  1  0.24836579  0.58475965  0.29658616  1
  Se  Se190  1  0.24880152  0.58614990  0.79985095  1
  Se  Se191  1  0.24876832  0.91549162  0.30601923  1
  Se  Se192  1  0.25572793  0.92135617  0.80199119  1
  Se  Se193  1  0.58604150  0.24467119  0.30884833  1
  Se  Se194  1  0.56601370  0.23649537  0.78752753  1
  Se  Se195  1  0.57085965  0.58146900  0.31211950  1
  Se  Se196  1  0.58413692  0.58846971  0.80252061  1
  Se  Se197  1  0.57436617  0.90686390  0.31044076  1
  Se  Se198  1  0.58979460  0.90497005  0.81426327  1
  Se  Se199  1  0.93416439  0.27053256  0.30843086  1
  Se  Se200  1  0.90312419  0.24364690  0.79504730  1
  Se  Se201  1  0.91194518  0.58685510  0.30937868  1
  Se  Se202  1  0.91663802  0.58358706  0.80394374  1
  Se  Se203  1  0.91200523  0.91929704  0.30316797  1
  Se  Se204  1  0.92090452  0.91417448  0.80315656  1
  Se  Se205  1  0.07996780  0.07624239  0.30651528  1
  Se  Se206  1  0.08056827  0.07944360  0.80335832  1
  Se  Se207  1  0.08362395  0.42294305  0.29528362  1
  Se  Se208  1  0.07819763  0.41617530  0.80319127  1
  Se  Se209  1  0.08077005  0.75825193  0.31103604  1
  Se  Se210  1  0.08514960  0.75103816  0.80141007  1
  Se  Se211  1  0.41909056  0.07446021  0.30826332  1
  Se  Se212  1  0.43182981  0.09245146  0.79083565  1
  Se  Se213  1  0.42016939  0.42117572  0.31082224  1
  Se  Se214  1  0.41759065  0.42561793  0.81244845  1
  Se  Se215  1  0.40668436  0.74419682  0.30402396  1
  Se  Se216  1  0.41500040  0.75402923  0.80111239  1
  Se  Se217  1  0.75955887  0.09562527  0.31087477  1
  Se  Se218  1  0.75987697  0.08542325  0.80137740  1
  Se  Se219  1  0.75925234  0.42800551  0.30862034  1
  Se  Se220  1  0.74202573  0.41789388  0.80062401  1
  Se  Se221  1  0.75755433  0.76227958  0.31092874  1
  Se  Se222  1  0.75154253  0.74883414  0.80777301  1
  Se  Se223  1  0.25437516  0.07511555  0.20515985  1
  Se  Se224  1  0.24976404  0.08000889  0.70092244  1
  Se  Se225  1  0.25237256  0.41815268  0.18556924  1
  Se  Se226  1  0.23672664  0.42778831  0.68674459  1
  Se  Se227  1  0.24506021  0.74924519  0.19512073  1
  Se  Se228  1  0.25381719  0.75162355  0.69630746  1
  Se  Se229  1  0.58406693  0.09044497  0.18872137  1
  Se  Se230  1  0.58138124  0.08004301  0.67716049  1
  Se  Se231  1  0.57905066  0.43204631  0.19106061  1
  Se  Se232  1  0.58063290  0.42133888  0.70118089  1
  Se  Se233  1  0.57485988  0.75887162  0.19046562  1
  Se  Se234  1  0.59056992  0.75100459  0.70366331  1
  Se  Se235  1  0.91390742  0.07661300  0.20441695  1
  Se  Se236  1  0.91562797  0.07267973  0.70548670  1
  Se  Se237  1  0.92181667  0.42021711  0.19151222  1
  Se  Se238  1  0.91464894  0.41590577  0.69782954  1
  Se  Se239  1  0.90357789  0.75865122  0.18987255  1
  Se  Se240  1  0.92371152  0.74706152  0.69577937  1
  Se  Se241  1  0.08940578  0.24552078  0.19852611  1
  Se  Se242  1  0.07846632  0.25407827  0.70551608  1
  Se  Se243  1  0.08627706  0.57792944  0.17845444  1
  Se  Se244  1  0.07634247  0.58859606  0.69909810  1
  Se  Se245  1  0.08035742  0.91126578  0.19275661  1
  Se  Se246  1  0.08363477  0.91607310  0.69880132  1
  Se  Se247  1  0.42538753  0.24378152  0.19574209  1
  Se  Se248  1  0.40452113  0.25405020  0.68561541  1
  Se  Se249  1  0.40754451  0.59485359  0.19972388  1
  Se  Se250  1  0.40860937  0.58858029  0.70299790  1
  Se  Se251  1  0.40940171  0.91937330  0.19754738  1
  Se  Se252  1  0.41834551  0.91751749  0.69416833  1
  Se  Se253  1  0.77098010  0.23755138  0.19860036  1
  Se  Se254  1  0.73683328  0.26048479  0.69700961  1
  Se  Se255  1  0.75612425  0.58518969  0.19015374  1
  Se  Se256  1  0.75203632  0.58899141  0.69716957  1
  Se  Se257  1  0.74312797  0.90785065  0.18633940  1
  Se  Se258  1  0.76063398  0.90524134  0.68911707  1
