# generated using pymatgen
data_In86Cu29Se144
_symmetry_space_group_name_H-M   'P 1'
_cell_length_a   17.57979839
_cell_length_b   17.57811925
_cell_length_c   23.44178678
_cell_angle_alpha   90.01779830
_cell_angle_beta   90.00422080
_cell_angle_gamma   90.01910743
_symmetry_Int_Tables_number   1
_chemical_formula_structural   In86Cu29Se144
_chemical_formula_sum   'In86 Cu29 Se144'
_cell_volume   7243.97531597
_cell_formula_units_Z   1
loop_
 _symmetry_equiv_pos_site_id
 _symmetry_equiv_pos_as_xyz
  1  'x, y, z'
loop_
 _atom_site_type_symbol
 _atom_site_label
 _atom_site_symmetry_multiplicity
 _atom_site_fract_x
 _atom_site_fract_y
 _atom_site_fract_z
 _atom_site_occupancy
  In  In0  1  -0.00282409  0.17715508  0.11730882  1
  In  In1  1  0.00353553  0.17429954  0.61656550  1
  In  In2  1  -0.00649453  0.49056922  0.13132392  1
  In  In3  1  0.01174493  0.50811226  0.61673597  1
  In  In4  1  -0.00421537  0.83869708  0.12087266  1
  In  In5  1  -0.01592864  0.83298960  0.62696919  1
  In  In6  1  0.34798886  0.15832110  0.14408174  1
  In  In7  1  0.32485291  0.17731444  0.64028072  1
  In  In8  1  0.34825202  0.47398439  0.14769953  1
  In  In9  1  0.33186586  0.50085086  0.61928993  1
  In  In10  1  0.34328209  0.82860555  0.12770316  1
  In  In11  1  0.33957361  0.82981391  0.63119044  1
  In  In12  1  0.67141088  0.17377814  0.12169399  1
  In  In13  1  0.66260769  0.15294720  0.62636009  1
  In  In14  1  0.65313567  0.49973907  0.12679529  1
  In  In15  1  0.66682554  0.51331739  0.60268361  1
  In  In16  1  0.66757416  0.84067192  0.11666913  1
  In  In17  1  0.67318505  0.83886235  0.61811628  1
  In  In18  1  0.18861442  0.00206510  0.37649024  1
  In  In19  1  0.17039124  0.00053363  0.87025300  1
  In  In20  1  0.16439431  0.33506884  0.37267380  1
  In  In21  1  0.18646447  0.31985529  0.87497105  1
  In  In22  1  0.17552990  0.64572108  0.37664789  1
  In  In23  1  0.16797441  0.66551495  0.86400449  1
  In  In24  1  0.48946396  0.00041382  0.37336778  1
  In  In25  1  0.49482496  -0.00153561  0.87605157  1
  In  In26  1  0.50992348  0.33176093  0.36292823  1
  In  In27  1  0.48867180  0.34127905  0.88381299  1
  In  In28  1  0.49477837  0.67517744  0.38548672  1
  In  In29  1  0.49351887  0.67603843  0.87902357  1
  In  In30  1  0.83753899  -0.00367884  0.38163497  1
  In  In31  1  0.82521967  0.00964421  0.88351140  1
  In  In32  1  0.83398802  0.33096440  0.37452094  1
  In  In33  1  0.82825022  0.32889310  0.88105046  1
  In  In34  1  0.82790124  0.66365758  0.38939168  1
  In  In35  1  0.84795577  0.66969271  0.86683096  1
  In  In36  1  -0.00859234  0.17772198  0.38057620  1
  In  In37  1  0.00063786  0.15877648  0.88289354  1
  In  In38  1  0.01304773  0.48217773  0.38320390  1
  In  In39  1  -0.00702493  0.50294959  0.87079044  1
  In  In40  1  -0.00414369  0.82451000  0.37878129  1
  In  In41  1  0.00511617  0.82882482  0.87534977  1
  In  In42  1  0.33388460  0.15793818  0.36933815  1
  In  In43  1  0.33450379  0.17599879  0.87081188  1
  In  In44  1  0.32840533  0.49916863  0.37188014  1
  In  In45  1  0.33822953  0.50432911  0.86842967  1
  In  In46  1  0.35060597  0.83858211  0.37170924  1
  In  In47  1  0.34537303  0.84119987  0.86693489  1
  In  In48  1  0.66074814  0.18420093  0.37161303  1
  In  In49  1  0.67189928  0.15350226  0.87887629  1
  In  In50  1  0.67433528  0.49140036  0.38572462  1
  In  In51  1  0.65919588  0.48929154  0.87517850  1
  In  In52  1  0.66699638  0.82472083  0.39062358  1
  In  In53  1  0.65093880  0.84645130  0.87989007  1
  In  In54  1  0.17902730  0.01222286  0.12403043  1
  In  In55  1  0.17198518  0.01856338  0.62687606  1
  In  In56  1  0.16823491  0.33124943  0.13804010  1
  In  In57  1  0.17234351  0.33710921  0.61756413  1
  In  In58  1  0.18043640  0.67006175  0.12961488  1
  In  In59  1  0.17754966  0.65874566  0.63011267  1
  In  In60  1  0.48711535  -0.00239954  0.11486878  1
  In  In61  1  0.50439725  -0.00307473  0.63502174  1
  In  In62  1  0.49887251  0.33226011  0.12776376  1
  In  In63  1  0.48773111  0.33844172  0.62167155  1
  In  In64  1  0.49539011  0.65581058  0.11741634  1
  In  In65  1  0.49099217  0.65726216  0.61331116  1
  In  In66  1  0.83627178  0.00191483  0.10795714  1
  In  In67  1  0.82803484  -0.00679551  0.61992651  1
  In  In68  1  0.84026775  0.31900858  0.13480994  1
  In  In69  1  0.82990550  0.33252149  0.61528226  1
  In  In70  1  0.82437938  0.66962589  0.12346813  1
  In  In71  1  0.83760696  0.67514489  0.61857738  1
  In  In72  1  0.16900520  0.83827268  -0.00612201  1
  In  In73  1  0.66115300  0.67123993  0.74294883  1
  In  In74  1  0.00938000  0.00697729  0.23889723  1
  In  In75  1  0.00313898  -0.00171190  0.75408236  1
  In  In76  1  0.00708539  0.65854274  0.26337028  1
  In  In77  1  0.16266732  0.83518038  0.50092276  1
  In  In78  1  0.16727804  0.49784337  0.01376320  1
  In  In79  1  0.16746482  0.16642904  -0.00024413  1
  In  In80  1  0.00969276  0.33567351  0.74976340  1
  In  In81  1  0.82701024  0.49955598  -0.00283593  1
  In  In82  1  0.66030072  0.00329012  0.24625291  1
  In  In83  1  0.65942210  0.33260086  0.74657198  1
  In  In84  1  0.49946656  0.16762368  0.49918240  1
  In  In85  1  0.66493274  0.66207811  0.25412215  1
  Cu  Cu86  1  0.66059134  0.33257608  0.00187175  1
  Cu  Cu87  1  0.18384869  0.83370475  0.25190588  1
  Cu  Cu88  1  0.16607253  0.16739782  0.25297083  1
  Cu  Cu89  1  0.33902975  0.00472448  0.50079344  1
  Cu  Cu90  1  0.49290176  0.50013636  0.74490543  1
  Cu  Cu91  1  0.34023354  0.66524817  -0.00213504  1
  Cu  Cu92  1  -0.00231902  0.33291307  0.49676576  1
  Cu  Cu93  1  0.00111282  0.00582477  0.50438899  1
  Cu  Cu94  1  0.83262173  0.48788664  0.25953806  1
  Cu  Cu95  1  -0.00543842  0.66512637  0.50043068  1
  Cu  Cu96  1  0.83678783  0.83338588  0.24900982  1
  Cu  Cu97  1  0.66897913  0.67279459  -0.00182729  1
  Cu  Cu98  1  0.66997203  0.33217602  0.49279041  1
  Cu  Cu99  1  0.00034918  0.66852550  -0.00488197  1
  Cu  Cu100  1  0.49449900  0.83350619  0.75256629  1
  Cu  Cu101  1  0.32986883  0.33665758  0.49826693  1
  Cu  Cu102  1  0.82705740  0.17148652  0.25114059  1
  Cu  Cu103  1  0.50161089  0.83123608  0.24906565  1
  Cu  Cu104  1  0.17211891  0.49798926  0.74257313  1
  Cu  Cu105  1  0.50035124  0.16546764  0.75422250  1
  Cu  Cu106  1  0.49845729  0.49885171  0.25236335  1
  Cu  Cu107  1  0.16460646  0.82797198  0.74944148  1
  Cu  Cu108  1  0.67106543  0.00075134  0.50263088  1
  Cu  Cu109  1  0.33797491  0.33436237  0.00922801  1
  Cu  Cu110  1  0.83587027  0.15920962  0.75327402  1
  Cu  Cu111  1  0.83836472  0.50229346  0.74403158  1
  Cu  Cu112  1  0.82592923  0.83542421  0.74572592  1
  Cu  Cu113  1  0.32618566  0.66378465  0.50037844  1
  Cu  Cu114  1  0.65735088  0.00188197  -0.00135455  1
  Se  Se115  1  0.07470418  0.07263317  0.05759591  1
  Se  Se116  1  0.08900919  0.08862737  0.55189721  1
  Se  Se117  1  0.07314807  0.40195933  0.06196125  1
  Se  Se118  1  0.08374516  0.41472071  0.55035859  1
  Se  Se119  1  0.08376089  0.74203226  0.05779504  1
  Se  Se120  1  0.07627529  0.74396679  0.56264510  1
  Se  Se121  1  0.40679008  0.09408082  0.05647357  1
  Se  Se122  1  0.41395335  0.08391955  0.56633496  1
  Se  Se123  1  0.41948148  0.42336713  0.05879147  1
  Se  Se124  1  0.41639781  0.42081301  0.54796812  1
  Se  Se125  1  0.42044501  0.75056720  0.05261189  1
  Se  Se126  1  0.40733465  0.75118926  0.55256399  1
  Se  Se127  1  0.74331127  0.08525303  0.05023243  1
  Se  Se128  1  0.75260405  0.08759969  0.55411841  1
  Se  Se129  1  0.74421704  0.41134185  0.06246124  1
  Se  Se130  1  0.75140350  0.41768427  0.54685533  1
  Se  Se131  1  0.75314503  0.75412063  0.05177974  1
  Se  Se132  1  0.74138099  0.74244210  0.55367153  1
  Se  Se133  1  0.25335134  0.25340025  0.06492135  1
  Se  Se134  1  0.25791910  0.24706733  0.55565195  1
  Se  Se135  1  0.26728067  0.58624567  0.06297576  1
  Se  Se136  1  0.24171946  0.57935723  0.55062604  1
  Se  Se137  1  0.25960529  0.92103792  0.05773617  1
  Se  Se138  1  0.25492692  0.92426201  0.55963098  1
  Se  Se139  1  0.57790314  0.24983674  0.05600821  1
  Se  Se140  1  0.59159289  0.25790649  0.56051002  1
  Se  Se141  1  0.58954019  0.58416976  0.04986407  1
  Se  Se142  1  0.57102769  0.58240133  0.53987674  1
  Se  Se143  1  0.57647194  0.91523149  0.05077043  1
  Se  Se144  1  0.58220478  0.92500491  0.55726888  1
  Se  Se145  1  0.90439211  0.24875952  0.05170704  1
  Se  Se146  1  0.91356308  0.24836552  0.54913900  1
  Se  Se147  1  0.92291032  0.58845506  0.05806836  1
  Se  Se148  1  0.91299276  0.57979953  0.55387838  1
  Se  Se149  1  0.91272803  0.90633714  0.04835179  1
  Se  Se150  1  0.91761817  0.91698459  0.55149439  1
  Se  Se151  1  0.08583428  0.25092429  0.44573502  1
  Se  Se152  1  0.07971089  0.26286213  0.94175018  1
  Se  Se153  1  0.07995651  0.58449761  0.44690516  1
  Se  Se154  1  0.08325391  0.58505902  0.94148467  1
  Se  Se155  1  0.07740192  0.92838496  0.43762065  1
  Se  Se156  1  0.07363450  0.93126580  0.94127041  1
  Se  Se157  1  0.41209243  0.25689988  0.43807162  1
  Se  Se158  1  0.41217164  0.24934403  0.94909076  1
  Se  Se159  1  0.40836604  0.58283263  0.44361274  1
  Se  Se160  1  0.41934849  0.57885990  0.94282901  1
  Se  Se161  1  0.42071531  0.91819505  0.44993646  1
  Se  Se162  1  0.41877741  0.90957930  0.94512141  1
  Se  Se163  1  0.75302062  0.24456946  0.44457528  1
  Se  Se164  1  0.74307974  0.24974080  0.94687979  1
  Se  Se165  1  0.73673803  0.58901781  0.45310711  1
  Se  Se166  1  0.74379261  0.59321551  0.93273829  1
  Se  Se167  1  0.75383513  0.91536535  0.44969536  1
  Se  Se168  1  0.74456304  0.91820555  0.94703181  1
  Se  Se169  1  0.25538553  0.08939677  0.44994958  1
  Se  Se170  1  0.25834287  0.07716383  0.94090274  1
  Se  Se171  1  0.24584739  0.41829866  0.44355085  1
  Se  Se172  1  0.25759808  0.41399034  0.94684770  1
  Se  Se173  1  0.25373781  0.75060933  0.43817800  1
  Se  Se174  1  0.25607455  0.74136663  0.93759488  1
  Se  Se175  1  0.59143505  0.07750752  0.43868486  1
  Se  Se176  1  0.57514781  0.08588537  0.94522279  1
  Se  Se177  1  0.57703218  0.40848932  0.44340313  1
  Se  Se178  1  0.57910681  0.42001861  0.95087587  1
  Se  Se179  1  0.57635232  0.75285790  0.45642903  1
  Se  Se180  1  0.58006663  0.75293887  0.94760459  1
  Se  Se181  1  0.91658530  0.08497957  0.44722369  1
  Se  Se182  1  0.91115817  0.08906399  0.95020073  1
  Se  Se183  1  0.91081157  0.41672386  0.44614215  1
  Se  Se184  1  0.92601707  0.41052658  0.94372371  1
  Se  Se185  1  0.91262426  0.75387170  0.45158903  1
  Se  Se186  1  0.91594647  0.75096549  0.94380849  1
  Se  Se187  1  0.25000388  0.24826911  0.30717814  1
  Se  Se188  1  0.25463820  0.25046815  0.79531144  1
  Se  Se189  1  0.25208110  0.58173115  0.29824659  1
  Se  Se190  1  0.25343918  0.58265276  0.79875692  1
  Se  Se191  1  0.26349948  0.92041663  0.30445504  1
  Se  Se192  1  0.24600624  0.91212860  0.80330110  1
  Se  Se193  1  0.56867304  0.23051806  0.29534841  1
  Se  Se194  1  0.57906555  0.24770055  0.81561862  1
  Se  Se195  1  0.57720000  0.57601501  0.31653419  1
  Se  Se196  1  0.57661789  0.57721292  0.80602109  1
  Se  Se197  1  0.58527003  0.90496827  0.31134207  1
  Se  Se198  1  0.57860666  0.91983905  0.80192772  1
  Se  Se199  1  0.91688971  0.25065378  0.30238832  1
  Se  Se200  1  0.91358393  0.24561208  0.80885916  1
  Se  Se201  1  0.90727876  0.57436417  0.31838357  1
  Se  Se202  1  0.92308673  0.58471857  0.79546033  1
  Se  Se203  1  0.92094810  0.91502519  0.30383894  1
  Se  Se204  1  0.90676281  0.91132571  0.81044231  1
  Se  Se205  1  0.08744023  0.08558764  0.31440088  1
  Se  Se206  1  0.09179837  0.09850193  0.80549478  1
  Se  Se207  1  0.08171030  0.41547356  0.30198898  1
  Se  Se208  1  0.09893199  0.42429605  0.81324090  1
  Se  Se209  1  0.09971073  0.75951710  0.31314656  1
  Se  Se210  1  0.07721602  0.74727288  0.80065010  1
  Se  Se211  1  0.42823671  0.08960560  0.30099320  1
  Se  Se212  1  0.41476231  0.08385136  0.80661662  1
  Se  Se213  1  0.41467894  0.41479038  0.30475411  1
  Se  Se214  1  0.41801941  0.41377549  0.80256569  1
  Se  Se215  1  0.42201569  0.74516069  0.30360076  1
  Se  Se216  1  0.41342555  0.74254869  0.80022441  1
  Se  Se217  1  0.75523242  0.08429615  0.31074017  1
  Se  Se218  1  0.74871554  0.07747762  0.80278841  1
  Se  Se219  1  0.74119567  0.40933966  0.30808320  1
  Se  Se220  1  0.75941963  0.42203393  0.80444881  1
  Se  Se221  1  0.75789811  0.75574985  0.31041295  1
  Se  Se222  1  0.74735771  0.75675216  0.80989256  1
  Se  Se223  1  0.25103733  0.07962566  0.20513520  1
  Se  Se224  1  0.25798005  0.07625207  0.70333840  1
  Se  Se225  1  0.22887121  0.43328048  0.20270956  1
  Se  Se226  1  0.25421201  0.41419725  0.69030531  1
  Se  Se227  1  0.26335972  0.74681617  0.19983451  1
  Se  Se228  1  0.25235901  0.74818328  0.69731567  1
  Se  Se229  1  0.57453385  0.08753581  0.18263706  1
  Se  Se230  1  0.58627375  0.08256981  0.70362524  1
  Se  Se231  1  0.58267074  0.41548422  0.19929598  1
  Se  Se232  1  0.58211372  0.43051311  0.68395044  1
  Se  Se233  1  0.58384202  0.75344850  0.18818359  1
  Se  Se234  1  0.56957120  0.75799364  0.68389722  1
  Se  Se235  1  0.90373072  0.08951561  0.18862118  1
  Se  Se236  1  0.91736187  0.08691681  0.68854902  1
  Se  Se237  1  0.91628058  0.40983847  0.20244348  1
  Se  Se238  1  0.91556623  0.41763173  0.68629799  1
  Se  Se239  1  0.91795176  0.74756003  0.19481464  1
  Se  Se240  1  0.91093447  0.74788066  0.69903605  1
  Se  Se241  1  0.07855039  0.24100361  0.19600974  1
  Se  Se242  1  0.09413896  0.24326881  0.69023858  1
  Se  Se243  1  0.08699449  0.57988205  0.19009001  1
  Se  Se244  1  0.08329105  0.58254949  0.69589986  1
  Se  Se245  1  0.09965421  0.90484676  0.18843311  1
  Se  Se246  1  0.08911727  0.91080424  0.68695981  1
  Se  Se247  1  0.39045094  0.28096060  0.19373869  1
  Se  Se248  1  0.42518525  0.25408332  0.69896964  1
  Se  Se249  1  0.42106065  0.58596443  0.19727529  1
  Se  Se250  1  0.41268572  0.58520378  0.69049787  1
  Se  Se251  1  0.42166893  0.91727144  0.19562102  1
  Se  Se252  1  0.41155397  0.92061614  0.70044046  1
  Se  Se253  1  0.74002941  0.25370815  0.20057254  1
  Se  Se254  1  0.75826465  0.24275932  0.69291796  1
  Se  Se255  1  0.75961944  0.57112494  0.19536993  1
  Se  Se256  1  0.75088572  0.57612030  0.68679364  1
  Se  Se257  1  0.76034592  0.91556937  0.18971490  1
  Se  Se258  1  0.74482552  0.92088524  0.69436018  1
