# generated using pymatgen
data_In86Cu29Se144
_symmetry_space_group_name_H-M   'P 1'
_cell_length_a   17.57452593
_cell_length_b   17.57082849
_cell_length_c   23.42014675
_cell_angle_alpha   89.99448468
_cell_angle_beta   90.00652647
_cell_angle_gamma   90.02055514
_symmetry_Int_Tables_number   1
_chemical_formula_structural   In86Cu29Se144
_chemical_formula_sum   'In86 Cu29 Se144'
_cell_volume   7232.11690424
_cell_formula_units_Z   1
loop_
 _symmetry_equiv_pos_site_id
 _symmetry_equiv_pos_as_xyz
  1  'x, y, z'
loop_
 _atom_site_type_symbol
 _atom_site_label
 _atom_site_symmetry_multiplicity
 _atom_site_fract_x
 _atom_site_fract_y
 _atom_site_fract_z
 _atom_site_occupancy
  In  In0  1  0.00920589  0.15917776  0.11721768  1
  In  In1  1  0.00682282  0.16125292  0.62853935  1
  In  In2  1  0.00805284  0.50757719  0.11881952  1
  In  In3  1  0.00419270  0.50012351  0.61741654  1
  In  In4  1  -0.01614406  0.82605245  0.11929068  1
  In  In5  1  -0.00030319  0.84351312  0.63994978  1
  In  In6  1  0.34937370  0.18369941  0.10764854  1
  In  In7  1  0.33423284  0.15726089  0.62972643  1
  In  In8  1  0.32443613  0.48885761  0.11573103  1
  In  In9  1  0.32231343  0.51246308  0.62887546  1
  In  In10  1  0.33992066  0.82742869  0.11939526  1
  In  In11  1  0.33739448  0.83537740  0.64086657  1
  In  In12  1  0.65706662  0.17981325  0.12728291  1
  In  In13  1  0.65339536  0.16556166  0.64029056  1
  In  In14  1  0.65870758  0.49323001  0.11101604  1
  In  In15  1  0.66842534  0.49043186  0.62872960  1
  In  In16  1  0.66547726  0.83427061  0.11135010  1
  In  In17  1  0.67002866  0.83702588  0.62794603  1
  In  In18  1  0.17706239  0.00952142  0.38326492  1
  In  In19  1  0.17929338  0.01378001  0.85012933  1
  In  In20  1  0.17338021  0.32734432  0.39145009  1
  In  In21  1  0.17155944  0.33330275  0.88367089  1
  In  In22  1  0.14862493  0.66746070  0.37289154  1
  In  In23  1  0.16282523  0.66598822  0.86524956  1
  In  In24  1  0.49684580  0.00208324  0.38863715  1
  In  In25  1  0.49577201  0.00789776  0.86616344  1
  In  In26  1  0.48467129  0.32106570  0.35823929  1
  In  In27  1  0.51235298  0.32192336  0.87772394  1
  In  In28  1  0.50819549  0.67007458  0.38054586  1
  In  In29  1  0.49068884  0.67634841  0.87681383  1
  In  In30  1  0.82475860  -0.00159767  0.38496966  1
  In  In31  1  0.82608678  -0.00923355  0.86907291  1
  In  In32  1  0.83314531  0.34894124  0.37675924  1
  In  In33  1  0.82635366  0.35261553  0.87549743  1
  In  In34  1  0.83751727  0.65480095  0.38584644  1
  In  In35  1  0.84679073  0.65735892  0.87564437  1
  In  In36  1  0.01420763  0.18066172  0.38340019  1
  In  In37  1  0.01222534  0.16559259  0.87114399  1
  In  In38  1  -0.01107748  0.50309178  0.38436990  1
  In  In39  1  -0.00653077  0.51721209  0.87936397  1
  In  In40  1  -0.00003936  0.81740026  0.37753427  1
  In  In41  1  -0.00185909  0.82424029  0.86445625  1
  In  In42  1  0.33323626  0.17189031  0.38451091  1
  In  In43  1  0.33973339  0.15816591  0.87126519  1
  In  In44  1  0.34318868  0.48721889  0.37723965  1
  In  In45  1  0.32677530  0.50941120  0.88183558  1
  In  In46  1  0.33592015  0.84485595  0.38159855  1
  In  In47  1  0.34616843  0.85225327  0.84560686  1
  In  In48  1  0.65383321  0.16806797  0.37705566  1
  In  In49  1  0.65236068  0.15538636  0.86038490  1
  In  In50  1  0.67260098  0.49715035  0.37773972  1
  In  In51  1  0.67747505  0.48819964  0.87806526  1
  In  In52  1  0.66657307  0.83619461  0.39004224  1
  In  In53  1  0.65318959  0.85083877  0.87269632  1
  In  In54  1  0.17037770  0.01450952  0.11801592  1
  In  In55  1  0.16300985  0.01289474  0.64623152  1
  In  In56  1  0.17652780  0.33714086  0.11814851  1
  In  In57  1  0.16082582  0.32884086  0.61204539  1
  In  In58  1  0.16477370  0.65176486  0.12371655  1
  In  In59  1  0.17324653  0.66485940  0.63522625  1
  In  In60  1  0.50106968  0.00514951  0.11381727  1
  In  In61  1  0.49999149  -0.00144883  0.63410413  1
  In  In62  1  0.49532183  0.33002311  0.12217213  1
  In  In63  1  0.51238888  0.32895596  0.62890599  1
  In  In64  1  0.50626962  0.67181978  0.10953127  1
  In  In65  1  0.48058014  0.67604589  0.63701177  1
  In  In66  1  0.83981740  -0.00705311  0.11596551  1
  In  In67  1  0.84308091  -0.00832485  0.63375868  1
  In  In68  1  0.81824737  0.33490611  0.12510389  1
  In  In69  1  0.82391155  0.33507253  0.62157226  1
  In  In70  1  0.83584971  0.66845377  0.11667556  1
  In  In71  1  0.83797578  0.67029478  0.62455699  1
  In  In72  1  -0.00297207  0.33258228  0.74563706  1
  In  In73  1  0.16926495  0.83499158  0.51266542  1
  In  In74  1  0.33980727  0.33037007  0.75038165  1
  In  In75  1  0.84008553  0.16302589  0.50851192  1
  In  In76  1  0.66168775  -0.00040163  0.23806838  1
  In  In77  1  0.50569273  0.50202491  0.50350344  1
  In  In78  1  0.33354931  0.65725154  0.24728417  1
  In  In79  1  0.66745449  0.66257733  0.25222501  1
  In  In80  1  0.82920255  0.17012624  0.00264234  1
  In  In81  1  0.66130017  0.67011413  0.75064084  1
  In  In82  1  -0.00202539  0.33649934  0.25467920  1
  In  In83  1  0.16920505  0.83263228  -0.02011409  1
  In  In84  1  0.33237344  0.00449235  0.25710139  1
  In  In85  1  -0.00309664  -0.00253930  0.24583475  1
  Cu  Cu86  1  0.16319938  0.49392951  0.24797905  1
  Cu  Cu87  1  0.49896690  0.49956413  0.75289925  1
  Cu  Cu88  1  0.82510343  0.17002223  0.24973744  1
  Cu  Cu89  1  0.33859560  0.67132356  -0.00503287  1
  Cu  Cu90  1  0.15509986  0.83015207  0.24690175  1
  Cu  Cu91  1  0.50046531  0.49118954  0.23874607  1
  Cu  Cu92  1  0.66624398  -0.00239602  0.50886157  1
  Cu  Cu93  1  0.00092909  -0.00380680  -0.00524764  1
  Cu  Cu94  1  0.83269184  0.82818932  0.75250581  1
  Cu  Cu95  1  0.15885335  0.49664333  0.75106248  1
  Cu  Cu96  1  0.00321574  0.33917392  -0.00628492  1
  Cu  Cu97  1  0.34113480  0.33379479  0.50245379  1
  Cu  Cu98  1  0.65886958  0.00230078  -0.00962877  1
  Cu  Cu99  1  0.33554253  0.33304442  -0.00516576  1
  Cu  Cu100  1  0.66594157  0.33016853  0.50282373  1
  Cu  Cu101  1  0.66304372  0.67315748  0.50778152  1
  Cu  Cu102  1  0.66236026  0.33028346  -0.00188067  1
  Cu  Cu103  1  0.33198348  -0.00582332  -0.01478804  1
  Cu  Cu104  1  0.00814075  -0.00292624  0.51222664  1
  Cu  Cu105  1  0.83196028  0.50360477  0.25378348  1
  Cu  Cu106  1  0.67192330  0.67058270  -0.01198516  1
  Cu  Cu107  1  0.83741928  0.16937567  0.74405191  1
  Cu  Cu108  1  0.00370371  0.66811933  -0.00511392  1
  Cu  Cu109  1  0.17198840  0.17501213  0.25510523  1
  Cu  Cu110  1  0.32692341  0.67294798  0.51040479  1
  Cu  Cu111  1  0.83731137  0.82100639  0.25055999  1
  Cu  Cu112  1  -0.00508205  0.66519008  0.50260680  1
  Cu  Cu113  1  0.34143857  0.00283175  0.50849406  1
  Cu  Cu114  1  0.50271291  0.83645945  0.25225329  1
  Se  Se115  1  0.08617534  0.08278333  0.04270911  1
  Se  Se116  1  0.09370289  0.08002177  0.56127132  1
  Se  Se117  1  0.08666367  0.41787178  0.05344675  1
  Se  Se118  1  0.09131723  0.42427956  0.54880615  1
  Se  Se119  1  0.08630611  0.74941955  0.05482721  1
  Se  Se120  1  0.07443178  0.74402614  0.56538181  1
  Se  Se121  1  0.41074241  0.07767322  0.04542910  1
  Se  Se122  1  0.42671918  0.08577499  0.56056333  1
  Se  Se123  1  0.41845656  0.41566434  0.05050789  1
  Se  Se124  1  0.41410120  0.41616382  0.56709257  1
  Se  Se125  1  0.42198755  0.75866782  0.04483911  1
  Se  Se126  1  0.41045442  0.75745285  0.56086637  1
  Se  Se127  1  0.73595322  0.07607693  0.06020928  1
  Se  Se128  1  0.74672469  0.07830047  0.56911615  1
  Se  Se129  1  0.75205574  0.41410837  0.04652044  1
  Se  Se130  1  0.74722489  0.42048625  0.55016040  1
  Se  Se131  1  0.75267995  0.75096721  0.04827379  1
  Se  Se132  1  0.75109611  0.75356125  0.55861079  1
  Se  Se133  1  0.24611849  0.24859892  0.04544748  1
  Se  Se134  1  0.26288036  0.24850086  0.55888157  1
  Se  Se135  1  0.25577437  0.58959759  0.05130333  1
  Se  Se136  1  0.24114236  0.58541896  0.55438372  1
  Se  Se137  1  0.25416441  0.91961443  0.05295436  1
  Se  Se138  1  0.25633482  0.92835906  0.56945489  1
  Se  Se139  1  0.57735308  0.24646108  0.04998430  1
  Se  Se140  1  0.58828119  0.24425529  0.55798025  1
  Se  Se141  1  0.58868502  0.58763442  0.04389046  1
  Se  Se142  1  0.58326385  0.59541493  0.57056566  1
  Se  Se143  1  0.57814946  0.91652755  0.04715255  1
  Se  Se144  1  0.58020994  0.91594788  0.56145758  1
  Se  Se145  1  0.92522926  0.26145606  0.06011521  1
  Se  Se146  1  0.92956917  0.25816387  0.56237158  1
  Se  Se147  1  0.92032519  0.58424055  0.05024458  1
  Se  Se148  1  0.91003587  0.58059166  0.55372380  1
  Se  Se149  1  0.91599125  0.91166490  0.04410761  1
  Se  Se150  1  0.92235151  0.91283711  0.55993033  1
  Se  Se151  1  0.09395238  0.24332049  0.46017042  1
  Se  Se152  1  0.08264430  0.24800793  0.94658461  1
  Se  Se153  1  0.08085419  0.58530048  0.44805000  1
  Se  Se154  1  0.09222079  0.58648204  0.94476808  1
  Se  Se155  1  0.08069244  0.91954090  0.44188215  1
  Se  Se156  1  0.07866748  0.92667016  0.92719811  1
  Se  Se157  1  0.42594502  0.25428833  0.44693485  1
  Se  Se158  1  0.41499949  0.24687493  0.94052285  1
  Se  Se159  1  0.40851403  0.59424315  0.44658592  1
  Se  Se160  1  0.42264403  0.58241521  0.94723385  1
  Se  Se161  1  0.41933516  0.91300657  0.45590288  1
  Se  Se162  1  0.41667820  0.91394506  0.93156675  1
  Se  Se163  1  0.75017530  0.25015094  0.44347555  1
  Se  Se164  1  0.74165493  0.25055460  0.93537105  1
  Se  Se165  1  0.73898064  0.58567588  0.45072282  1
  Se  Se166  1  0.75582634  0.58108833  0.94282950  1
  Se  Se167  1  0.75380379  0.91522030  0.45809467  1
  Se  Se168  1  0.74734998  0.91758669  0.94505079  1
  Se  Se169  1  0.25593944  0.08578208  0.45533311  1
  Se  Se170  1  0.24600757  0.07872831  0.93610800  1
  Se  Se171  1  0.25850303  0.42023252  0.45156301  1
  Se  Se172  1  0.24883188  0.42177780  0.95058734  1
  Se  Se173  1  0.25019329  0.74610146  0.44028224  1
  Se  Se174  1  0.26652673  0.74699941  0.92638157  1
  Se  Se175  1  0.58767100  0.08236534  0.45226743  1
  Se  Se176  1  0.57566802  0.08808930  0.94074008  1
  Se  Se177  1  0.58298079  0.40628615  0.43996237  1
  Se  Se178  1  0.58185391  0.41755348  0.94546942  1
  Se  Se179  1  0.57727377  0.75398555  0.45413771  1
  Se  Se180  1  0.58396912  0.75508531  0.94046030  1
  Se  Se181  1  0.93168246  0.07453453  0.44400236  1
  Se  Se182  1  0.91687222  0.08178415  0.93948808  1
  Se  Se183  1  0.92232566  0.40633572  0.45044409  1
  Se  Se184  1  0.91729039  0.42259995  0.94514908  1
  Se  Se185  1  0.91215560  0.75137569  0.45038832  1
  Se  Se186  1  0.91987704  0.75191249  0.94302745  1
  Se  Se187  1  0.25144918  0.25393168  0.31385863  1
  Se  Se188  1  0.24360058  0.24650675  0.80921281  1
  Se  Se189  1  0.24281367  0.57469681  0.31173498  1
  Se  Se190  1  0.24893360  0.57639300  0.80217723  1
  Se  Se191  1  0.23495969  0.90732511  0.30852452  1
  Se  Se192  1  0.21558788  0.88681401  0.80120432  1
  Se  Se193  1  0.59375619  0.25696638  0.30364793  1
  Se  Se194  1  0.58467066  0.25469136  0.79678923  1
  Se  Se195  1  0.56998365  0.57114667  0.30707969  1
  Se  Se196  1  0.57947700  0.57733206  0.81510216  1
  Se  Se197  1  0.58131788  0.91502013  0.31292742  1
  Se  Se198  1  0.59476835  0.94233702  0.79737245  1
  Se  Se199  1  0.90946082  0.23980199  0.31303332  1
  Se  Se200  1  0.90827764  0.24830976  0.81312356  1
  Se  Se201  1  0.91603997  0.58393897  0.30796859  1
  Se  Se202  1  0.92214452  0.58530247  0.79810398  1
  Se  Se203  1  0.90777647  0.91147729  0.31037647  1
  Se  Se204  1  0.91719316  0.91705324  0.80097912  1
  Se  Se205  1  0.08898099  0.08808811  0.30807297  1
  Se  Se206  1  0.07258429  0.08207710  0.79391427  1
  Se  Se207  1  0.08975026  0.41938294  0.31707902  1
  Se  Se208  1  0.08345489  0.41767874  0.81392595  1
  Se  Se209  1  0.07272271  0.74565457  0.29770252  1
  Se  Se210  1  0.06526512  0.72866367  0.79736897  1
  Se  Se211  1  0.42681194  0.09108645  0.31367244  1
  Se  Se212  1  0.39347431  0.06379437  0.79377383  1
  Se  Se213  1  0.41059852  0.41773320  0.29453684  1
  Se  Se214  1  0.42041833  0.42091930  0.81634861  1
  Se  Se215  1  0.41968745  0.75525085  0.30918328  1
  Se  Se216  1  0.41776252  0.74271958  0.79574390  1
  Se  Se217  1  0.75215301  0.08153588  0.30729324  1
  Se  Se218  1  0.75799594  0.08730266  0.80234893  1
  Se  Se219  1  0.74724848  0.41759726  0.30249068  1
  Se  Se220  1  0.74760918  0.41687530  0.79704442  1
  Se  Se221  1  0.75203515  0.75423412  0.31525604  1
  Se  Se222  1  0.75044772  0.75491797  0.81588404  1
  Se  Se223  1  0.24850566  0.09432005  0.19279655  1
  Se  Se224  1  0.26294762  0.08305839  0.70970647  1
  Se  Se225  1  0.25008196  0.41538958  0.19486548  1
  Se  Se226  1  0.24031713  0.41542838  0.69224973  1
  Se  Se227  1  0.24377955  0.75530393  0.18995465  1
  Se  Se228  1  0.25980860  0.74118575  0.70233071  1
  Se  Se229  1  0.56414510  0.09427224  0.19299537  1
  Se  Se230  1  0.59742184  0.06035338  0.70614741  1
  Se  Se231  1  0.58767984  0.41259966  0.18692687  1
  Se  Se232  1  0.58311352  0.41720777  0.70058390  1
  Se  Se233  1  0.58023557  0.75670537  0.19048216  1
  Se  Se234  1  0.57029834  0.76631231  0.69848110  1
  Se  Se235  1  0.90561796  0.09383740  0.18804654  1
  Se  Se236  1  0.92370889  0.08263202  0.69820865  1
  Se  Se237  1  0.91056812  0.42354706  0.19011895  1
  Se  Se238  1  0.90874000  0.42437811  0.68853167  1
  Se  Se239  1  0.91776651  0.74018459  0.19427311  1
  Se  Se240  1  0.91691478  0.74783715  0.69862962  1
  Se  Se241  1  0.08669729  0.24587405  0.19192374  1
  Se  Se242  1  0.09826463  0.24549323  0.69493295  1
  Se  Se243  1  0.08140421  0.58170484  0.19862065  1
  Se  Se244  1  0.07981784  0.57847381  0.69340688  1
  Se  Se245  1  0.08842971  0.91310131  0.18086787  1
  Se  Se246  1  0.10550972  0.90104528  0.70404795  1
  Se  Se247  1  0.41067035  0.25050452  0.19202174  1
  Se  Se248  1  0.43184681  0.23791388  0.69646787  1
  Se  Se249  1  0.42608716  0.58005784  0.18069057  1
  Se  Se250  1  0.41092138  0.57924206  0.70232184  1
  Se  Se251  1  0.42118141  0.91448643  0.19190843  1
  Se  Se252  1  0.40236061  0.93711588  0.70636608  1
  Se  Se253  1  0.74333725  0.25401795  0.19848003  1
  Se  Se254  1  0.75082462  0.25149930  0.69435881  1
  Se  Se255  1  0.75204511  0.57598234  0.18684604  1
  Se  Se256  1  0.75355762  0.58080086  0.69343558  1
  Se  Se257  1  0.76023485  0.90305046  0.18907869  1
  Se  Se258  1  0.75208734  0.91464807  0.70001801  1
