# generated using pymatgen
data_In86Cu29Se144
_symmetry_space_group_name_H-M   'P 1'
_cell_length_a   17.58099143
_cell_length_b   17.58263605
_cell_length_c   23.44760636
_cell_angle_alpha   89.96809005
_cell_angle_beta   89.98871936
_cell_angle_gamma   89.97919589
_symmetry_Int_Tables_number   1
_chemical_formula_structural   In86Cu29Se144
_chemical_formula_sum   'In86 Cu29 Se144'
_cell_volume   7248.12640745
_cell_formula_units_Z   1
loop_
 _symmetry_equiv_pos_site_id
 _symmetry_equiv_pos_as_xyz
  1  'x, y, z'
loop_
 _atom_site_type_symbol
 _atom_site_label
 _atom_site_symmetry_multiplicity
 _atom_site_fract_x
 _atom_site_fract_y
 _atom_site_fract_z
 _atom_site_occupancy
  In  In0  1  0.00755089  0.17512911  0.11940715  1
  In  In1  1  0.00350074  0.17715346  0.62468232  1
  In  In2  1  -0.01899866  0.49106063  0.11956025  1
  In  In3  1  -0.01857121  0.51653772  0.64477265  1
  In  In4  1  0.00377985  0.83333736  0.11256457  1
  In  In5  1  -0.00115194  0.81392436  0.62689226  1
  In  In6  1  0.33250989  0.16789711  0.12647912  1
  In  In7  1  0.32671852  0.18337907  0.62064733  1
  In  In8  1  0.32902113  0.48547654  0.12888167  1
  In  In9  1  0.34787227  0.50456336  0.62179635  1
  In  In10  1  0.34208448  0.84101752  0.11927501  1
  In  In11  1  0.32398632  0.82865577  0.61961360  1
  In  In12  1  0.67701450  0.17597120  0.11956815  1
  In  In13  1  0.68163641  0.16631850  0.62315682  1
  In  In14  1  0.68935363  0.48301555  0.14027571  1
  In  In15  1  0.65904395  0.49830862  0.61812000  1
  In  In16  1  0.65969410  0.82526148  0.12198597  1
  In  In17  1  0.66679585  0.83838275  0.61868001  1
  In  In18  1  0.17714930  -0.00540344  0.37963161  1
  In  In19  1  0.17168411  -0.00072496  0.88279586  1
  In  In20  1  0.15675988  0.32107267  0.37100922  1
  In  In21  1  0.15682752  0.33444348  0.87940330  1
  In  In22  1  0.17678509  0.67380298  0.37955895  1
  In  In23  1  0.16670004  0.66072815  0.86289692  1
  In  In24  1  0.48814030  0.00717308  0.37068548  1
  In  In25  1  0.49965585  0.00146506  0.88461016  1
  In  In26  1  0.51308770  0.33924435  0.35844884  1
  In  In27  1  0.50101734  0.32235576  0.88010528  1
  In  In28  1  0.52853543  0.64493409  0.40009031  1
  In  In29  1  0.49666876  0.67703525  0.87543435  1
  In  In30  1  0.84800778  0.00475793  0.37353516  1
  In  In31  1  0.83056622  -0.00118141  0.88347192  1
  In  In32  1  0.82773728  0.33683234  0.37883354  1
  In  In33  1  0.83363618  0.33502927  0.87300790  1
  In  In34  1  0.81446803  0.65441027  0.37197186  1
  In  In35  1  0.84256325  0.65962849  0.87637241  1
  In  In36  1  -0.01125529  0.17678755  0.38407429  1
  In  In37  1  -0.01249842  0.17505960  0.88465178  1
  In  In38  1  -0.00832491  0.48371569  0.37365656  1
  In  In39  1  -0.01575248  0.48097719  0.85045391  1
  In  In40  1  0.00606822  0.84045772  0.37946175  1
  In  In41  1  0.00200485  0.82909308  0.87528141  1
  In  In42  1  0.33292741  0.15636147  0.36373682  1
  In  In43  1  0.33440031  0.17593618  0.89597142  1
  In  In44  1  0.34608368  0.50257012  0.37473213  1
  In  In45  1  0.31659627  0.50106810  0.87290912  1
  In  In46  1  0.33819204  0.83823320  0.37650998  1
  In  In47  1  0.33543159  0.82571483  0.87808299  1
  In  In48  1  0.66687343  0.20098307  0.36771653  1
  In  In49  1  0.66041665  0.17601685  0.88534557  1
  In  In50  1  0.66845730  0.49193761  0.37961469  1
  In  In51  1  0.69220573  0.49681411  0.87346667  1
  In  In52  1  0.66789800  0.81550153  0.37420746  1
  In  In53  1  0.66168762  0.82954768  0.88449649  1
  In  In54  1  0.18051328  0.01119900  0.11720865  1
  In  In55  1  0.16939569  0.00674115  0.61918059  1
  In  In56  1  0.17664674  0.31233530  0.13581572  1
  In  In57  1  0.16050203  0.32483746  0.61954327  1
  In  In58  1  0.15676159  0.66882443  0.11972634  1
  In  In59  1  0.15328561  0.67164515  0.63181863  1
  In  In60  1  0.49171293  -0.00807326  0.12641335  1
  In  In61  1  0.51295248  -0.00078830  0.62042099  1
  In  In62  1  0.50227746  0.32633674  0.12904073  1
  In  In63  1  0.49926106  0.34909488  0.62055012  1
  In  In64  1  0.50478142  0.67918230  0.12217913  1
  In  In65  1  0.49654533  0.65949688  0.61721203  1
  In  In66  1  0.84134657  0.00563832  0.11517464  1
  In  In67  1  0.82444852  0.00122147  0.62305093  1
  In  In68  1  0.83686497  0.33497777  0.12638076  1
  In  In69  1  0.83474748  0.33651661  0.62830806  1
  In  In70  1  0.81960362  0.65606980  0.11500247  1
  In  In71  1  0.84249523  0.66845423  0.62825191  1
  In  In72  1  0.33889208  0.00095147  0.75942476  1
  In  In73  1  0.50509294  0.50051138  0.00948403  1
  In  In74  1  0.83659934  0.82700179  0.50510790  1
  In  In75  1  0.16118563  0.50275349  0.50526745  1
  In  In76  1  0.49946045  0.16665824  0.48605376  1
  In  In77  1  0.66570735  0.00327415  0.24419025  1
  In  In78  1  0.32999874  0.34501986  0.74986700  1
  In  In79  1  0.67215743  -0.00226346  0.74763841  1
  In  In80  1  0.66864659  0.66366729  0.75116446  1
  In  In81  1  0.00124346  0.00126860  0.75937327  1
  In  In82  1  0.00630092  0.00459173  0.24565277  1
  In  In83  1  0.15947080  0.49897647  -0.00709231  1
  In  In84  1  -0.00464922  0.65921984  0.25325171  1
  In  In85  1  0.34020213  0.66691012  0.25447429  1
  Cu  Cu86  1  0.66892025  0.66798725  -0.00165715  1
  Cu  Cu87  1  0.66160788  0.00047681  0.00754373  1
  Cu  Cu88  1  0.16505710  0.16430429  0.24832679  1
  Cu  Cu89  1  -0.01268794  0.33479003  0.50266559  1
  Cu  Cu90  1  0.50454224  0.50309883  0.74637404  1
  Cu  Cu91  1  0.82911425  0.17860167  0.25201940  1
  Cu  Cu92  1  0.83230292  0.82424738  0.24254396  1
  Cu  Cu93  1  0.66969386  -0.00153150  0.49493410  1
  Cu  Cu94  1  0.49923231  0.82863391  0.25124650  1
  Cu  Cu95  1  0.00042291  0.66906740  -0.00622172  1
  Cu  Cu96  1  0.32953395  0.66783858  -0.00294749  1
  Cu  Cu97  1  0.50549874  0.50322890  0.25331859  1
  Cu  Cu98  1  0.66705479  0.33325502  0.49894208  1
  Cu  Cu99  1  0.00845430  0.00529310  0.50042783  1
  Cu  Cu100  1  0.33478858  0.00443748  0.49652927  1
  Cu  Cu101  1  0.16686286  0.17246138  0.75064492  1
  Cu  Cu102  1  0.33026286  -0.00302365  0.00282301  1
  Cu  Cu103  1  0.17641591  0.83906346  0.24984831  1
  Cu  Cu104  1  0.67523244  0.33924609  0.00232641  1
  Cu  Cu105  1  0.50684756  0.17959848  0.75788800  1
  Cu  Cu106  1  -0.00316145  0.33622050  -0.00033714  1
  Cu  Cu107  1  0.83456070  0.17426866  0.75202914  1
  Cu  Cu108  1  0.32865526  0.33472157  0.49411290  1
  Cu  Cu109  1  0.49455757  0.83005136  0.75073930  1
  Cu  Cu110  1  -0.00121425  -0.00395699  -0.00417589  1
  Cu  Cu111  1  0.15984425  0.49012892  0.25005194  1
  Cu  Cu112  1  -0.00184792  0.66259691  0.50495007  1
  Cu  Cu113  1  0.33501248  0.68063883  0.50050952  1
  Cu  Cu114  1  0.15919744  0.82600886  0.74607295  1
  Se  Se115  1  0.07750174  0.07728948  0.05505158  1
  Se  Se116  1  0.08560748  0.09280693  0.55558000  1
  Se  Se117  1  0.08289079  0.40867599  0.06242531  1
  Se  Se118  1  0.06690011  0.41719583  0.56279640  1
  Se  Se119  1  0.08788318  0.75057296  0.04451637  1
  Se  Se120  1  0.08462080  0.74895804  0.55131448  1
  Se  Se121  1  0.41287066  0.07866880  0.05817825  1
  Se  Se122  1  0.41312990  0.08434934  0.56021010  1
  Se  Se123  1  0.40857392  0.40596959  0.05584509  1
  Se  Se124  1  0.41321571  0.41703924  0.54662813  1
  Se  Se125  1  0.41494534  0.74813667  0.05132868  1
  Se  Se126  1  0.42194516  0.75841768  0.55523047  1
  Se  Se127  1  0.75165110  0.08602969  0.05122931  1
  Se  Se128  1  0.75145841  0.08189012  0.54863386  1
  Se  Se129  1  0.75898614  0.42243929  0.05470189  1
  Se  Se130  1  0.74848657  0.41279289  0.55647848  1
  Se  Se131  1  0.75104525  0.75597534  0.05101495  1
  Se  Se132  1  0.74154931  0.73597152  0.55798686  1
  Se  Se133  1  0.23871762  0.23681740  0.05593413  1
  Se  Se134  1  0.24457802  0.25134936  0.54529866  1
  Se  Se135  1  0.25521831  0.58458318  0.05874442  1
  Se  Se136  1  0.25496437  0.59579085  0.55956842  1
  Se  Se137  1  0.24563086  0.90939333  0.05228503  1
  Se  Se138  1  0.25183063  0.92268567  0.55288744  1
  Se  Se139  1  0.58827872  0.25791441  0.05386399  1
  Se  Se140  1  0.58415747  0.24967437  0.55781026  1
  Se  Se141  1  0.59945711  0.58727770  0.06606007  1
  Se  Se142  1  0.57583896  0.57702963  0.54895303  1
  Se  Se143  1  0.57779518  0.91352710  0.05696874  1
  Se  Se144  1  0.58505383  0.91695743  0.54695629  1
  Se  Se145  1  0.91487876  0.25104848  0.05414380  1
  Se  Se146  1  0.90912756  0.24629589  0.55686500  1
  Se  Se147  1  0.91885470  0.58707450  0.05017769  1
  Se  Se148  1  0.91553849  0.58018525  0.55752855  1
  Se  Se149  1  0.91370042  0.91280816  0.04832680  1
  Se  Se150  1  0.92824094  0.92275150  0.56171268  1
  Se  Se151  1  0.07771957  0.25556542  0.45117784  1
  Se  Se152  1  0.08175187  0.24958040  0.95022881  1
  Se  Se153  1  0.07438277  0.58904748  0.43616657  1
  Se  Se154  1  0.06959239  0.58298261  0.93076034  1
  Se  Se155  1  0.08865600  0.91722356  0.44915452  1
  Se  Se156  1  0.08362903  0.91360381  0.94385503  1
  Se  Se157  1  0.40930290  0.25919130  0.43082941  1
  Se  Se158  1  0.43099022  0.24742526  0.95729431  1
  Se  Se159  1  0.41067301  0.58635236  0.45091636  1
  Se  Se160  1  0.41140272  0.58262543  0.94181971  1
  Se  Se161  1  0.42098240  0.92228702  0.44580419  1
  Se  Se162  1  0.41233270  0.91486525  0.94571232  1
  Se  Se163  1  0.75169691  0.24629358  0.44996640  1
  Se  Se164  1  0.75604583  0.25359026  0.94705438  1
  Se  Se165  1  0.74538021  0.57952108  0.44884597  1
  Se  Se166  1  0.75486846  0.58477547  0.94819374  1
  Se  Se167  1  0.75413147  0.91751755  0.43665326  1
  Se  Se168  1  0.74201541  0.91872178  0.94896721  1
  Se  Se169  1  0.25337408  0.08946501  0.44366612  1
  Se  Se170  1  0.24726263  0.08453693  0.95292016  1
  Se  Se171  1  0.24693200  0.41841466  0.43679218  1
  Se  Se172  1  0.25965827  0.40379940  0.94704680  1
  Se  Se173  1  0.25014835  0.76141693  0.44752473  1
  Se  Se174  1  0.24378240  0.74140343  0.93858189  1
  Se  Se175  1  0.59763983  0.08034861  0.43033614  1
  Se  Se176  1  0.58198144  0.08530953  0.95091879  1
  Se  Se177  1  0.57652177  0.40819906  0.44437925  1
  Se  Se178  1  0.59317945  0.41779077  0.94125858  1
  Se  Se179  1  0.58256414  0.76111210  0.45253153  1
  Se  Se180  1  0.57613519  0.74803990  0.95179313  1
  Se  Se181  1  0.91599063  0.08258766  0.45126799  1
  Se  Se182  1  0.91179577  0.08372697  0.95031718  1
  Se  Se183  1  0.90715283  0.42125235  0.45042822  1
  Se  Se184  1  0.92129404  0.41944951  0.93979067  1
  Se  Se185  1  0.92148168  0.73972533  0.43658469  1
  Se  Se186  1  0.91307185  0.75365252  0.94481421  1
  Se  Se187  1  0.24773213  0.24814067  0.30303609  1
  Se  Se188  1  0.25309616  0.24486144  0.81222300  1
  Se  Se189  1  0.23978449  0.57486550  0.30742496  1
  Se  Se190  1  0.25865951  0.58557358  0.79649896  1
  Se  Se191  1  0.25784026  0.92008887  0.30467107  1
  Se  Se192  1  0.23920739  0.90752214  0.80603706  1
  Se  Se193  1  0.55918350  0.22503606  0.29772546  1
  Se  Se194  1  0.59413480  0.25985349  0.80732773  1
  Se  Se195  1  0.58657025  0.58188534  0.31102407  1
  Se  Se196  1  0.57972640  0.57607541  0.81556158  1
  Se  Se197  1  0.58284065  0.91084204  0.30887113  1
  Se  Se198  1  0.57534936  0.91246917  0.80841720  1
  Se  Se199  1  0.91472243  0.25527741  0.30911621  1
  Se  Se200  1  0.92291298  0.25241702  0.80473212  1
  Se  Se201  1  0.90181858  0.56681927  0.30505488  1
  Se  Se202  1  0.91161250  0.58598538  0.79705253  1
  Se  Se203  1  0.91373672  0.90517919  0.30126432  1
  Se  Se204  1  0.90423115  0.91111665  0.80946648  1
  Se  Se205  1  0.08620380  0.08898235  0.31582530  1
  Se  Se206  1  0.09210472  0.09422686  0.81520467  1
  Se  Se207  1  0.07651754  0.40874276  0.30381986  1
  Se  Se208  1  0.10979534  0.43193204  0.80704508  1
  Se  Se209  1  0.09228141  0.75754090  0.30575570  1
  Se  Se210  1  0.07589905  0.74693988  0.80134959  1
  Se  Se211  1  0.42241696  0.08529367  0.29359633  1
  Se  Se212  1  0.42438395  0.09976480  0.81508581  1
  Se  Se213  1  0.41498612  0.42064244  0.29992192  1
  Se  Se214  1  0.42710373  0.42472543  0.81258152  1
  Se  Se215  1  0.43175516  0.74595789  0.31869395  1
  Se  Se216  1  0.41093802  0.74679119  0.80186201  1
  Se  Se217  1  0.75537046  0.08939560  0.31004700  1
  Se  Se218  1  0.75380761  0.09161510  0.81083036  1
  Se  Se219  1  0.72504733  0.39125290  0.31042514  1
  Se  Se220  1  0.75819447  0.41590073  0.79853214  1
  Se  Se221  1  0.74993097  0.74537348  0.29863790  1
  Se  Se222  1  0.75109978  0.75556841  0.81353074  1
  Se  Se223  1  0.25104740  0.08111459  0.19784437  1
  Se  Se224  1  0.25058669  0.09216113  0.69484208  1
  Se  Se225  1  0.24884301  0.40926932  0.20091302  1
  Se  Se226  1  0.24485545  0.42405038  0.68044861  1
  Se  Se227  1  0.24780143  0.75025627  0.18964749  1
  Se  Se228  1  0.25043226  0.74992667  0.69408910  1
  Se  Se229  1  0.57993410  0.09116248  0.18286566  1
  Se  Se230  1  0.57753228  0.09436015  0.69464743  1
  Se  Se231  1  0.58134551  0.41629765  0.19617971  1
  Se  Se232  1  0.58433068  0.41676388  0.69457694  1
  Se  Se233  1  0.58541314  0.74781214  0.19932172  1
  Se  Se234  1  0.57943177  0.75633530  0.68978423  1
  Se  Se235  1  0.90876443  0.09483549  0.19335900  1
  Se  Se236  1  0.91021987  0.08650333  0.69367079  1
  Se  Se237  1  0.91496249  0.41706716  0.19847384  1
  Se  Se238  1  0.92995306  0.40009553  0.69831219  1
  Se  Se239  1  0.91820898  0.74980995  0.18415997  1
  Se  Se240  1  0.91490585  0.75015465  0.70152581  1
  Se  Se241  1  0.07498950  0.24775651  0.20163845  1
  Se  Se242  1  0.08322901  0.25432330  0.69872469  1
  Se  Se243  1  0.08637308  0.57311022  0.18899254  1
  Se  Se244  1  0.08857528  0.58042717  0.70142315  1
  Se  Se245  1  0.09274378  0.91080870  0.18681157  1
  Se  Se246  1  0.08671364  0.91721339  0.68922078  1
  Se  Se247  1  0.40174379  0.26289384  0.19370619  1
  Se  Se248  1  0.42350088  0.24999988  0.69257810  1
  Se  Se249  1  0.42453522  0.57729851  0.18771541  1
  Se  Se250  1  0.42020506  0.58729532  0.69634370  1
  Se  Se251  1  0.41373633  0.91102649  0.20032382  1
  Se  Se252  1  0.42290882  0.91715250  0.68970326  1
  Se  Se253  1  0.74620479  0.25750907  0.19594771  1
  Se  Se254  1  0.74797964  0.25165807  0.69673034  1
  Se  Se255  1  0.74885602  0.59290356  0.19800354  1
  Se  Se256  1  0.75296950  0.57453634  0.68877464  1
  Se  Se257  1  0.75981521  0.91424275  0.18573103  1
  Se  Se258  1  0.76225740  0.90102917  0.69387481  1
