# generated using pymatgen
data_In86Cu29Se144
_symmetry_space_group_name_H-M   'P 1'
_cell_length_a   17.56184832
_cell_length_b   17.56056104
_cell_length_c   23.42025828
_cell_angle_alpha   89.97814925
_cell_angle_beta   90.00222162
_cell_angle_gamma   90.02111727
_symmetry_Int_Tables_number   1
_chemical_formula_structural   In86Cu29Se144
_chemical_formula_sum   'In86 Cu29 Se144'
_cell_volume   7222.71083031
_cell_formula_units_Z   1
loop_
 _symmetry_equiv_pos_site_id
 _symmetry_equiv_pos_as_xyz
  1  'x, y, z'
loop_
 _atom_site_type_symbol
 _atom_site_label
 _atom_site_symmetry_multiplicity
 _atom_site_fract_x
 _atom_site_fract_y
 _atom_site_fract_z
 _atom_site_occupancy
  In  In0  1  0.01513681  0.15766714  0.13183449  1
  In  In1  1  -0.00181689  0.17760087  0.61731728  1
  In  In2  1  0.00257276  0.50253040  0.12944268  1
  In  In3  1  -0.01643720  0.50966170  0.62507243  1
  In  In4  1  0.00202916  0.82263164  0.13467874  1
  In  In5  1  -0.00365621  0.84450906  0.62002698  1
  In  In6  1  0.31843540  0.18028272  0.13512946  1
  In  In7  1  0.34186121  0.14811670  0.62233656  1
  In  In8  1  0.33104177  0.50014748  0.13124784  1
  In  In9  1  0.35033480  0.50792681  0.62208914  1
  In  In10  1  0.33510329  0.83199118  0.12859906  1
  In  In11  1  0.33676972  0.81329276  0.63024044  1
  In  In12  1  0.68038932  0.17184372  0.12770400  1
  In  In13  1  0.66911362  0.16471693  0.61883480  1
  In  In14  1  0.65770213  0.49922671  0.11874991  1
  In  In15  1  0.68207377  0.52125046  0.60309353  1
  In  In16  1  0.66219202  0.83786057  0.12110152  1
  In  In17  1  0.67277901  0.83521977  0.61930092  1
  In  In18  1  0.16284164  -0.00664654  0.36215331  1
  In  In19  1  0.15739708  0.00028246  0.90282132  1
  In  In20  1  0.16146401  0.34074854  0.34971975  1
  In  In21  1  0.16109437  0.33809844  0.89408393  1
  In  In22  1  0.17022556  0.66126616  0.35608163  1
  In  In23  1  0.17752173  0.65864178  0.88761425  1
  In  In24  1  0.49938065  -0.00500783  0.37831334  1
  In  In25  1  0.49963676  -0.01293518  0.87328732  1
  In  In26  1  0.50419338  0.33114437  0.37125493  1
  In  In27  1  0.51128990  0.34534724  0.87777359  1
  In  In28  1  0.49381999  0.66666612  0.38614448  1
  In  In29  1  0.49840931  0.67383507  0.87603589  1
  In  In30  1  0.84198779  -0.00361976  0.37824706  1
  In  In31  1  0.82912327  -0.00289905  0.86790547  1
  In  In32  1  0.83050955  0.33736331  0.37353841  1
  In  In33  1  0.84115552  0.32578512  0.87671442  1
  In  In34  1  0.83046640  0.66875788  0.38432532  1
  In  In35  1  0.82171041  0.66063310  0.87167809  1
  In  In36  1  -0.00489813  0.16681024  0.36689628  1
  In  In37  1  -0.00365626  0.16966839  0.88376429  1
  In  In38  1  -0.00914680  0.49731708  0.35910301  1
  In  In39  1  -0.00267859  0.50202345  0.88855550  1
  In  In40  1  -0.02240814  0.82308512  0.35175449  1
  In  In41  1  0.00432160  0.84219693  0.88531040  1
  In  In42  1  0.34343014  0.16674082  0.36537422  1
  In  In43  1  0.33019284  0.15563159  0.87984480  1
  In  In44  1  0.33576120  0.50395614  0.35780525  1
  In  In45  1  0.32624297  0.51129366  0.88751981  1
  In  In46  1  0.33648756  0.83179388  0.36758444  1
  In  In47  1  0.34334018  0.82711327  0.88454218  1
  In  In48  1  0.65821438  0.17226541  0.38128852  1
  In  In49  1  0.68057384  0.15857608  0.86701531  1
  In  In50  1  0.67532577  0.49902293  0.38698356  1
  In  In51  1  0.65725044  0.50745409  0.88384659  1
  In  In52  1  0.66238465  0.82215303  0.39317313  1
  In  In53  1  0.66328258  0.81436067  0.85823267  1
  In  In54  1  0.16341654  0.00243280  0.12177892  1
  In  In55  1  0.16705844  -0.00377348  0.62573255  1
  In  In56  1  0.16855299  0.33834309  0.12955498  1
  In  In57  1  0.16318140  0.33458887  0.62035727  1
  In  In58  1  0.16715191  0.66423467  0.13229403  1
  In  In59  1  0.17494910  0.67552986  0.63252463  1
  In  In60  1  0.49728270  -0.01933701  0.12282116  1
  In  In61  1  0.51653969  0.01243349  0.61344321  1
  In  In62  1  0.48626671  0.34470245  0.13858268  1
  In  In63  1  0.51532684  0.34860723  0.61027779  1
  In  In64  1  0.49033607  0.65715685  0.12153853  1
  In  In65  1  0.50234614  0.66771751  0.62049667  1
  In  In66  1  0.83844386  0.00062600  0.13091099  1
  In  In67  1  0.82050791  -0.00802669  0.61430470  1
  In  In68  1  0.82556417  0.34441472  0.13474805  1
  In  In69  1  0.82836043  0.33326703  0.61540914  1
  In  In70  1  0.86109307  0.66375266  0.13574040  1
  In  In71  1  0.81911292  0.66300493  0.61721393  1
  In  In72  1  0.16418933  0.83513153  0.49969818  1
  In  In73  1  0.49526131  0.17541725  0.00182877  1
  In  In74  1  0.83738840  0.16366367  -0.00093843  1
  In  In75  1  0.66590617  0.00044998  0.25325466  1
  In  In76  1  0.33968092  0.33857332  0.74836563  1
  In  In77  1  0.83412554  0.82669897  0.00332107  1
  In  In78  1  0.33777186  -0.01485989  0.75483040  1
  In  In79  1  0.67459121  0.33966524  0.74381139  1
  In  In80  1  -0.00763036  0.33367600  0.75692971  1
  In  In81  1  0.16952611  0.16984865  0.48349270  1
  In  In82  1  0.66823208  0.66632926  0.26180148  1
  In  In83  1  0.16593651  0.49797039  0.48006227  1
  In  In84  1  -0.00881934  -0.00374715  0.75074743  1
  In  In85  1  -0.01053520  0.66574906  0.75205076  1
  Cu  Cu86  1  0.17258741  0.82468473  0.76354360  1
  Cu  Cu87  1  0.33141127  0.33968537  0.01044598  1
  Cu  Cu88  1  0.49716309  0.82331789  0.25187834  1
  Cu  Cu89  1  -0.01035918  0.34525226  0.49191040  1
  Cu  Cu90  1  0.33092233  0.66044244  0.49744135  1
  Cu  Cu91  1  -0.00146943  0.33071031  0.01047323  1
  Cu  Cu92  1  0.00627878  0.66268404  0.00768128  1
  Cu  Cu93  1  0.50305215  0.49566553  0.24708462  1
  Cu  Cu94  1  0.66572683  0.32884419  0.49531019  1
  Cu  Cu95  1  -0.01123466  0.66925003  0.49468522  1
  Cu  Cu96  1  0.50345334  0.15986109  0.25331066  1
  Cu  Cu97  1  0.34177251  0.32310654  0.49120759  1
  Cu  Cu98  1  0.33553158  0.67086843  0.00835810  1
  Cu  Cu99  1  -0.00461163  0.00404781  0.49210017  1
  Cu  Cu100  1  0.66283243  0.34226566  0.00639820  1
  Cu  Cu101  1  0.16697509  0.16322484  0.24518402  1
  Cu  Cu102  1  0.83516704  0.17769884  0.25296853  1
  Cu  Cu103  1  0.66728951  0.67052769  -0.00215087  1
  Cu  Cu104  1  0.49949896  0.51844852  0.74942980  1
  Cu  Cu105  1  0.16648456  0.16663731  0.76257747  1
  Cu  Cu106  1  0.83115671  0.50544256  0.25357347  1
  Cu  Cu107  1  0.50528855  0.17112305  0.74023774  1
  Cu  Cu108  1  0.32960237  0.00525246  0.00730208  1
  Cu  Cu109  1  0.17421533  0.50643159  0.75829632  1
  Cu  Cu110  1  0.50721770  0.83068410  0.74738724  1
  Cu  Cu111  1  0.66922638  0.00252959  0.49746555  1
  Cu  Cu112  1  0.34779071  -0.00739431  0.49388779  1
  Cu  Cu113  1  0.17191301  0.83712286  0.24244219  1
  Cu  Cu114  1  0.66206757  -0.00678775  -0.00618317  1
  Se  Se115  1  0.08080682  0.08421376  0.05179212  1
  Se  Se116  1  0.08357566  0.07886516  0.55212756  1
  Se  Se117  1  0.08280546  0.41770043  0.05970420  1
  Se  Se118  1  0.07453064  0.41977030  0.55361329  1
  Se  Se119  1  0.08471328  0.74879750  0.06139383  1
  Se  Se120  1  0.07521475  0.73807147  0.55910473  1
  Se  Se121  1  0.41281117  0.08521265  0.06637248  1
  Se  Se122  1  0.42336131  0.08561864  0.54458188  1
  Se  Se123  1  0.41925038  0.42169170  0.05895289  1
  Se  Se124  1  0.40968858  0.41415587  0.54920751  1
  Se  Se125  1  0.42219761  0.75648629  0.05690568  1
  Se  Se126  1  0.41185448  0.74660127  0.55077732  1
  Se  Se127  1  0.74158217  0.06956136  0.05568603  1
  Se  Se128  1  0.75395078  0.08943730  0.54650510  1
  Se  Se129  1  0.75400117  0.42101076  0.05608805  1
  Se  Se130  1  0.75087589  0.41589980  0.54466979  1
  Se  Se131  1  0.74815874  0.73623665  0.06749440  1
  Se  Se132  1  0.74950380  0.75202728  0.54694665  1
  Se  Se133  1  0.24579259  0.25218732  0.05593273  1
  Se  Se134  1  0.25808029  0.25080338  0.55655143  1
  Se  Se135  1  0.25258342  0.58590638  0.06097432  1
  Se  Se136  1  0.24522740  0.58363461  0.55658089  1
  Se  Se137  1  0.25240512  0.91527089  0.05921601  1
  Se  Se138  1  0.26295858  0.92130287  0.55878730  1
  Se  Se139  1  0.58652102  0.25816170  0.06615271  1
  Se  Se140  1  0.58327673  0.24553667  0.55023055  1
  Se  Se141  1  0.58174031  0.58762609  0.05078447  1
  Se  Se142  1  0.55275982  0.55464870  0.55956459  1
  Se  Se143  1  0.57912262  0.90999536  0.04691124  1
  Se  Se144  1  0.58580118  0.91579323  0.54906306  1
  Se  Se145  1  0.91509829  0.25108410  0.06819315  1
  Se  Se146  1  0.91571299  0.25417351  0.54650515  1
  Se  Se147  1  0.91664516  0.58010094  0.05544670  1
  Se  Se148  1  0.90916687  0.58241211  0.54810808  1
  Se  Se149  1  0.92229387  0.91778758  0.06200216  1
  Se  Se150  1  0.91567912  0.91859036  0.54695090  1
  Se  Se151  1  0.07852550  0.26871836  0.43366166  1
  Se  Se152  1  0.07914845  0.24569698  0.95518686  1
  Se  Se153  1  0.07295905  0.59623528  0.43183249  1
  Se  Se154  1  0.08866630  0.57818922  0.95322123  1
  Se  Se155  1  0.07565370  0.91911945  0.43572422  1
  Se  Se156  1  0.08552716  0.90274912  0.96318734  1
  Se  Se157  1  0.42514176  0.24000460  0.43974863  1
  Se  Se158  1  0.40534312  0.26564111  0.93913789  1
  Se  Se159  1  0.40548554  0.57080808  0.44187655  1
  Se  Se160  1  0.41914021  0.59222135  0.94887179  1
  Se  Se161  1  0.42256002  0.90002683  0.44281625  1
  Se  Se162  1  0.41416605  0.92578528  0.94986680  1
  Se  Se163  1  0.75448655  0.24893332  0.44339016  1
  Se  Se164  1  0.73698184  0.25564168  0.94558134  1
  Se  Se165  1  0.73127527  0.60547724  0.45069026  1
  Se  Se166  1  0.75163892  0.58293895  0.94968190  1
  Se  Se167  1  0.75198687  0.91859172  0.44470116  1
  Se  Se168  1  0.74428234  0.91157346  0.93746755  1
  Se  Se169  1  0.25892118  0.06819115  0.43508690  1
  Se  Se170  1  0.24747210  0.09326827  0.95731809  1
  Se  Se171  1  0.25753469  0.39995403  0.42966428  1
  Se  Se172  1  0.24747613  0.42408534  0.95573380  1
  Se  Se173  1  0.24823702  0.74014230  0.43822323  1
  Se  Se174  1  0.25236688  0.75329178  0.95232995  1
  Se  Se175  1  0.58016513  0.08091468  0.44536038  1
  Se  Se176  1  0.58635002  0.08513730  0.93984996  1
  Se  Se177  1  0.58075485  0.41363200  0.44451057  1
  Se  Se178  1  0.57649005  0.42482143  0.95565738  1
  Se  Se179  1  0.58260094  0.73529337  0.45714824  1
  Se  Se180  1  0.58797974  0.75612880  0.94276922  1
  Se  Se181  1  0.91497660  0.09424533  0.44311406  1
  Se  Se182  1  0.92160141  0.06353371  0.94377787  1
  Se  Se183  1  0.91042039  0.43173863  0.43858068  1
  Se  Se184  1  0.91663655  0.40667372  0.94925074  1
  Se  Se185  1  0.91725791  0.76381128  0.44292866  1
  Se  Se186  1  0.92374863  0.73457089  0.94151471  1
  Se  Se187  1  0.25165436  0.24440894  0.30004345  1
  Se  Se188  1  0.24778001  0.25325245  0.81520984  1
  Se  Se189  1  0.23694417  0.56493417  0.29055233  1
  Se  Se190  1  0.25747123  0.59003860  0.80867200  1
  Se  Se191  1  0.25703834  0.91701202  0.29906337  1
  Se  Se192  1  0.24005205  0.91671378  0.82292834  1
  Se  Se193  1  0.58728665  0.24617810  0.30198669  1
  Se  Se194  1  0.58057610  0.24789831  0.80739083  1
  Se  Se195  1  0.57545364  0.57293065  0.31461284  1
  Se  Se196  1  0.58557559  0.59055301  0.80908264  1
  Se  Se197  1  0.58262215  0.90068587  0.31015379  1
  Se  Se198  1  0.58590181  0.91776435  0.80151887  1
  Se  Se199  1  0.92046799  0.26288401  0.30331988  1
  Se  Se200  1  0.90520655  0.22709793  0.80434655  1
  Se  Se201  1  0.90741718  0.59756440  0.30543702  1
  Se  Se202  1  0.91019027  0.56454895  0.80907601  1
  Se  Se203  1  0.92745321  0.94078127  0.29881372  1
  Se  Se204  1  0.90903964  0.89490647  0.80684598  1
  Se  Se205  1  0.08039464  0.08410780  0.30028723  1
  Se  Se206  1  0.08691572  0.08097961  0.81669809  1
  Se  Se207  1  0.09230445  0.44160045  0.29092783  1
  Se  Se208  1  0.09129229  0.42274496  0.81271988  1
  Se  Se209  1  0.08783472  0.75634188  0.29784723  1
  Se  Se210  1  0.08374367  0.74728344  0.81693975  1
  Se  Se211  1  0.42168201  0.07141868  0.30268745  1
  Se  Se212  1  0.42581425  0.09220926  0.80455078  1
  Se  Se213  1  0.42019401  0.40917506  0.29978115  1
  Se  Se214  1  0.42430601  0.43157534  0.81049818  1
  Se  Se215  1  0.41758887  0.73707369  0.30657036  1
  Se  Se216  1  0.41814601  0.75759900  0.80438187  1
  Se  Se217  1  0.75497021  0.09238248  0.31121008  1
  Se  Se218  1  0.75229949  0.07526542  0.79611218  1
  Se  Se219  1  0.74622476  0.42415475  0.30743262  1
  Se  Se220  1  0.75349862  0.41972318  0.81817800  1
  Se  Se221  1  0.75414506  0.76643363  0.31323216  1
  Se  Se222  1  0.75883402  0.74281876  0.79507806  1
  Se  Se223  1  0.25072006  0.07657904  0.19521564  1
  Se  Se224  1  0.24401241  0.08634023  0.69881458  1
  Se  Se225  1  0.26841651  0.39905017  0.19655898  1
  Se  Se226  1  0.24358001  0.42553432  0.68917532  1
  Se  Se227  1  0.25636681  0.74652497  0.19810861  1
  Se  Se228  1  0.25654798  0.74512037  0.70846419  1
  Se  Se229  1  0.57869249  0.08494855  0.18508092  1
  Se  Se230  1  0.58949522  0.08491199  0.69278252  1
  Se  Se231  1  0.59227401  0.41570554  0.19616522  1
  Se  Se232  1  0.57791741  0.42994032  0.69206335  1
  Se  Se233  1  0.58023979  0.74855567  0.19112039  1
  Se  Se234  1  0.58613113  0.75105612  0.68769086  1
  Se  Se235  1  0.91230245  0.09201175  0.19670435  1
  Se  Se236  1  0.91676745  0.08536190  0.68092026  1
  Se  Se237  1  0.91566757  0.42249304  0.19998816  1
  Se  Se238  1  0.90294085  0.42045107  0.69334892  1
  Se  Se239  1  0.90542421  0.76461150  0.20664923  1
  Se  Se240  1  0.91237460  0.75411711  0.68324346  1
  Se  Se241  1  0.08347735  0.25379651  0.19823409  1
  Se  Se242  1  0.09127988  0.24489109  0.69695383  1
  Se  Se243  1  0.06198001  0.60415849  0.19601345  1
  Se  Se244  1  0.08952814  0.57656904  0.69309276  1
  Se  Se245  1  0.08346699  0.91967117  0.19366822  1
  Se  Se246  1  0.09507613  0.90250359  0.69808047  1
  Se  Se247  1  0.41853362  0.24445587  0.20143347  1
  Se  Se248  1  0.42429509  0.25040515  0.68181855  1
  Se  Se249  1  0.41835070  0.58329361  0.19948153  1
  Se  Se250  1  0.41198453  0.59686493  0.69630944  1
  Se  Se251  1  0.41879895  0.91356815  0.20075290  1
  Se  Se252  1  0.42830239  0.91341227  0.68377149  1
  Se  Se253  1  0.74562901  0.25699522  0.20297682  1
  Se  Se254  1  0.76222552  0.24119875  0.69101117  1
  Se  Se255  1  0.75046059  0.58264216  0.19001611  1
  Se  Se256  1  0.75032041  0.57596343  0.69062409  1
  Se  Se257  1  0.75369653  0.90693020  0.19401597  1
  Se  Se258  1  0.74742540  0.92089642  0.69180237  1
