# generated using pymatgen
data_In86Cu29Se144
_symmetry_space_group_name_H-M   'P 1'
_cell_length_a   17.58112738
_cell_length_b   17.57628921
_cell_length_c   23.44231885
_cell_angle_alpha   90.01999930
_cell_angle_beta   89.99140648
_cell_angle_gamma   90.00574440
_symmetry_Int_Tables_number   1
_chemical_formula_structural   In86Cu29Se144
_chemical_formula_sum   'In86 Cu29 Se144'
_cell_volume   7243.93334942
_cell_formula_units_Z   1
loop_
 _symmetry_equiv_pos_site_id
 _symmetry_equiv_pos_as_xyz
  1  'x, y, z'
loop_
 _atom_site_type_symbol
 _atom_site_label
 _atom_site_symmetry_multiplicity
 _atom_site_fract_x
 _atom_site_fract_y
 _atom_site_fract_z
 _atom_site_occupancy
  In  In0  1  0.00049659  0.14751148  0.12665717  1
  In  In1  1  -0.00166625  0.16054062  0.62260645  1
  In  In2  1  -0.00465337  0.51596561  0.11947525  1
  In  In3  1  -0.00334594  0.51179855  0.62668161  1
  In  In4  1  0.01200548  0.84353185  0.10593520  1
  In  In5  1  -0.00032606  0.83379288  0.63811457  1
  In  In6  1  0.32660122  0.17260769  0.12412497  1
  In  In7  1  0.32611811  0.15438534  0.61790182  1
  In  In8  1  0.33485940  0.48757153  0.12767566  1
  In  In9  1  0.34377621  0.49689429  0.62597434  1
  In  In10  1  0.34491085  0.84990567  0.10494494  1
  In  In11  1  0.33739165  0.83341887  0.63120623  1
  In  In12  1  0.66932608  0.16910019  0.13318611  1
  In  In13  1  0.66990258  0.16100891  0.61901370  1
  In  In14  1  0.67499638  0.49606874  0.13070660  1
  In  In15  1  0.65948666  0.49177883  0.61907843  1
  In  In16  1  0.65448479  0.82954601  0.11815280  1
  In  In17  1  0.66047325  0.85505451  0.62490150  1
  In  In18  1  0.17939162  0.01124616  0.36402173  1
  In  In19  1  0.16717074  0.00865533  0.87354235  1
  In  In20  1  0.16774986  0.30929282  0.37610581  1
  In  In21  1  0.17120440  0.32512165  0.88457671  1
  In  In22  1  0.16066668  0.66942710  0.37275476  1
  In  In23  1  0.17701816  0.67619176  0.86791832  1
  In  In24  1  0.48732834  0.01380253  0.39423666  1
  In  In25  1  0.49424156  -0.00407712  0.87137251  1
  In  In26  1  0.50451502  0.32666053  0.37029449  1
  In  In27  1  0.50670929  0.31847418  0.86994236  1
  In  In28  1  0.50694777  0.65351343  0.38363516  1
  In  In29  1  0.49821395  0.68644182  0.87387178  1
  In  In30  1  0.84152942  0.00026425  0.37302049  1
  In  In31  1  0.82326835  -0.01237586  0.86851299  1
  In  In32  1  0.82144747  0.34285446  0.38242474  1
  In  In33  1  0.82986287  0.34159810  0.87429612  1
  In  In34  1  0.81563129  0.67045502  0.37439900  1
  In  In35  1  0.84456383  0.66596498  0.88378816  1
  In  In36  1  0.01017244  0.15614668  0.38354205  1
  In  In37  1  0.01863942  0.16063948  0.87491565  1
  In  In38  1  -0.00461727  0.48817054  0.37856360  1
  In  In39  1  -0.01544704  0.49751462  0.87778962  1
  In  In40  1  -0.01304892  0.84212126  0.37145720  1
  In  In41  1  -0.00075514  0.83497821  0.87451393  1
  In  In42  1  0.33753360  0.16051337  0.37213659  1
  In  In43  1  0.33230845  0.15347485  0.87475769  1
  In  In44  1  0.35368025  0.49489718  0.37688704  1
  In  In45  1  0.32092262  0.50347207  0.87359158  1
  In  In46  1  0.33393134  0.85040592  0.36897783  1
  In  In47  1  0.33562708  0.84205957  0.87796133  1
  In  In48  1  0.64626495  0.18157664  0.39149506  1
  In  In49  1  0.66012772  0.16116189  0.86181457  1
  In  In50  1  0.66668080  0.49782597  0.37524199  1
  In  In51  1  0.67951961  0.50119631  0.87193182  1
  In  In52  1  0.66439740  0.81997332  0.37204758  1
  In  In53  1  0.65968787  0.85121191  0.88774841  1
  In  In54  1  0.16715280  -0.00098957  0.11724621  1
  In  In55  1  0.16350618  0.01558344  0.64125492  1
  In  In56  1  0.18859574  0.32223319  0.12342019  1
  In  In57  1  0.17768155  0.32127060  0.62422443  1
  In  In58  1  0.16070473  0.68375535  0.11447691  1
  In  In59  1  0.16205071  0.67414977  0.63970070  1
  In  In60  1  0.50254716  -0.01151287  0.12432793  1
  In  In61  1  0.50120677  -0.00082219  0.61931883  1
  In  In62  1  0.49831474  0.32929760  0.13675803  1
  In  In63  1  0.50870845  0.34052375  0.61791540  1
  In  In64  1  0.49999458  0.68306008  0.12516170  1
  In  In65  1  0.49504454  0.66316413  0.62096530  1
  In  In66  1  0.83955544  0.00550151  0.12481358  1
  In  In67  1  0.82383611  0.01074760  0.63466125  1
  In  In68  1  0.82113596  0.33722606  0.12896044  1
  In  In69  1  0.82208266  0.32098134  0.61640441  1
  In  In70  1  0.83393139  0.66117747  0.11494238  1
  In  In71  1  0.84225864  0.67177279  0.62677867  1
  In  In72  1  0.17192979  0.49120684  0.51090345  1
  In  In73  1  0.83243192  0.16561188  0.00512773  1
  In  In74  1  0.00023229  0.32939078  0.25530718  1
  In  In75  1  0.65671975  0.00585776  0.25527335  1
  In  In76  1  0.33595529  0.66566238  0.24261368  1
  In  In77  1  0.66797857  0.67383770  0.75389016  1
  In  In78  1  0.16958461  0.83567230  0.50078072  1
  In  In79  1  0.82805603  0.83501002  0.50339908  1
  In  In80  1  0.33727181  0.33109732  0.75235214  1
  In  In81  1  0.50281026  0.50003977  0.00824232  1
  In  In82  1  0.16343623  0.50261501  0.00273619  1
  In  In83  1  0.49408242  0.15952640  -0.00148808  1
  In  In84  1  -0.00171849  0.67276002  0.23888986  1
  In  In85  1  -0.00332335  0.33136981  0.75023879  1
  Cu  Cu86  1  0.16005599  0.50425289  0.75460894  1
  Cu  Cu87  1  0.33970277  0.32600305  0.49739695  1
  Cu  Cu88  1  0.66553998  0.33361340  0.49817363  1
  Cu  Cu89  1  0.50558291  0.16664203  0.74167478  1
  Cu  Cu90  1  -0.00048149  0.33468079  0.00024213  1
  Cu  Cu91  1  0.33367179  0.67119769  -0.00439339  1
  Cu  Cu92  1  0.51307238  0.49618760  0.25609845  1
  Cu  Cu93  1  -0.00815160  0.32705174  0.49982509  1
  Cu  Cu94  1  0.33267425  0.00242886  0.49896116  1
  Cu  Cu95  1  0.49790020  0.83261072  0.24758548  1
  Cu  Cu96  1  0.82944464  0.49929368  0.75248142  1
  Cu  Cu97  1  0.66272407  0.66070631  0.49941557  1
  Cu  Cu98  1  0.83082229  0.83940427  0.24693331  1
  Cu  Cu99  1  0.49704618  0.84309407  0.75148623  1
  Cu  Cu100  1  0.17753182  0.49552001  0.24641453  1
  Cu  Cu101  1  0.49928735  0.50498683  0.74320016  1
  Cu  Cu102  1  0.82892634  0.17220484  0.25421122  1
  Cu  Cu103  1  0.16348540  0.84557752  0.23844509  1
  Cu  Cu104  1  0.00019907  -0.00047080  -0.00464830  1
  Cu  Cu105  1  0.17105882  0.84068133  0.75794679  1
  Cu  Cu106  1  0.66919468  0.33542215  0.00327381  1
  Cu  Cu107  1  -0.00418689  0.65950813  0.50399983  1
  Cu  Cu108  1  0.83536058  0.16264196  0.74438867  1
  Cu  Cu109  1  0.16851390  0.15739206  0.24890353  1
  Cu  Cu110  1  0.83665415  0.83228014  0.75423751  1
  Cu  Cu111  1  0.00410981  -0.00164224  0.50348792  1
  Cu  Cu112  1  0.33886131  0.67068222  0.50380900  1
  Cu  Cu113  1  0.67536230  0.67045394  -0.00470994  1
  Cu  Cu114  1  0.83168984  0.50699966  0.25160568  1
  Se  Se115  1  0.08220973  0.08418459  0.04912219  1
  Se  Se116  1  0.08937322  0.07930579  0.55744766  1
  Se  Se117  1  0.07895218  0.40874410  0.06628677  1
  Se  Se118  1  0.07200422  0.40339566  0.56528394  1
  Se  Se119  1  0.05786290  0.72838644  0.04567287  1
  Se  Se120  1  0.07517386  0.74489762  0.55965996  1
  Se  Se121  1  0.40683128  0.07228934  0.06008360  1
  Se  Se122  1  0.41983634  0.08597406  0.54970932  1
  Se  Se123  1  0.41251930  0.40053177  0.05637694  1
  Se  Se124  1  0.41489077  0.41621355  0.55114016  1
  Se  Se125  1  0.42337569  0.75121806  0.04653202  1
  Se  Se126  1  0.41801858  0.75715890  0.55676208  1
  Se  Se127  1  0.73558083  0.07692402  0.05957721  1
  Se  Se128  1  0.75683694  0.07831508  0.55295463  1
  Se  Se129  1  0.75276831  0.42065067  0.05342743  1
  Se  Se130  1  0.75004086  0.41730666  0.55139664  1
  Se  Se131  1  0.75083993  0.75436980  0.05446196  1
  Se  Se132  1  0.73713212  0.74310222  0.56347786  1
  Se  Se133  1  0.24379259  0.23731961  0.04541455  1
  Se  Se134  1  0.25123892  0.24560884  0.54838474  1
  Se  Se135  1  0.26256717  0.59083585  0.06144341  1
  Se  Se136  1  0.25239657  0.59606005  0.56428486  1
  Se  Se137  1  0.22258566  0.88961550  0.05416383  1
  Se  Se138  1  0.25205214  0.92632920  0.56333837  1
  Se  Se139  1  0.58689049  0.25338690  0.05888415  1
  Se  Se140  1  0.58483533  0.24885166  0.55287967  1
  Se  Se141  1  0.59524176  0.59432763  0.06108004  1
  Se  Se142  1  0.57759575  0.57905941  0.55357405  1
  Se  Se143  1  0.57994774  0.91658234  0.04915960  1
  Se  Se144  1  0.58412566  0.92110274  0.54702583  1
  Se  Se145  1  0.92282270  0.25665213  0.06654104  1
  Se  Se146  1  0.91337531  0.23996677  0.55372287  1
  Se  Se147  1  0.91948220  0.58602285  0.04381318  1
  Se  Se148  1  0.90763837  0.58001151  0.55396365  1
  Se  Se149  1  0.91120749  0.92376568  0.04999389  1
  Se  Se150  1  0.92350584  0.91928284  0.56323388  1
  Se  Se151  1  0.08377714  0.24645328  0.45291135  1
  Se  Se152  1  0.08189373  0.24839054  0.95103756  1
  Se  Se153  1  0.08204057  0.58325464  0.44591334  1
  Se  Se154  1  0.08408260  0.58549475  0.93287621  1
  Se  Se155  1  0.08068243  0.92247316  0.43692306  1
  Se  Se156  1  0.08514604  0.91971982  0.94073373  1
  Se  Se157  1  0.42028854  0.24502547  0.44047144  1
  Se  Se158  1  0.40893302  0.25693338  0.93952541  1
  Se  Se159  1  0.41679967  0.57988990  0.45310836  1
  Se  Se160  1  0.41467914  0.58604894  0.94027011  1
  Se  Se161  1  0.41173775  0.90949896  0.45105210  1
  Se  Se162  1  0.42397549  0.91667110  0.94718582  1
  Se  Se163  1  0.75338172  0.24804884  0.45007316  1
  Se  Se164  1  0.74089496  0.25062711  0.93997844  1
  Se  Se165  1  0.74987813  0.58137726  0.44630677  1
  Se  Se166  1  0.75343629  0.58034198  0.94557267  1
  Se  Se167  1  0.74461907  0.91811356  0.43588284  1
  Se  Se168  1  0.75831299  0.91930707  0.95179894  1
  Se  Se169  1  0.24827321  0.08451211  0.44416142  1
  Se  Se170  1  0.24803898  0.08593723  0.94793081  1
  Se  Se171  1  0.25469601  0.40840508  0.43949799  1
  Se  Se172  1  0.26123966  0.41106803  0.94978404  1
  Se  Se173  1  0.25777185  0.74292387  0.43909931  1
  Se  Se174  1  0.24973688  0.75409951  0.94405723  1
  Se  Se175  1  0.59317246  0.07334824  0.45456722  1
  Se  Se176  1  0.59140280  0.07836803  0.93938306  1
  Se  Se177  1  0.58153060  0.41407008  0.44149239  1
  Se  Se178  1  0.58810827  0.41194288  0.94012821  1
  Se  Se179  1  0.58255085  0.74874561  0.44770548  1
  Se  Se180  1  0.58456322  0.75091842  0.94790190  1
  Se  Se181  1  0.91806724  0.07785158  0.44840997  1
  Se  Se182  1  0.91773567  0.08200748  0.93758370  1
  Se  Se183  1  0.91283922  0.41840654  0.45184891  1
  Se  Se184  1  0.91081276  0.41328435  0.95022263  1
  Se  Se185  1  0.92120827  0.74264697  0.44211860  1
  Se  Se186  1  0.91152406  0.76434723  0.94686421  1
  Se  Se187  1  0.25141373  0.24253150  0.30157961  1
  Se  Se188  1  0.24234990  0.24316015  0.80701033  1
  Se  Se189  1  0.24925677  0.57813924  0.31089176  1
  Se  Se190  1  0.25332088  0.58618123  0.79867568  1
  Se  Se191  1  0.25127169  0.92042421  0.29459088  1
  Se  Se192  1  0.25610660  0.92514752  0.80727959  1
  Se  Se193  1  0.58738873  0.24244874  0.30320093  1
  Se  Se194  1  0.58835390  0.25326807  0.79283774  1
  Se  Se195  1  0.58928282  0.58804676  0.30595118  1
  Se  Se196  1  0.57510127  0.58076773  0.81119266  1
  Se  Se197  1  0.57116798  0.91108315  0.31407262  1
  Se  Se198  1  0.58727316  0.91846613  0.80493074  1
  Se  Se199  1  0.91131781  0.24508735  0.31861831  1
  Se  Se200  1  0.90931823  0.24029220  0.81238550  1
  Se  Se201  1  0.91766274  0.58362720  0.31017039  1
  Se  Se202  1  0.91225794  0.58242028  0.80515251  1
  Se  Se203  1  0.91703664  0.92253086  0.29613368  1
  Se  Se204  1  0.92110767  0.92016184  0.80237118  1
  Se  Se205  1  0.07731003  0.08135365  0.30192621  1
  Se  Se206  1  0.08414127  0.08201306  0.79845100  1
  Se  Se207  1  0.09670889  0.42144155  0.31082049  1
  Se  Se208  1  0.08903686  0.41766766  0.81495571  1
  Se  Se209  1  0.08863874  0.76448883  0.30273607  1
  Se  Se210  1  0.08398485  0.75344689  0.80394610  1
  Se  Se211  1  0.41278384  0.06481256  0.30879422  1
  Se  Se212  1  0.42441538  0.08997053  0.80232468  1
  Se  Se213  1  0.42126013  0.41396669  0.30137688  1
  Se  Se214  1  0.42627105  0.42590699  0.81166402  1
  Se  Se215  1  0.42079787  0.74929816  0.31093673  1
  Se  Se216  1  0.41306885  0.75754944  0.80273134  1
  Se  Se217  1  0.74920372  0.09249833  0.31547663  1
  Se  Se218  1  0.75139654  0.08023075  0.79969640  1
  Se  Se219  1  0.75199765  0.41911218  0.30363453  1
  Se  Se220  1  0.74532915  0.41098158  0.79904349  1
  Se  Se221  1  0.74998121  0.75127685  0.29685070  1
  Se  Se222  1  0.75397227  0.75869986  0.81798872  1
  Se  Se223  1  0.24831443  0.07873529  0.18926949  1
  Se  Se224  1  0.26322912  0.08659806  0.70219647  1
  Se  Se225  1  0.25819826  0.40592916  0.19945729  1
  Se  Se226  1  0.24109912  0.42411567  0.69412936  1
  Se  Se227  1  0.24733859  0.75973639  0.18623343  1
  Se  Se228  1  0.25148763  0.75574469  0.70127467  1
  Se  Se229  1  0.56686278  0.09264297  0.19251357  1
  Se  Se230  1  0.58676602  0.07967600  0.68953552  1
  Se  Se231  1  0.59050849  0.41287899  0.19704099  1
  Se  Se232  1  0.58262137  0.41754496  0.69592010  1
  Se  Se233  1  0.58672056  0.75080961  0.19872747  1
  Se  Se234  1  0.57662819  0.75881603  0.69121257  1
  Se  Se235  1  0.90991801  0.08682201  0.20139933  1
  Se  Se236  1  0.92461546  0.07958092  0.69791136  1
  Se  Se237  1  0.91697211  0.42729068  0.19394795  1
  Se  Se238  1  0.90682838  0.41941015  0.68861236  1
  Se  Se239  1  0.91033316  0.76423009  0.18192433  1
  Se  Se240  1  0.91834991  0.74488386  0.70341958  1
  Se  Se241  1  0.08777764  0.24300567  0.19069266  1
  Se  Se242  1  0.09046546  0.24280934  0.69407426  1
  Se  Se243  1  0.09941066  0.57907668  0.18936007  1
  Se  Se244  1  0.07584574  0.58575026  0.70132404  1
  Se  Se245  1  0.07414279  0.92294552  0.18708801  1
  Se  Se246  1  0.08566814  0.91832936  0.70130553  1
  Se  Se247  1  0.41022046  0.24617424  0.19671152  1
  Se  Se248  1  0.42218082  0.24815796  0.68440101  1
  Se  Se249  1  0.43336255  0.57202005  0.18926249  1
  Se  Se250  1  0.41288209  0.58859598  0.69589315  1
  Se  Se251  1  0.41298557  0.91097548  0.19239594  1
  Se  Se252  1  0.41688262  0.92555015  0.69447470  1
  Se  Se253  1  0.74670674  0.25585778  0.20223837  1
  Se  Se254  1  0.74927164  0.24479550  0.69312036  1
  Se  Se255  1  0.75497936  0.59013041  0.19332926  1
  Se  Se256  1  0.75051135  0.58035603  0.69040480  1
  Se  Se257  1  0.74567471  0.91911631  0.18950597  1
  Se  Se258  1  0.75224173  0.91325648  0.69956142  1
