# generated using pymatgen
data_In86Cu29Se144
_symmetry_space_group_name_H-M   'P 1'
_cell_length_a   17.57477194
_cell_length_b   17.58194190
_cell_length_c   23.44114335
_cell_angle_alpha   89.98970889
_cell_angle_beta   89.97623083
_cell_angle_gamma   90.01122526
_symmetry_Int_Tables_number   1
_chemical_formula_structural   In86Cu29Se144
_chemical_formula_sum   'In86 Cu29 Se144'
_cell_volume   7243.28004691
_cell_formula_units_Z   1
loop_
 _symmetry_equiv_pos_site_id
 _symmetry_equiv_pos_as_xyz
  1  'x, y, z'
loop_
 _atom_site_type_symbol
 _atom_site_label
 _atom_site_symmetry_multiplicity
 _atom_site_fract_x
 _atom_site_fract_y
 _atom_site_fract_z
 _atom_site_occupancy
  In  In0  1  0.00293175  0.16416341  0.12135130  1
  In  In1  1  0.00925995  0.16669188  0.63010871  1
  In  In2  1  0.00418505  0.50394067  0.11387189  1
  In  In3  1  0.01008611  0.49281341  0.63324687  1
  In  In4  1  0.00733131  0.82041524  0.12320556  1
  In  In5  1  -0.00558411  0.83164840  0.62587303  1
  In  In6  1  0.35086660  0.15779695  0.13247429  1
  In  In7  1  0.33818262  0.16300127  0.63621365  1
  In  In8  1  0.33324929  0.49766394  0.11669561  1
  In  In9  1  0.33295151  0.50560517  0.62935576  1
  In  In10  1  0.35067937  0.85030225  0.10844434  1
  In  In11  1  0.33340003  0.82464288  0.63177158  1
  In  In12  1  0.65239754  0.16505863  0.12265177  1
  In  In13  1  0.66404242  0.16604387  0.63180352  1
  In  In14  1  0.67169564  0.50860790  0.10966942  1
  In  In15  1  0.64521960  0.50859497  0.62652175  1
  In  In16  1  0.65540756  0.84335743  0.13322568  1
  In  In17  1  0.67082875  0.82856882  0.61741290  1
  In  In18  1  0.17350058  -0.01190537  0.37817328  1
  In  In19  1  0.19436868  -0.02240821  0.87424963  1
  In  In20  1  0.18142207  0.33256975  0.37778190  1
  In  In21  1  0.17391210  0.34762980  0.86853796  1
  In  In22  1  0.16333180  0.66959695  0.38699567  1
  In  In23  1  0.16731362  0.67099107  0.86479842  1
  In  In24  1  0.48911854  -0.01161195  0.37019162  1
  In  In25  1  0.49641417  -0.00193239  0.87012452  1
  In  In26  1  0.49599300  0.35084701  0.37620792  1
  In  In27  1  0.49932182  0.33434797  0.87494884  1
  In  In28  1  0.50740116  0.66328787  0.38463680  1
  In  In29  1  0.48694887  0.68060179  0.89253337  1
  In  In30  1  0.81977842  0.00005491  0.37522349  1
  In  In31  1  0.82000748  0.00883236  0.87641706  1
  In  In32  1  0.83586208  0.32512045  0.37547494  1
  In  In33  1  0.83843222  0.34471392  0.86697578  1
  In  In34  1  0.83258234  0.67848152  0.37687509  1
  In  In35  1  0.82298115  0.65748470  0.87247730  1
  In  In36  1  -0.00517129  0.17094496  0.37571424  1
  In  In37  1  -0.01045013  0.16829897  0.86874496  1
  In  In38  1  0.00080555  0.51498273  0.38097651  1
  In  In39  1  0.00094121  0.50834815  0.86873444  1
  In  In40  1  0.00527869  0.83864094  0.39256666  1
  In  In41  1  0.01701679  0.83044425  0.86556870  1
  In  In42  1  0.33516436  0.17064265  0.36803231  1
  In  In43  1  0.33642665  0.16986167  0.87392724  1
  In  In44  1  0.33808465  0.50088381  0.37826626  1
  In  In45  1  0.33127503  0.49950253  0.87530538  1
  In  In46  1  0.32940003  0.83622057  0.38136632  1
  In  In47  1  0.34582423  0.82240505  0.86196135  1
  In  In48  1  0.67613334  0.15234211  0.37040660  1
  In  In49  1  0.65041604  0.15558692  0.86807465  1
  In  In50  1  0.65011569  0.50014885  0.37597156  1
  In  In51  1  0.67437189  0.50505238  0.88314766  1
  In  In52  1  0.66053819  0.83378636  0.37589196  1
  In  In53  1  0.60935658  0.82987908  0.87118533  1
  In  In54  1  0.19343435  0.00071639  0.12203864  1
  In  In55  1  0.17287067  -0.00742414  0.62548440  1
  In  In56  1  0.17283965  0.34815636  0.11881890  1
  In  In57  1  0.16314407  0.33785091  0.63691302  1
  In  In58  1  0.17333928  0.67175436  0.11309934  1
  In  In59  1  0.17357151  0.66817757  0.63281727  1
  In  In60  1  0.49817574  -0.00058319  0.12360525  1
  In  In61  1  0.50521143  -0.02142104  0.64466135  1
  In  In62  1  0.49961568  0.32441230  0.11674131  1
  In  In63  1  0.48617541  0.34635991  0.63763982  1
  In  In64  1  0.51397156  0.67762265  0.11004571  1
  In  In65  1  0.49902244  0.65891852  0.62051094  1
  In  In66  1  0.82935129  -0.01266505  0.12763145  1
  In  In67  1  0.83724821  -0.02472403  0.62349785  1
  In  In68  1  0.81957937  0.33800598  0.12113260  1
  In  In69  1  0.83360469  0.33338370  0.63358817  1
  In  In70  1  0.83060469  0.65390466  0.12260633  1
  In  In71  1  0.82632775  0.68781108  0.62594217  1
  In  In72  1  0.66124304  0.66835249  0.75173940  1
  In  In73  1  0.49697545  0.16306820  0.50042963  1
  In  In74  1  0.82996971  0.83188382  -0.00294078  1
  In  In75  1  0.00044081  0.00083626  0.25555544  1
  In  In76  1  0.17110570  0.15965482  0.51417990  1
  In  In77  1  -0.00109117  0.66917014  0.25681442  1
  In  In78  1  0.00098853  0.00286857  0.74746019  1
  In  In79  1  0.65661421  0.32644742  0.24517831  1
  In  In80  1  0.00158976  0.33368945  0.25649486  1
  In  In81  1  0.17787151  0.16754686  -0.01336594  1
  In  In82  1  0.33579578  0.67091421  0.24614461  1
  In  In83  1  0.82825781  0.17257453  0.00360813  1
  In  In84  1  0.83274719  0.50522790  0.50195082  1
  In  In85  1  0.83284614  0.15827462  0.49326945  1
  Cu  Cu86  1  0.50181535  0.83503575  0.24720039  1
  Cu  Cu87  1  0.33568778  0.33058923  -0.00443584  1
  Cu  Cu88  1  0.00009059  0.34699172  -0.00980207  1
  Cu  Cu89  1  0.32592843  0.66329971  -0.00718922  1
  Cu  Cu90  1  0.17156943  0.50208415  0.24467152  1
  Cu  Cu91  1  0.01268029  -0.00487708  -0.00504880  1
  Cu  Cu92  1  0.82476464  0.17140950  0.75179231  1
  Cu  Cu93  1  0.82108721  0.49293477  0.24261030  1
  Cu  Cu94  1  0.49871420  0.49931272  0.75566591  1
  Cu  Cu95  1  0.33210701  0.66725765  0.50669049  1
  Cu  Cu96  1  0.82131793  0.83233601  0.25400448  1
  Cu  Cu97  1  0.65299963  -0.00659981  -0.00281531  1
  Cu  Cu98  1  0.49787470  0.16373587  0.24700593  1
  Cu  Cu99  1  0.17000777  0.50282440  0.75200743  1
  Cu  Cu100  1  0.17465080  0.17183294  0.24865575  1
  Cu  Cu101  1  0.83396067  0.50137053  0.75142975  1
  Cu  Cu102  1  0.82574376  0.83618541  0.75096494  1
  Cu  Cu103  1  0.65600051  0.33912750  0.50499057  1
  Cu  Cu104  1  0.49929881  0.17159806  0.75426418  1
  Cu  Cu105  1  0.33627859  -0.00792855  0.50561597  1
  Cu  Cu106  1  0.66740985  0.33523917  -0.00609133  1
  Cu  Cu107  1  0.49604216  0.50087115  0.24903301  1
  Cu  Cu108  1  0.66600451  -0.01053140  0.50276583  1
  Cu  Cu109  1  0.16101376  0.17075189  0.75606558  1
  Cu  Cu110  1  0.17491573  0.84136042  0.25060208  1
  Cu  Cu111  1  0.00970473  0.66336106  0.50976333  1
  Cu  Cu112  1  0.33247722  0.34924037  0.50536942  1
  Cu  Cu113  1  0.00733183  0.33372861  0.50851381  1
  Cu  Cu114  1  0.00484618  0.66505036  -0.00755526  1
  Se  Se115  1  0.08790758  0.07951435  0.05434705  1
  Se  Se116  1  0.06981694  0.06755589  0.55940971  1
  Se  Se117  1  0.08781989  0.42114102  0.04709171  1
  Se  Se118  1  0.09109460  0.41635484  0.55903856  1
  Se  Se119  1  0.08524414  0.75148070  0.04604723  1
  Se  Se120  1  0.08749662  0.74980255  0.56380632  1
  Se  Se121  1  0.41575202  0.08114101  0.05431080  1
  Se  Se122  1  0.41584764  0.07288261  0.56557351  1
  Se  Se123  1  0.41830607  0.41266935  0.05133063  1
  Se  Se124  1  0.42105795  0.42619638  0.55844030  1
  Se  Se125  1  0.41200960  0.74434556  0.04744088  1
  Se  Se126  1  0.41705232  0.75065477  0.55747314  1
  Se  Se127  1  0.74184259  0.06938406  0.05530348  1
  Se  Se128  1  0.74362751  0.07600573  0.55989194  1
  Se  Se129  1  0.75422237  0.41848071  0.04461122  1
  Se  Se130  1  0.74447775  0.41280455  0.56209825  1
  Se  Se131  1  0.74541060  0.75219426  0.06641289  1
  Se  Se132  1  0.75161379  0.75040168  0.54581403  1
  Se  Se133  1  0.25759805  0.25021512  0.05974937  1
  Se  Se134  1  0.26120240  0.25907919  0.56456127  1
  Se  Se135  1  0.24644009  0.57794795  0.04872704  1
  Se  Se136  1  0.24787549  0.58263178  0.55828129  1
  Se  Se137  1  0.23497179  0.89951313  0.05123722  1
  Se  Se138  1  0.25314466  0.90840764  0.55794485  1
  Se  Se139  1  0.58708785  0.24788234  0.04651875  1
  Se  Se140  1  0.57928945  0.25613287  0.56407945  1
  Se  Se141  1  0.56638958  0.56745814  0.04902127  1
  Se  Se142  1  0.59426603  0.59605310  0.54934478  1
  Se  Se143  1  0.57560806  0.90909300  0.05438216  1
  Se  Se144  1  0.57693940  0.91659197  0.55918735  1
  Se  Se145  1  0.92833171  0.26502940  0.05648601  1
  Se  Se146  1  0.91973031  0.25059154  0.55851141  1
  Se  Se147  1  0.91909388  0.58780758  0.04930320  1
  Se  Se148  1  0.92199721  0.58738352  0.56770024  1
  Se  Se149  1  0.92870926  0.92077346  0.05697533  1
  Se  Se150  1  0.91640103  0.90638522  0.54943262  1
  Se  Se151  1  0.08362527  0.25144311  0.44610617  1
  Se  Se152  1  0.07544181  0.25648117  0.93564026  1
  Se  Se153  1  0.08850311  0.57809324  0.45487434  1
  Se  Se154  1  0.08936205  0.58526446  0.93746948  1
  Se  Se155  1  0.09692514  0.91730136  0.45335860  1
  Se  Se156  1  0.09067490  0.91409525  0.93817562  1
  Se  Se157  1  0.40720122  0.26148942  0.44529510  1
  Se  Se158  1  0.42000270  0.24721719  0.94497767  1
  Se  Se159  1  0.41377427  0.58552573  0.44838166  1
  Se  Se160  1  0.41438136  0.57600928  0.94833677  1
  Se  Se161  1  0.42022735  0.91269662  0.44963035  1
  Se  Se162  1  0.43915108  0.89056257  0.93333875  1
  Se  Se163  1  0.73400055  0.25692394  0.44438802  1
  Se  Se164  1  0.74636023  0.25243556  0.93259679  1
  Se  Se165  1  0.74278973  0.58786796  0.43888262  1
  Se  Se166  1  0.74788670  0.59427489  0.95301947  1
  Se  Se167  1  0.75092181  0.91161224  0.44607951  1
  Se  Se168  1  0.73478854  0.91541515  0.93672548  1
  Se  Se169  1  0.26383662  0.08159563  0.44600526  1
  Se  Se170  1  0.27162395  0.06608765  0.94511476  1
  Se  Se171  1  0.24743569  0.42463090  0.44764286  1
  Se  Se172  1  0.24955003  0.41610130  0.94757373  1
  Se  Se173  1  0.25040435  0.75144239  0.45084242  1
  Se  Se174  1  0.25407169  0.75065035  0.93372076  1
  Se  Se175  1  0.58932679  0.07314944  0.44173788  1
  Se  Se176  1  0.57476479  0.08232205  0.94491097  1
  Se  Se177  1  0.57497110  0.42318831  0.45207611  1
  Se  Se178  1  0.58259678  0.41864136  0.94336606  1
  Se  Se179  1  0.56931236  0.76610125  0.44659164  1
  Se  Se180  1  0.60596236  0.72710530  0.94821695  1
  Se  Se181  1  0.92897287  0.06756976  0.44013609  1
  Se  Se182  1  0.92240817  0.07716164  0.94632886  1
  Se  Se183  1  0.92552044  0.40730987  0.44413764  1
  Se  Se184  1  0.91388604  0.42758839  0.93920611  1
  Se  Se185  1  0.92672840  0.73873035  0.44855638  1
  Se  Se186  1  0.92372556  0.74817470  0.93467227  1
  Se  Se187  1  0.25552141  0.25865590  0.30071719  1
  Se  Se188  1  0.24975789  0.25114585  0.80656682  1
  Se  Se189  1  0.24189361  0.58616725  0.30911859  1
  Se  Se190  1  0.25731123  0.58477721  0.80258411  1
  Se  Se191  1  0.25989971  0.92099631  0.30436328  1
  Se  Se192  1  0.27186288  0.91770734  0.79329888  1
  Se  Se193  1  0.57246054  0.24107801  0.31564956  1
  Se  Se194  1  0.58542573  0.25648545  0.80332737  1
  Se  Se195  1  0.57675431  0.58431294  0.30419566  1
  Se  Se196  1  0.57584739  0.58119366  0.81617383  1
  Se  Se197  1  0.58389680  0.91889508  0.30277995  1
  Se  Se198  1  0.59173265  0.93420657  0.79757850  1
  Se  Se199  1  0.90211277  0.23487310  0.29988905  1
  Se  Se200  1  0.91454141  0.25284316  0.79924404  1
  Se  Se201  1  0.90196046  0.57137774  0.30604391  1
  Se  Se202  1  0.91371153  0.59092706  0.80106237  1
  Se  Se203  1  0.91434303  0.90268437  0.31204903  1
  Se  Se204  1  0.90778897  0.91686739  0.81152654  1
  Se  Se205  1  0.09564833  0.09485789  0.31170421  1
  Se  Se206  1  0.09242300  0.08164445  0.81700610  1
  Se  Se207  1  0.09060907  0.43040176  0.31137344  1
  Se  Se208  1  0.08076805  0.41898912  0.80133888  1
  Se  Se209  1  0.09246599  0.76260791  0.31080010  1
  Se  Se210  1  0.07949565  0.74298784  0.79259760  1
  Se  Se211  1  0.41552988  0.08230312  0.30388341  1
  Se  Se212  1  0.41408779  0.08594685  0.80327797  1
  Se  Se213  1  0.41113785  0.41946651  0.30189845  1
  Se  Se214  1  0.41313504  0.41448615  0.80621441  1
  Se  Se215  1  0.42275272  0.75609365  0.31069814  1
  Se  Se216  1  0.44160387  0.74384044  0.80030495  1
  Se  Se217  1  0.75643426  0.08048349  0.29749825  1
  Se  Se218  1  0.74407025  0.08198220  0.80023180  1
  Se  Se219  1  0.75011970  0.41402347  0.30943088  1
  Se  Se220  1  0.74484056  0.42448687  0.80475588  1
  Se  Se221  1  0.74194086  0.74592194  0.30649016  1
  Se  Se222  1  0.74381041  0.76298367  0.81537972  1
  Se  Se223  1  0.25638939  0.08348497  0.19947342  1
  Se  Se224  1  0.23613449  0.08971290  0.69431249  1
  Se  Se225  1  0.25517257  0.41935535  0.19351379  1
  Se  Se226  1  0.25452145  0.41806427  0.69956498  1
  Se  Se227  1  0.24697619  0.76059764  0.18607677  1
  Se  Se228  1  0.27066373  0.72904330  0.70269356  1
  Se  Se229  1  0.58191280  0.08046041  0.19542525  1
  Se  Se230  1  0.57805709  0.08578015  0.69840811  1
  Se  Se231  1  0.57822091  0.42407489  0.18566330  1
  Se  Se232  1  0.58474315  0.41876647  0.70159963  1
  Se  Se233  1  0.58015784  0.74512435  0.19574868  1
  Se  Se234  1  0.57575887  0.75708458  0.68885790  1
  Se  Se235  1  0.91244085  0.08714148  0.18898854  1
  Se  Se236  1  0.90245075  0.08878494  0.68834818  1
  Se  Se237  1  0.91429944  0.42114560  0.18824828  1
  Se  Se238  1  0.91793502  0.41608694  0.69931768  1
  Se  Se239  1  0.90617242  0.75593517  0.19354052  1
  Se  Se240  1  0.91243708  0.75450175  0.70031824  1
  Se  Se241  1  0.09127683  0.24829372  0.18945258  1
  Se  Se242  1  0.07689852  0.25289106  0.70290766  1
  Se  Se243  1  0.08820709  0.58445986  0.18969057  1
  Se  Se244  1  0.08438394  0.58477460  0.69923488  1
  Se  Se245  1  0.08858717  0.91541628  0.18971268  1
  Se  Se246  1  0.09088550  0.90619018  0.69652304  1
  Se  Se247  1  0.42107123  0.25653933  0.19675618  1
  Se  Se248  1  0.41142213  0.25417847  0.70345835  1
  Se  Se249  1  0.42335025  0.58279393  0.18454235  1
  Se  Se250  1  0.42230109  0.58365890  0.69735413  1
  Se  Se251  1  0.41509655  0.91600472  0.19423635  1
  Se  Se252  1  0.38740763  0.93126583  0.70109854  1
  Se  Se253  1  0.75484937  0.23865640  0.18890968  1
  Se  Se254  1  0.74245551  0.25544481  0.69802254  1
  Se  Se255  1  0.74158189  0.58065893  0.19239940  1
  Se  Se256  1  0.75399070  0.58031510  0.68868145  1
  Se  Se257  1  0.74428287  0.92099729  0.20165534  1
  Se  Se258  1  0.74257186  0.91408403  0.69381175  1
