# generated using pymatgen
data_In86Cu29Se144
_symmetry_space_group_name_H-M   'P 1'
_cell_length_a   17.58300440
_cell_length_b   17.57849759
_cell_length_c   23.43891676
_cell_angle_alpha   89.98641475
_cell_angle_beta   90.00114883
_cell_angle_gamma   89.97583385
_symmetry_Int_Tables_number   1
_chemical_formula_structural   In86Cu29Se144
_chemical_formula_sum   'In86 Cu29 Se144'
_cell_volume   7244.56518224
_cell_formula_units_Z   1
loop_
 _symmetry_equiv_pos_site_id
 _symmetry_equiv_pos_as_xyz
  1  'x, y, z'
loop_
 _atom_site_type_symbol
 _atom_site_label
 _atom_site_symmetry_multiplicity
 _atom_site_fract_x
 _atom_site_fract_y
 _atom_site_fract_z
 _atom_site_occupancy
  In  In0  1  -0.00993466  0.16039307  0.12046244  1
  In  In1  1  -0.01225210  0.17839433  0.63346102  1
  In  In2  1  -0.00611404  0.50581485  0.11731361  1
  In  In3  1  -0.00191290  0.50265570  0.61970576  1
  In  In4  1  0.01093909  0.83345830  0.12470203  1
  In  In5  1  0.01196753  0.82330665  0.63548691  1
  In  In6  1  0.33297963  0.19227677  0.11985961  1
  In  In7  1  0.34028739  0.15875010  0.62286456  1
  In  In8  1  0.34188672  0.49214877  0.12959434  1
  In  In9  1  0.33769209  0.52024985  0.62966988  1
  In  In10  1  0.32695472  0.82290230  0.11885304  1
  In  In11  1  0.32032078  0.82690124  0.61901443  1
  In  In12  1  0.67833579  0.16493641  0.12282440  1
  In  In13  1  0.66710608  0.17000263  0.61475553  1
  In  In14  1  0.65008606  0.48471561  0.10938239  1
  In  In15  1  0.67586069  0.49831837  0.62604790  1
  In  In16  1  0.65063794  0.83584991  0.12048628  1
  In  In17  1  0.66140566  0.83784751  0.63236705  1
  In  In18  1  0.15347216  0.00244643  0.37530286  1
  In  In19  1  0.16052014  -0.00263345  0.87836264  1
  In  In20  1  0.17836724  0.33829669  0.37360456  1
  In  In21  1  0.15172094  0.33938789  0.87547577  1
  In  In22  1  0.17517503  0.65522818  0.38671697  1
  In  In23  1  0.17782743  0.67617425  0.86952017  1
  In  In24  1  0.51111203  -0.00962858  0.38020834  1
  In  In25  1  0.49188760  -0.01179751  0.87032052  1
  In  In26  1  0.49367872  0.33269645  0.36997118  1
  In  In27  1  0.50812099  0.34942606  0.88324330  1
  In  In28  1  0.50213378  0.67954857  0.37898585  1
  In  In29  1  0.50281902  0.66057612  0.87180191  1
  In  In30  1  0.84613333  0.00368242  0.37494165  1
  In  In31  1  0.84102616  0.00672862  0.86487992  1
  In  In32  1  0.82186116  0.34285943  0.38600257  1
  In  In33  1  0.83327630  0.32286638  0.88545438  1
  In  In34  1  0.83222454  0.65735477  0.38692515  1
  In  In35  1  0.82336773  0.65502036  0.86006575  1
  In  In36  1  -0.00039946  0.15535681  0.37554925  1
  In  In37  1  -0.00331695  0.16478908  0.87636838  1
  In  In38  1  -0.00310158  0.50816471  0.39069341  1
  In  In39  1  -0.00958652  0.48752685  0.86552613  1
  In  In40  1  -0.00242569  0.84334149  0.37843898  1
  In  In41  1  0.00849187  0.84054560  0.86522450  1
  In  In42  1  0.33045750  0.18351300  0.37162701  1
  In  In43  1  0.33139577  0.15320640  0.88002620  1
  In  In44  1  0.32887332  0.49503996  0.36987636  1
  In  In45  1  0.33588828  0.51709325  0.87714114  1
  In  In46  1  0.34271481  0.82443296  0.37879968  1
  In  In47  1  0.34524395  0.80913208  0.89517996  1
  In  In48  1  0.65282147  0.18403572  0.39070240  1
  In  In49  1  0.68115986  0.17808244  0.87557121  1
  In  In50  1  0.67866175  0.49953773  0.38098562  1
  In  In51  1  0.66232183  0.50546671  0.88472679  1
  In  In52  1  0.66226970  0.81739808  0.38567969  1
  In  In53  1  0.65615192  0.82279235  0.85931194  1
  In  In54  1  0.15572646  -0.00525293  0.12061679  1
  In  In55  1  0.16588969  -0.01587644  0.62546865  1
  In  In56  1  0.19325061  0.33428346  0.11816321  1
  In  In57  1  0.15048275  0.33188066  0.62713452  1
  In  In58  1  0.16864144  0.67903552  0.12071950  1
  In  In59  1  0.16634295  0.66845522  0.62365806  1
  In  In60  1  0.50874521  -0.00658408  0.11692062  1
  In  In61  1  0.50949167  0.00701223  0.61944426  1
  In  In62  1  0.49063027  0.34261040  0.13256066  1
  In  In63  1  0.52361457  0.33317489  0.61914683  1
  In  In64  1  0.48263314  0.64976201  0.10791703  1
  In  In65  1  0.48473270  0.67144195  0.63616732  1
  In  In66  1  0.83338617  0.01442185  0.12409442  1
  In  In67  1  0.82626740  0.00736729  0.63431016  1
  In  In68  1  0.82011423  0.32530051  0.11590737  1
  In  In69  1  0.83472551  0.34469329  0.61405582  1
  In  In70  1  0.83338957  0.64799313  0.12034129  1
  In  In71  1  0.84247599  0.65738247  0.62998751  1
  In  In72  1  0.00689449  0.33206832  0.24998532  1
  In  In73  1  0.66994921  0.33953018  0.74851938  1
  In  In74  1  0.33190062  0.33753696  0.75944877  1
  In  In75  1  0.50155752  0.50282467  0.50600121  1
  In  In76  1  0.16772695  0.16688166  0.49744249  1
  In  In77  1  0.82903302  0.82826533  -0.00810971  1
  In  In78  1  0.49763982  0.16656079  0.00021793  1
  In  In79  1  0.32521576  -0.00633068  0.75138895  1
  In  In80  1  0.67196537  0.00291875  0.25014482  1
  In  In81  1  0.16891419  0.50083712  -0.00346458  1
  In  In82  1  0.00497565  0.67066102  0.25152909  1
  In  In83  1  0.66848760  0.66575595  0.25945400  1
  In  In84  1  0.33352586  0.00594150  0.24936168  1
  In  In85  1  0.83998050  0.83048331  0.50744640  1
  Cu  Cu86  1  -0.00309971  0.33753502  0.50310606  1
  Cu  Cu87  1  0.16607786  0.16835148  0.24734664  1
  Cu  Cu88  1  -0.00134141  0.32713181  -0.00188694  1
  Cu  Cu89  1  0.00263905  0.66902384  -0.01019305  1
  Cu  Cu90  1  0.17328965  0.50358786  0.25213023  1
  Cu  Cu91  1  0.83334728  0.83291060  0.74603553  1
  Cu  Cu92  1  0.49596710  0.82413091  0.24769155  1
  Cu  Cu93  1  0.15414347  0.16269794  0.75457533  1
  Cu  Cu94  1  0.66941051  0.00056505  -0.00838872  1
  Cu  Cu95  1  0.00246130  -0.00064686  0.50411356  1
  Cu  Cu96  1  0.83583560  0.16825445  0.75340293  1
  Cu  Cu97  1  0.33093342  0.66934167  0.50356288  1
  Cu  Cu98  1  0.50707956  0.17127440  0.74104876  1
  Cu  Cu99  1  0.84063284  0.83891760  0.25071026  1
  Cu  Cu100  1  0.50120833  0.17315252  0.25314956  1
  Cu  Cu101  1  0.67253079  -0.00271060  0.50609888  1
  Cu  Cu102  1  0.16982793  0.83561937  0.24674065  1
  Cu  Cu103  1  0.49935203  0.50019611  0.24497162  1
  Cu  Cu104  1  0.32230978  -0.00558469  0.00186645  1
  Cu  Cu105  1  -0.00540311  -0.00037710  -0.00577663  1
  Cu  Cu106  1  0.83043031  0.49205332  0.25137447  1
  Cu  Cu107  1  0.16263000  0.50273969  0.74789227  1
  Cu  Cu108  1  0.83421781  0.17091898  0.24883097  1
  Cu  Cu109  1  0.83963166  0.49401849  0.74621688  1
  Cu  Cu110  1  0.33544248  0.33834219  0.49674284  1
  Cu  Cu111  1  0.17096151  0.82750094  0.75137123  1
  Cu  Cu112  1  0.66360579  0.66854009  -0.01028216  1
  Cu  Cu113  1  0.49366202  0.83498789  0.75060452  1
  Cu  Cu114  1  0.34310184  -0.00204648  0.49969811  1
  Se  Se115  1  0.07662197  0.08109123  0.05213771  1
  Se  Se116  1  0.08050797  0.08396854  0.56452131  1
  Se  Se117  1  0.07931944  0.40758927  0.05931345  1
  Se  Se118  1  0.08626905  0.41775484  0.55231163  1
  Se  Se119  1  0.07925403  0.74927509  0.04971252  1
  Se  Se120  1  0.09541447  0.76479204  0.55752098  1
  Se  Se121  1  0.40455031  0.07608788  0.06184415  1
  Se  Se122  1  0.42245138  0.08654738  0.55002434  1
  Se  Se123  1  0.40800512  0.40661803  0.05550951  1
  Se  Se124  1  0.41006852  0.41126335  0.56588049  1
  Se  Se125  1  0.43923570  0.77306839  0.05941993  1
  Se  Se126  1  0.41664390  0.75033427  0.55652519  1
  Se  Se127  1  0.74936987  0.08141952  0.04838317  1
  Se  Se128  1  0.75761502  0.08248489  0.55415294  1
  Se  Se129  1  0.77683486  0.44625083  0.06353099  1
  Se  Se130  1  0.72134191  0.39568450  0.55559017  1
  Se  Se131  1  0.74058816  0.74119911  0.05945186  1
  Se  Se132  1  0.74807566  0.74680277  0.56724170  1
  Se  Se133  1  0.24294155  0.24167081  0.04205660  1
  Se  Se134  1  0.25623965  0.25701048  0.55998915  1
  Se  Se135  1  0.25573752  0.58542982  0.06137675  1
  Se  Se136  1  0.24996151  0.58208950  0.55470762  1
  Se  Se137  1  0.24143747  0.91008108  0.05592562  1
  Se  Se138  1  0.25125206  0.92059860  0.54943468  1
  Se  Se139  1  0.58190282  0.25184286  0.06597095  1
  Se  Se140  1  0.57797713  0.24256198  0.54499497  1
  Se  Se141  1  0.58175628  0.58214203  0.04397364  1
  Se  Se142  1  0.58359171  0.59267974  0.56918105  1
  Se  Se143  1  0.58495851  0.91624167  0.04192682  1
  Se  Se144  1  0.58579061  0.91358632  0.55440428  1
  Se  Se145  1  0.91182747  0.24662305  0.05205976  1
  Se  Se146  1  0.91637746  0.24887587  0.55296721  1
  Se  Se147  1  0.91977520  0.58652945  0.04330712  1
  Se  Se148  1  0.90314536  0.57249268  0.55238999  1
  Se  Se149  1  0.91567051  0.91804694  0.05734392  1
  Se  Se150  1  0.92487147  0.92272317  0.56910973  1
  Se  Se151  1  0.07661640  0.25998472  0.43827391  1
  Se  Se152  1  0.08337967  0.24678544  0.94456462  1
  Se  Se153  1  0.08436962  0.58578209  0.45482274  1
  Se  Se154  1  0.07864995  0.58289798  0.93099618  1
  Se  Se155  1  0.08484099  0.91753650  0.44977746  1
  Se  Se156  1  0.07883646  0.91177164  0.94704200  1
  Se  Se157  1  0.41611416  0.25204789  0.44496638  1
  Se  Se158  1  0.41037667  0.25616972  0.93788387  1
  Se  Se159  1  0.40989535  0.58707855  0.44194937  1
  Se  Se160  1  0.41876297  0.59085210  0.94755119  1
  Se  Se161  1  0.42308480  0.91117663  0.44600607  1
  Se  Se162  1  0.41336260  0.92049793  0.94818076  1
  Se  Se163  1  0.77084066  0.23008144  0.44454336  1
  Se  Se164  1  0.73887090  0.25784437  0.95549343  1
  Se  Se165  1  0.73197243  0.59807901  0.45150472  1
  Se  Se166  1  0.75741970  0.58799946  0.94524079  1
  Se  Se167  1  0.75049477  0.91916055  0.44071495  1
  Se  Se168  1  0.74427149  0.91834995  0.92902408  1
  Se  Se169  1  0.26092319  0.07690754  0.43733692  1
  Se  Se170  1  0.24297629  0.07992855  0.94831736  1
  Se  Se171  1  0.24945619  0.42186121  0.44730952  1
  Se  Se172  1  0.25752227  0.41061896  0.93597327  1
  Se  Se173  1  0.25064760  0.75409421  0.44774085  1
  Se  Se174  1  0.24163772  0.74332331  0.95451243  1
  Se  Se175  1  0.58724623  0.07657869  0.44889674  1
  Se  Se176  1  0.58388539  0.07955441  0.93361728  1
  Se  Se177  1  0.58351244  0.41257553  0.44076459  1
  Se  Se178  1  0.60573725  0.40284957  0.95282967  1
  Se  Se179  1  0.57862358  0.74724557  0.45701424  1
  Se  Se180  1  0.58155905  0.75480343  0.93931898  1
  Se  Se181  1  0.91947078  0.08283564  0.45141683  1
  Se  Se182  1  0.90889463  0.08364955  0.94487880  1
  Se  Se183  1  0.91017653  0.42188505  0.45248615  1
  Se  Se184  1  0.91901515  0.41542872  0.94594054  1
  Se  Se185  1  0.92989786  0.74154586  0.44577499  1
  Se  Se186  1  0.91904939  0.74446169  0.92875347  1
  Se  Se187  1  0.24775224  0.25517271  0.29770234  1
  Se  Se188  1  0.24130303  0.23842319  0.81222621  1
  Se  Se189  1  0.25220422  0.59039407  0.30541325  1
  Se  Se190  1  0.24896690  0.58177553  0.80161480  1
  Se  Se191  1  0.24714232  0.91474696  0.31112801  1
  Se  Se192  1  0.24995702  0.90163611  0.81778635  1
  Se  Se193  1  0.58758904  0.25287951  0.30591721  1
  Se  Se194  1  0.57604278  0.25006101  0.80945415  1
  Se  Se195  1  0.57375304  0.57373377  0.31422086  1
  Se  Se196  1  0.59642978  0.58489485  0.80725445  1
  Se  Se197  1  0.58496154  0.90023824  0.30474842  1
  Se  Se198  1  0.58015318  0.92219726  0.79740109  1
  Se  Se199  1  0.91379683  0.24909242  0.31186710  1
  Se  Se200  1  0.91515606  0.25293619  0.80901186  1
  Se  Se201  1  0.91077653  0.57725487  0.30790553  1
  Se  Se202  1  0.92208532  0.58257281  0.79697737  1
  Se  Se203  1  0.92376722  0.92224959  0.30205500  1
  Se  Se204  1  0.91775713  0.91689185  0.79837968  1
  Se  Se205  1  0.08355037  0.08552402  0.30023543  1
  Se  Se206  1  0.07657611  0.07591338  0.80805968  1
  Se  Se207  1  0.08554000  0.43146011  0.31218692  1
  Se  Se208  1  0.08114122  0.41285861  0.79630466  1
  Se  Se209  1  0.09291217  0.75796403  0.31311945  1
  Se  Se210  1  0.08253727  0.74435443  0.80104758  1
  Se  Se211  1  0.42731996  0.08762104  0.31339809  1
  Se  Se212  1  0.42255122  0.09236701  0.80038906  1
  Se  Se213  1  0.41485182  0.41731041  0.30057450  1
  Se  Se214  1  0.42766729  0.42925885  0.80972752  1
  Se  Se215  1  0.41461148  0.74303869  0.30288359  1
  Se  Se216  1  0.41554293  0.75169200  0.80836121  1
  Se  Se217  1  0.75425114  0.09331220  0.31310457  1
  Se  Se218  1  0.74614609  0.08787261  0.80302564  1
  Se  Se219  1  0.74657387  0.41289322  0.30614570  1
  Se  Se220  1  0.76045074  0.42107616  0.81289885  1
  Se  Se221  1  0.76591878  0.75908509  0.31330024  1
  Se  Se222  1  0.74747197  0.74656517  0.79412210  1
  Se  Se223  1  0.24589081  0.09043938  0.18433284  1
  Se  Se224  1  0.23874635  0.09132482  0.69147541  1
  Se  Se225  1  0.25168695  0.41611955  0.19891504  1
  Se  Se226  1  0.24514453  0.41914091  0.69005892  1
  Se  Se227  1  0.25114186  0.74872686  0.19693305  1
  Se  Se228  1  0.25326174  0.74552042  0.69621572  1
  Se  Se229  1  0.57491323  0.08958959  0.19109138  1
  Se  Se230  1  0.59081792  0.08842921  0.68974217  1
  Se  Se231  1  0.58765852  0.41763609  0.19603052  1
  Se  Se232  1  0.57275102  0.42982374  0.69576659  1
  Se  Se233  1  0.57821056  0.74286403  0.18986132  1
  Se  Se234  1  0.57888988  0.75174097  0.69907172  1
  Se  Se235  1  0.91686051  0.08338952  0.19922262  1
  Se  Se236  1  0.91917734  0.08285353  0.70091773  1
  Se  Se237  1  0.91510123  0.41966418  0.19003271  1
  Se  Se238  1  0.91976962  0.41253727  0.68920852  1
  Se  Se239  1  0.90825824  0.75162596  0.18710503  1
  Se  Se240  1  0.91892747  0.74598591  0.69860019  1
  Se  Se241  1  0.09083312  0.24748575  0.18223526  1
  Se  Se242  1  0.07782449  0.25268156  0.70249276  1
  Se  Se243  1  0.09071054  0.57698903  0.18901042  1
  Se  Se244  1  0.08141668  0.58359578  0.69040202  1
  Se  Se245  1  0.08115517  0.91772821  0.19870550  1
  Se  Se246  1  0.08716438  0.91674656  0.70350220  1
  Se  Se247  1  0.41326617  0.25205668  0.20076586  1
  Se  Se248  1  0.42078754  0.25350178  0.68901073  1
  Se  Se249  1  0.41677573  0.58719423  0.19498343  1
  Se  Se250  1  0.41222721  0.58585368  0.70847714  1
  Se  Se251  1  0.42394211  0.91454184  0.19098234  1
  Se  Se252  1  0.41793337  0.91521217  0.68580035  1
  Se  Se253  1  0.74831034  0.25118532  0.19624533  1
  Se  Se254  1  0.75812375  0.24756017  0.68926037  1
  Se  Se255  1  0.74804635  0.57377795  0.19380893  1
  Se  Se256  1  0.75292163  0.57924220  0.69840062  1
  Se  Se257  1  0.75571363  0.90771517  0.18671478  1
  Se  Se258  1  0.74620681  0.91976055  0.70026394  1
