# generated using pymatgen
data_In86Cu29Se144
_symmetry_space_group_name_H-M   'P 1'
_cell_length_a   17.58947634
_cell_length_b   17.57993412
_cell_length_c   23.44446829
_cell_angle_alpha   90.01688219
_cell_angle_beta   90.00035607
_cell_angle_gamma   89.99589188
_symmetry_Int_Tables_number   1
_chemical_formula_structural   In86Cu29Se144
_chemical_formula_sum   'In86 Cu29 Se144'
_cell_volume   7249.54117864
_cell_formula_units_Z   1
loop_
 _symmetry_equiv_pos_site_id
 _symmetry_equiv_pos_as_xyz
  1  'x, y, z'
loop_
 _atom_site_type_symbol
 _atom_site_label
 _atom_site_symmetry_multiplicity
 _atom_site_fract_x
 _atom_site_fract_y
 _atom_site_fract_z
 _atom_site_occupancy
  In  In0  1  -0.00599535  0.18663222  0.12253804  1
  In  In1  1  0.01774242  0.19415345  0.60589152  1
  In  In2  1  0.00993813  0.49827657  0.11927021  1
  In  In3  1  -0.01649022  0.46344787  0.59510625  1
  In  In4  1  -0.00423798  0.81493565  0.13675725  1
  In  In5  1  0.01278166  0.83193705  0.62219257  1
  In  In6  1  0.33931369  0.16073885  0.13292581  1
  In  In7  1  0.34243242  0.16870679  0.61897872  1
  In  In8  1  0.32926223  0.49207774  0.12365292  1
  In  In9  1  0.29931475  0.45940880  0.58768813  1
  In  In10  1  0.34237767  0.83477693  0.12684938  1
  In  In11  1  0.33453762  0.84853707  0.61606404  1
  In  In12  1  0.66900994  0.17640317  0.11840021  1
  In  In13  1  0.66415405  0.17156364  0.62624113  1
  In  In14  1  0.65197368  0.48805988  0.11792359  1
  In  In15  1  0.64929092  0.48233425  0.61939564  1
  In  In16  1  0.66322318  0.84537157  0.12223899  1
  In  In17  1  0.67574846  0.84138065  0.62859144  1
  In  In18  1  0.17886231  0.00672902  0.39337269  1
  In  In19  1  0.17370352  -0.00501304  0.86626722  1
  In  In20  1  0.17520006  0.32870400  0.40061550  1
  In  In21  1  0.17573654  0.33863863  0.86598575  1
  In  In22  1  0.15587100  0.66747895  0.37514897  1
  In  In23  1  0.15223810  0.65563376  0.87214239  1
  In  In24  1  0.48570979  0.02002161  0.38401376  1
  In  In25  1  0.50107463  0.00362443  0.87267155  1
  In  In26  1  0.49993595  0.33006572  0.37751452  1
  In  In27  1  0.49728593  0.33061763  0.87541368  1
  In  In28  1  0.48984734  0.66053715  0.37187979  1
  In  In29  1  0.50529321  0.66295583  0.88520507  1
  In  In30  1  0.83890703  0.00512670  0.37507555  1
  In  In31  1  0.83091789  0.02249897  0.87620247  1
  In  In32  1  0.83337004  0.33732200  0.38264788  1
  In  In33  1  0.82771833  0.33851724  0.86911051  1
  In  In34  1  0.83438605  0.65445631  0.36897491  1
  In  In35  1  0.82361407  0.64942949  0.87604860  1
  In  In36  1  -0.00162651  0.17676757  0.39675896  1
  In  In37  1  -0.01549568  0.17398621  0.87777395  1
  In  In38  1  -0.00589960  0.49424990  0.38293363  1
  In  In39  1  0.01218536  0.47998620  0.88863014  1
  In  In40  1  0.02068881  0.83525900  0.36281829  1
  In  In41  1  0.00841457  0.82687356  0.87647437  1
  In  In42  1  0.33567959  0.17454357  0.38325518  1
  In  In43  1  0.34132636  0.17843636  0.86412212  1
  In  In44  1  0.34081795  0.48707490  0.38849405  1
  In  In45  1  0.33871712  0.49202522  0.88153321  1
  In  In46  1  0.31118510  0.83906809  0.36873577  1
  In  In47  1  0.33508110  0.84919464  0.87094087  1
  In  In48  1  0.65207996  0.18101274  0.38341291  1
  In  In49  1  0.66475413  0.16922517  0.87024809  1
  In  In50  1  0.67975553  0.48391261  0.37911580  1
  In  In51  1  0.67358145  0.48583055  0.87889372  1
  In  In52  1  0.66383655  0.83639495  0.37336134  1
  In  In53  1  0.65161424  0.83393687  0.87634875  1
  In  In54  1  0.17409041  0.01369771  0.13185128  1
  In  In55  1  0.20207696  0.03214832  0.59232168  1
  In  In56  1  0.16890291  0.36007441  0.13134017  1
  In  In57  1  0.17452235  0.32112646  0.62251746  1
  In  In58  1  0.16721768  0.64508734  0.13612354  1
  In  In59  1  0.15992489  0.66179825  0.61470592  1
  In  In60  1  0.49737274  0.00102417  0.11852925  1
  In  In61  1  0.48204202  0.01880926  0.63560768  1
  In  In62  1  0.49714037  0.33103470  0.12608494  1
  In  In63  1  0.49567615  0.33408130  0.62628724  1
  In  In64  1  0.49413428  0.66938306  0.11935955  1
  In  In65  1  0.50238955  0.65056134  0.62761888  1
  In  In66  1  0.82698011  0.00256275  0.12363334  1
  In  In67  1  0.81995417  0.01353602  0.63391206  1
  In  In68  1  0.82612173  0.32288240  0.11763034  1
  In  In69  1  0.82753838  0.33047122  0.62391776  1
  In  In70  1  0.85336976  0.65767036  0.13591855  1
  In  In71  1  0.84931660  0.66240091  0.62503299  1
  In  In72  1  0.33633266  0.66130682  0.74986436  1
  In  In73  1  0.83736569  0.82940845  0.50029271  1
  In  In74  1  0.16866498  0.17689023  -0.00261906  1
  In  In75  1  0.17341365  0.82813645  0.00041329  1
  In  In76  1  0.32735492  0.66450432  0.25397663  1
  In  In77  1  0.66746001  0.66093710  0.75283467  1
  In  In78  1  0.00639339  0.33536326  0.25573614  1
  In  In79  1  0.00289248  0.66158736  0.74625758  1
  In  In80  1  0.67073433  0.66370200  0.24636102  1
  In  In81  1  0.83019534  0.82669584  0.00397648  1
  In  In82  1  0.50069503  0.83332504  0.49309247  1
  In  In83  1  0.66768699  0.00550678  0.24228035  1
  In  In84  1  0.01250594  0.00281086  0.25715533  1
  In  In85  1  0.00536296  0.00847005  0.74375594  1
  Cu  Cu86  1  0.17970446  0.84362630  0.73835031  1
  Cu  Cu87  1  0.66061428  0.32907883  -0.00490185  1
  Cu  Cu88  1  0.50212408  0.84079317  0.74997572  1
  Cu  Cu89  1  0.16913044  0.16672657  0.73809746  1
  Cu  Cu90  1  0.67475968  0.65346462  0.49784095  1
  Cu  Cu91  1  0.83209528  0.16695420  0.24816282  1
  Cu  Cu92  1  0.49190593  0.17481915  0.25644743  1
  Cu  Cu93  1  0.66446949  0.66456923  0.00382530  1
  Cu  Cu94  1  0.34135009  0.00574665  -0.00364343  1
  Cu  Cu95  1  -0.00023623  0.66556536  0.49577914  1
  Cu  Cu96  1  0.33612379  0.66893078  0.49316223  1
  Cu  Cu97  1  0.83324596  0.49396830  0.74408411  1
  Cu  Cu98  1  0.17338608  0.17252768  0.26207847  1
  Cu  Cu99  1  -0.00825523  -0.00514699  0.49570158  1
  Cu  Cu100  1  0.33028416  0.66757991  0.00269602  1
  Cu  Cu101  1  0.33497265  0.33049097  0.00079331  1
  Cu  Cu102  1  0.66475527  0.00698213  -0.00068426  1
  Cu  Cu103  1  0.66428451  0.33222634  0.50237921  1
  Cu  Cu104  1  0.50005392  0.16759538  0.74931209  1
  Cu  Cu105  1  0.16475317  0.49057361  0.74010572  1
  Cu  Cu106  1  0.83739405  0.48961946  0.25334902  1
  Cu  Cu107  1  0.00287934  0.65361086  0.00436599  1
  Cu  Cu108  1  0.49953919  0.84865363  0.24870985  1
  Cu  Cu109  1  0.83262178  0.17430960  0.74774233  1
  Cu  Cu110  1  0.66352934  0.00402987  0.50803387  1
  Cu  Cu111  1  -0.00267789  0.00262016  0.00315076  1
  Cu  Cu112  1  0.49327408  0.48546268  0.75065288  1
  Cu  Cu113  1  0.50162582  0.49104028  0.25258438  1
  Cu  Cu114  1  0.83396010  0.84754318  0.75514023  1
  Se  Se115  1  0.07905253  0.08340789  0.06023950  1
  Se  Se116  1  0.07139596  0.07556980  0.55343055  1
  Se  Se117  1  0.06971145  0.39392461  0.05582464  1
  Se  Se118  1  0.11639645  0.43083337  0.55822706  1
  Se  Se119  1  0.08159343  0.74040368  0.06083498  1
  Se  Se120  1  0.08248224  0.75174271  0.54690764  1
  Se  Se121  1  0.41698199  0.09123946  0.05346617  1
  Se  Se122  1  0.41340732  0.07446720  0.55034443  1
  Se  Se123  1  0.41695498  0.41628613  0.05515147  1
  Se  Se124  1  0.43802284  0.43550032  0.55771251  1
  Se  Se125  1  0.41369058  0.75563699  0.05123577  1
  Se  Se126  1  0.41705936  0.74203551  0.55951487  1
  Se  Se127  1  0.75112106  0.08519767  0.05404020  1
  Se  Se128  1  0.74986193  0.08899096  0.55592633  1
  Se  Se129  1  0.74287239  0.41068722  0.05233383  1
  Se  Se130  1  0.74853921  0.41810058  0.55320361  1
  Se  Se131  1  0.74545176  0.73726220  0.06874259  1
  Se  Se132  1  0.74453003  0.73889670  0.56023058  1
  Se  Se133  1  0.25448450  0.25754108  0.06640357  1
  Se  Se134  1  0.23412861  0.22195950  0.55170153  1
  Se  Se135  1  0.25017314  0.58411549  0.05748529  1
  Se  Se136  1  0.25081348  0.58943969  0.54680861  1
  Se  Se137  1  0.25650324  0.92961616  0.05670756  1
  Se  Se138  1  0.23525385  0.90237688  0.54768101  1
  Se  Se139  1  0.57649193  0.24947775  0.05200257  1
  Se  Se140  1  0.58005274  0.25083194  0.55648721  1
  Se  Se141  1  0.57631475  0.58298685  0.05414222  1
  Se  Se142  1  0.58381903  0.58119754  0.55183652  1
  Se  Se143  1  0.58249320  0.91913267  0.04971752  1
  Se  Se144  1  0.58309190  0.91882113  0.56211447  1
  Se  Se145  1  0.91171060  0.24757874  0.04667358  1
  Se  Se146  1  0.90682109  0.25147083  0.55034870  1
  Se  Se147  1  0.91363987  0.57644624  0.05629240  1
  Se  Se148  1  0.91654742  0.58253347  0.54879956  1
  Se  Se149  1  0.92653768  0.91544694  0.06299554  1
  Se  Se150  1  0.91499516  0.92355702  0.56614524  1
  Se  Se151  1  0.06571679  0.27244192  0.46181298  1
  Se  Se152  1  0.07784539  0.26198243  0.93663686  1
  Se  Se153  1  0.08315645  0.57997373  0.44604740  1
  Se  Se154  1  0.09109196  0.57513843  0.95164058  1
  Se  Se155  1  0.07914852  0.91753804  0.44272952  1
  Se  Se156  1  0.08065879  0.92589896  0.94403493  1
  Se  Se157  1  0.44264841  0.23015457  0.44757910  1
  Se  Se158  1  0.41415405  0.24649045  0.94548468  1
  Se  Se159  1  0.42385315  0.58210501  0.44930249  1
  Se  Se160  1  0.41342550  0.58390632  0.94841136  1
  Se  Se161  1  0.40203829  0.92025186  0.44131859  1
  Se  Se162  1  0.42084006  0.91720544  0.94410682  1
  Se  Se163  1  0.74971289  0.24997789  0.44834356  1
  Se  Se164  1  0.74727422  0.25250927  0.93888321  1
  Se  Se165  1  0.76057203  0.57527441  0.44381117  1
  Se  Se166  1  0.74354363  0.57854465  0.95037171  1
  Se  Se167  1  0.74106626  0.92372714  0.44557403  1
  Se  Se168  1  0.74787674  0.92290441  0.94099413  1
  Se  Se169  1  0.23769697  0.11199655  0.45564047  1
  Se  Se170  1  0.25455005  0.08065284  0.93699929  1
  Se  Se171  1  0.27219325  0.40394239  0.46517348  1
  Se  Se172  1  0.24900478  0.41149686  0.94670025  1
  Se  Se173  1  0.24880371  0.74721139  0.44044268  1
  Se  Se174  1  0.25602244  0.74104898  0.93170411  1
  Se  Se175  1  0.58337227  0.08395687  0.45029770  1
  Se  Se176  1  0.58354550  0.08647118  0.94157333  1
  Se  Se177  1  0.58414201  0.41606672  0.44560596  1
  Se  Se178  1  0.57701970  0.41678025  0.94515630  1
  Se  Se179  1  0.59466095  0.73491263  0.43877414  1
  Se  Se180  1  0.58373525  0.75183154  0.95238264  1
  Se  Se181  1  0.90715132  0.08451180  0.45109334  1
  Se  Se182  1  0.91466179  0.08857196  0.95224640  1
  Se  Se183  1  0.92051310  0.40863344  0.45407612  1
  Se  Se184  1  0.89046310  0.43740479  0.93795020  1
  Se  Se185  1  0.92319604  0.74766864  0.43334922  1
  Se  Se186  1  0.92422769  0.73647924  0.94266125  1
  Se  Se187  1  0.24813401  0.25913605  0.31819916  1
  Se  Se188  1  0.24927770  0.24992412  0.79609542  1
  Se  Se189  1  0.25104444  0.57277514  0.31972766  1
  Se  Se190  1  0.23926555  0.57158465  0.80565202  1
  Se  Se191  1  0.23418009  0.93189120  0.30748721  1
  Se  Se192  1  0.26030024  0.92510315  0.79404738  1
  Se  Se193  1  0.58493306  0.25437944  0.30232803  1
  Se  Se194  1  0.58049249  0.25260358  0.80331593  1
  Se  Se195  1  0.58243910  0.57562616  0.30962358  1
  Se  Se196  1  0.57304630  0.57164638  0.80911700  1
  Se  Se197  1  0.57527992  0.92606237  0.31198583  1
  Se  Se198  1  0.58716893  0.92142376  0.80247393  1
  Se  Se199  1  0.91490719  0.24059508  0.31148315  1
  Se  Se200  1  0.91637063  0.25574795  0.80178437  1
  Se  Se201  1  0.92165399  0.57297314  0.30391268  1
  Se  Se202  1  0.91256011  0.57317593  0.80621841  1
  Se  Se203  1  0.91091839  0.91201862  0.30673850  1
  Se  Se204  1  0.92104075  0.91943466  0.81441834  1
  Se  Se205  1  0.08574113  0.10025213  0.32149008  1
  Se  Se206  1  0.09109384  0.09760488  0.81062064  1
  Se  Se207  1  0.09488702  0.41404967  0.32239928  1
  Se  Se208  1  0.08061927  0.41741569  0.80230457  1
  Se  Se209  1  0.09295229  0.74737717  0.29497275  1
  Se  Se210  1  0.09903532  0.76232892  0.79872363  1
  Se  Se211  1  0.40861772  0.08908704  0.30651775  1
  Se  Se212  1  0.41635966  0.08165372  0.80131631  1
  Se  Se213  1  0.41665317  0.41508728  0.30935659  1
  Se  Se214  1  0.40686795  0.40846198  0.80597937  1
  Se  Se215  1  0.42144193  0.76406680  0.30766095  1
  Se  Se216  1  0.42787745  0.75383381  0.81013411  1
  Se  Se217  1  0.74980851  0.09183911  0.31073836  1
  Se  Se218  1  0.75023862  0.08715085  0.79897506  1
  Se  Se219  1  0.75343956  0.40469353  0.30333355  1
  Se  Se220  1  0.74296750  0.41699695  0.79636333  1
  Se  Se221  1  0.75543549  0.75791416  0.30801654  1
  Se  Se222  1  0.75799219  0.75753824  0.81137990  1
  Se  Se223  1  0.25225253  0.08750572  0.20605689  1
  Se  Se224  1  0.25456013  0.08349699  0.68765123  1
  Se  Se225  1  0.25491953  0.42637423  0.20391472  1
  Se  Se226  1  0.25613826  0.41199405  0.68881314  1
  Se  Se227  1  0.24436432  0.75642339  0.18954953  1
  Se  Se228  1  0.24982233  0.74936245  0.68371181  1
  Se  Se229  1  0.57200232  0.09747000  0.19082257  1
  Se  Se230  1  0.58540488  0.08403220  0.69670358  1
  Se  Se231  1  0.58424010  0.41036875  0.19676306  1
  Se  Se232  1  0.58431369  0.40819330  0.70031606  1
  Se  Se233  1  0.57553629  0.76059441  0.19268409  1
  Se  Se234  1  0.57890192  0.75506130  0.69106124  1
  Se  Se235  1  0.91644593  0.08759828  0.19230306  1
  Se  Se236  1  0.91941418  0.10243550  0.68550728  1
  Se  Se237  1  0.91295571  0.41113206  0.18839321  1
  Se  Se238  1  0.91887188  0.41576229  0.68780045  1
  Se  Se239  1  0.91565745  0.74438628  0.21007824  1
  Se  Se240  1  0.91194761  0.76553478  0.69526349  1
  Se  Se241  1  0.09618102  0.24377789  0.19353250  1
  Se  Se242  1  0.08170210  0.25402647  0.69468585  1
  Se  Se243  1  0.07862952  0.56904153  0.20071435  1
  Se  Se244  1  0.08175195  0.56953017  0.68168894  1
  Se  Se245  1  0.09075225  0.91255364  0.18790797  1
  Se  Se246  1  0.09742201  0.92492869  0.68261082  1
  Se  Se247  1  0.41020985  0.25681565  0.19873605  1
  Se  Se248  1  0.41491151  0.24909728  0.69513343  1
  Se  Se249  1  0.42610019  0.58056698  0.19509393  1
  Se  Se250  1  0.41473790  0.56472931  0.68996138  1
  Se  Se251  1  0.41521232  0.92734744  0.19390017  1
  Se  Se252  1  0.41260269  0.91491785  0.69577579  1
  Se  Se253  1  0.74863626  0.24855549  0.19481503  1
  Se  Se254  1  0.74426005  0.25524584  0.69723843  1
  Se  Se255  1  0.75462548  0.56478157  0.18996562  1
  Se  Se256  1  0.75424006  0.57809035  0.68534167  1
  Se  Se257  1  0.76205727  0.90511004  0.19492439  1
  Se  Se258  1  0.74568745  0.92450753  0.70315888  1
