# generated using pymatgen
data_In86Cu29Se144
_symmetry_space_group_name_H-M   'P 1'
_cell_length_a   17.57650452
_cell_length_b   17.57709181
_cell_length_c   23.42422108
_cell_angle_alpha   90.01461377
_cell_angle_beta   89.99873432
_cell_angle_gamma   90.01687821
_symmetry_Int_Tables_number   1
_chemical_formula_structural   In86Cu29Se144
_chemical_formula_sum   'In86 Cu29 Se144'
_cell_volume   7236.76811242
_cell_formula_units_Z   1
loop_
 _symmetry_equiv_pos_site_id
 _symmetry_equiv_pos_as_xyz
  1  'x, y, z'
loop_
 _atom_site_type_symbol
 _atom_site_label
 _atom_site_symmetry_multiplicity
 _atom_site_fract_x
 _atom_site_fract_y
 _atom_site_fract_z
 _atom_site_occupancy
  In  In0  1  0.00641574  0.16939957  0.12655701  1
  In  In1  1  -0.00244863  0.15097295  0.61039227  1
  In  In2  1  0.01918497  0.50417156  0.12495421  1
  In  In3  1  -0.00076273  0.51954584  0.62749854  1
  In  In4  1  -0.01248379  0.83455904  0.12498204  1
  In  In5  1  0.00173779  0.83777453  0.61950581  1
  In  In6  1  0.34390648  0.15932428  0.13202353  1
  In  In7  1  0.33355576  0.16846088  0.61976712  1
  In  In8  1  0.31860334  0.50209199  0.12249338  1
  In  In9  1  0.33381999  0.49413323  0.63746158  1
  In  In10  1  0.34146604  0.81418883  0.11915240  1
  In  In11  1  0.30412214  0.84326723  0.65239879  1
  In  In12  1  0.64506639  0.17530086  0.14660343  1
  In  In13  1  0.66816146  0.17676462  0.61607585  1
  In  In14  1  0.66614500  0.49652434  0.13436915  1
  In  In15  1  0.66165647  0.49999320  0.62039641  1
  In  In16  1  0.65854887  0.84248924  0.13556772  1
  In  In17  1  0.66930968  0.81793420  0.62120329  1
  In  In18  1  0.15440938  0.00628638  0.39497137  1
  In  In19  1  0.16550048  -0.00839518  0.85727511  1
  In  In20  1  0.17279039  0.32060179  0.37368151  1
  In  In21  1  0.18689865  0.32807883  0.87241011  1
  In  In22  1  0.16423482  0.68251204  0.38163995  1
  In  In23  1  0.16611241  0.66602236  0.86068625  1
  In  In24  1  0.51440476  0.00593702  0.37193320  1
  In  In25  1  0.49403526  0.01210478  0.88058731  1
  In  In26  1  0.50282647  0.33058457  0.37240460  1
  In  In27  1  0.49198158  0.32687211  0.86998205  1
  In  In28  1  0.49786980  0.65172422  0.37802362  1
  In  In29  1  0.50825879  0.67038852  0.86981210  1
  In  In30  1  0.82810900  0.00947540  0.39269959  1
  In  In31  1  0.83836073  -0.00888300  0.86900836  1
  In  In32  1  0.82320082  0.34126159  0.38518550  1
  In  In33  1  0.83336019  0.34502900  0.86826802  1
  In  In34  1  0.83177198  0.66524071  0.37611122  1
  In  In35  1  0.83626971  0.67318595  0.85962426  1
  In  In36  1  0.00206253  0.16335348  0.39071067  1
  In  In37  1  0.01265067  0.16299827  0.86772452  1
  In  In38  1  -0.01682922  0.50187359  0.38001384  1
  In  In39  1  0.00698727  0.51870715  0.86535310  1
  In  In40  1  0.00529483  0.83092155  0.38788976  1
  In  In41  1  0.00995366  0.83639953  0.85558125  1
  In  In42  1  0.33112592  0.17429326  0.37623067  1
  In  In43  1  0.34010082  0.17301617  0.86799113  1
  In  In44  1  0.35101743  0.50196333  0.38256782  1
  In  In45  1  0.32541959  0.49805815  0.86160817  1
  In  In46  1  0.32364197  0.82437597  0.38504245  1
  In  In47  1  0.33947040  0.84166671  0.86303866  1
  In  In48  1  0.66366206  0.16938012  0.37846812  1
  In  In49  1  0.65036948  0.16263588  0.87390154  1
  In  In50  1  0.66615413  0.49581483  0.37326057  1
  In  In51  1  0.66955647  0.49900865  0.86585448  1
  In  In52  1  0.67663696  0.84039124  0.37170410  1
  In  In53  1  0.67125138  0.82500762  0.87267396  1
  In  In54  1  0.17046300  0.00122864  0.12251197  1
  In  In55  1  0.16255853  -0.00146850  0.61866667  1
  In  In56  1  0.16412190  0.34423615  0.12978456  1
  In  In57  1  0.18507007  0.33512450  0.62816771  1
  In  In58  1  0.17061465  0.65893080  0.12754731  1
  In  In59  1  0.14249890  0.67996927  0.65785296  1
  In  In60  1  0.50177153  0.00601095  0.11728195  1
  In  In61  1  0.48191815  0.00116877  0.62482737  1
  In  In62  1  0.50340794  0.32122385  0.13590991  1
  In  In63  1  0.49664800  0.33815008  0.62208498  1
  In  In64  1  0.49789233  0.67650261  0.12219869  1
  In  In65  1  0.50659968  0.66519854  0.62697610  1
  In  In66  1  0.82808668  -0.00991104  0.12773438  1
  In  In67  1  0.84984069  0.00647568  0.60692171  1
  In  In68  1  0.82741596  0.32048420  0.13219418  1
  In  In69  1  0.82148007  0.32389941  0.61376376  1
  In  In70  1  0.83513511  0.66419300  0.13312492  1
  In  In71  1  0.83096856  0.66623048  0.61763611  1
  In  In72  1  0.67010708  0.00068957  0.74475037  1
  In  In73  1  -0.00031579  0.33197246  0.74145218  1
  In  In74  1  0.49526395  0.83190026  0.50451000  1
  In  In75  1  0.83197480  0.83397279  -0.00233465  1
  In  In76  1  0.16681448  0.83187387  -0.01795314  1
  In  In77  1  0.33236989  0.00130013  0.25448106  1
  In  In78  1  -0.00650549  0.00258485  0.26642293  1
  In  In79  1  0.33516754  0.66141172  0.24726069  1
  In  In80  1  0.83594998  0.50436573  -0.00147822  1
  In  In81  1  0.17490150  0.16371335  0.00083518  1
  In  In82  1  -0.00713734  0.33913391  0.25568566  1
  In  In83  1  0.49570281  0.49957701  -0.00328015  1
  In  In84  1  0.17059559  0.50239448  0.51511080  1
  In  In85  1  0.83001729  0.16375178  0.00024651  1
  Cu  Cu86  1  0.82898498  0.16112514  0.26073182  1
  Cu  Cu87  1  0.66476114  0.67285351  -0.00250380  1
  Cu  Cu88  1  0.66625274  0.66009215  0.49728583  1
  Cu  Cu89  1  0.01125441  0.34461955  0.00252261  1
  Cu  Cu90  1  0.83172629  0.50278400  0.25567334  1
  Cu  Cu91  1  0.33867898  0.33538944  0.50145790  1
  Cu  Cu92  1  0.33413099  -0.00480650  -0.00534547  1
  Cu  Cu93  1  -0.00074656  0.33205428  0.50163539  1
  Cu  Cu94  1  0.50112124  0.83215092  0.24900994  1
  Cu  Cu95  1  0.49548781  0.17380087  0.74717589  1
  Cu  Cu96  1  -0.00098198  0.66543726  0.50634367  1
  Cu  Cu97  1  0.15625630  0.83904024  0.25781415  1
  Cu  Cu98  1  0.65907799  0.33595545  0.49691419  1
  Cu  Cu99  1  0.83754386  0.83347330  0.73934898  1
  Cu  Cu100  1  0.50683225  0.49784761  0.74924273  1
  Cu  Cu101  1  0.33372544  0.00153721  0.50593081  1
  Cu  Cu102  1  0.01094272  0.67148111  -0.00811943  1
  Cu  Cu103  1  0.65598458  0.00189424  0.00858582  1
  Cu  Cu104  1  0.83126913  0.82522575  0.25397714  1
  Cu  Cu105  1  0.16491867  0.50786378  0.25274842  1
  Cu  Cu106  1  0.66624397  0.00312052  0.49925118  1
  Cu  Cu107  1  0.50463099  0.49131916  0.25417048  1
  Cu  Cu108  1  0.66222267  0.32720389  0.00437482  1
  Cu  Cu109  1  0.50333483  0.83538834  0.74590053  1
  Cu  Cu110  1  0.16972497  0.15790709  0.74173776  1
  Cu  Cu111  1  0.33865670  0.33088483  -0.00333738  1
  Cu  Cu112  1  0.83404087  0.16393614  0.73469695  1
  Cu  Cu113  1  0.82271112  0.50074265  0.74166691  1
  Cu  Cu114  1  0.32951556  0.67160181  0.51474586  1
  Se  Se115  1  0.07402574  0.07507874  0.05408214  1
  Se  Se116  1  0.09518511  0.08614282  0.54464365  1
  Se  Se117  1  0.09735926  0.42659027  0.05153738  1
  Se  Se118  1  0.07467191  0.40887823  0.56772530  1
  Se  Se119  1  0.08183354  0.75285061  0.05802112  1
  Se  Se120  1  0.08771887  0.73705096  0.56431946  1
  Se  Se121  1  0.40996965  0.08291788  0.05124619  1
  Se  Se122  1  0.42118199  0.08925424  0.54934249  1
  Se  Se123  1  0.41367365  0.40981284  0.06271319  1
  Se  Se124  1  0.41135336  0.42563806  0.55657697  1
  Se  Se125  1  0.41574639  0.73810770  0.04497981  1
  Se  Se126  1  0.40588179  0.75791189  0.57400817  1
  Se  Se127  1  0.74054259  0.08158134  0.06613974  1
  Se  Se128  1  0.75018717  0.08791305  0.55129232  1
  Se  Se129  1  0.74732573  0.40872617  0.05849426  1
  Se  Se130  1  0.74495348  0.41803806  0.54994143  1
  Se  Se131  1  0.74602058  0.74615289  0.06217804  1
  Se  Se132  1  0.74970190  0.74814579  0.54527720  1
  Se  Se133  1  0.25683421  0.25755805  0.06251794  1
  Se  Se134  1  0.25020028  0.25317717  0.55047968  1
  Se  Se135  1  0.26105686  0.60058977  0.05428876  1
  Se  Se136  1  0.24954066  0.59576797  0.57760163  1
  Se  Se137  1  0.25534197  0.91499990  0.05518164  1
  Se  Se138  1  0.25867048  0.91181476  0.55963443  1
  Se  Se139  1  0.58267901  0.24527721  0.06040968  1
  Se  Se140  1  0.57572477  0.25289174  0.55108689  1
  Se  Se141  1  0.59418890  0.58351560  0.05688439  1
  Se  Se142  1  0.57759333  0.58343893  0.55071115  1
  Se  Se143  1  0.57861833  0.90748372  0.05586624  1
  Se  Se144  1  0.58775471  0.92399608  0.56295065  1
  Se  Se145  1  0.92646328  0.26128350  0.05651441  1
  Se  Se146  1  0.91416394  0.24494304  0.55018624  1
  Se  Se147  1  0.92980007  0.59520621  0.05597030  1
  Se  Se148  1  0.91193375  0.57688931  0.54992141  1
  Se  Se149  1  0.92392470  0.93047792  0.05182390  1
  Se  Se150  1  0.91451433  0.90523494  0.54505508  1
  Se  Se151  1  0.08850150  0.25479130  0.44957471  1
  Se  Se152  1  0.08196022  0.25667844  0.94178472  1
  Se  Se153  1  0.08130650  0.58428116  0.44539773  1
  Se  Se154  1  0.09217176  0.58676287  0.93963076  1
  Se  Se155  1  0.09315662  0.90392929  0.45689645  1
  Se  Se156  1  0.07178657  0.92776756  0.93467399  1
  Se  Se157  1  0.41845435  0.25238625  0.44489975  1
  Se  Se158  1  0.41990462  0.24464546  0.94546436  1
  Se  Se159  1  0.41207026  0.59289970  0.45708086  1
  Se  Se160  1  0.41261261  0.58503967  0.93169597  1
  Se  Se161  1  0.41219614  0.92501745  0.43892880  1
  Se  Se162  1  0.41847425  0.91346779  0.94147810  1
  Se  Se163  1  0.74733570  0.24871944  0.45002397  1
  Se  Se164  1  0.74604906  0.25820688  0.93844887  1
  Se  Se165  1  0.74976896  0.57794200  0.44270642  1
  Se  Se166  1  0.74796828  0.59582093  0.93725040  1
  Se  Se167  1  0.74745520  0.91195390  0.45227925  1
  Se  Se168  1  0.73829782  0.93013732  0.94308771  1
  Se  Se169  1  0.25656032  0.08619128  0.44747631  1
  Se  Se170  1  0.25358726  0.07298037  0.93287713  1
  Se  Se171  1  0.25276273  0.41705100  0.44381317  1
  Se  Se172  1  0.25870929  0.41618206  0.94271139  1
  Se  Se173  1  0.24430210  0.75109553  0.45974926  1
  Se  Se174  1  0.26085454  0.74300121  0.92977222  1
  Se  Se175  1  0.58032426  0.08647037  0.44975294  1
  Se  Se176  1  0.57904629  0.08872656  0.95251027  1
  Se  Se177  1  0.57725126  0.42071580  0.44306783  1
  Se  Se178  1  0.59147434  0.41030351  0.93978702  1
  Se  Se179  1  0.58517938  0.74686101  0.43971553  1
  Se  Se180  1  0.58301294  0.75514182  0.94429945  1
  Se  Se181  1  0.93171053  0.06950323  0.45572041  1
  Se  Se182  1  0.92223178  0.08046950  0.93763693  1
  Se  Se183  1  0.91364072  0.41743429  0.45323022  1
  Se  Se184  1  0.92955305  0.41657397  0.93857733  1
  Se  Se185  1  0.91600536  0.74358866  0.44806358  1
  Se  Se186  1  0.92505219  0.74859769  0.93465193  1
  Se  Se187  1  0.25925974  0.25606673  0.30061779  1
  Se  Se188  1  0.25058644  0.24312743  0.79629250  1
  Se  Se189  1  0.24656508  0.58177596  0.31761137  1
  Se  Se190  1  0.25798330  0.59260082  0.79198607  1
  Se  Se191  1  0.23992162  0.91474462  0.31720469  1
  Se  Se192  1  0.24259282  0.90293902  0.79290287  1
  Se  Se193  1  0.58987548  0.25167568  0.30517091  1
  Se  Se194  1  0.58383591  0.25112711  0.80172700  1
  Se  Se195  1  0.58273629  0.58219544  0.30445836  1
  Se  Se196  1  0.58937228  0.58580300  0.80077140  1
  Se  Se197  1  0.58400751  0.91353481  0.30362098  1
  Se  Se198  1  0.58106299  0.91682764  0.80960045  1
  Se  Se199  1  0.91165600  0.24293749  0.31786952  1
  Se  Se200  1  0.90911188  0.24101488  0.80475588  1
  Se  Se201  1  0.91840015  0.58629158  0.30411025  1
  Se  Se202  1  0.91116942  0.57972822  0.79522166  1
  Se  Se203  1  0.90433229  0.90713299  0.31942114  1
  Se  Se204  1  0.91718487  0.91920676  0.79419826  1
  Se  Se205  1  0.09241727  0.09436397  0.31361942  1
  Se  Se206  1  0.08038219  0.07938715  0.79363122  1
  Se  Se207  1  0.08773228  0.42682409  0.31570646  1
  Se  Se208  1  0.08559574  0.40973415  0.81211346  1
  Se  Se209  1  0.07684563  0.75099034  0.30866025  1
  Se  Se210  1  0.07165073  0.73516937  0.79273652  1
  Se  Se211  1  0.42603007  0.09244848  0.30720400  1
  Se  Se212  1  0.41876296  0.08295663  0.80124908  1
  Se  Se213  1  0.41401011  0.41687199  0.30681963  1
  Se  Se214  1  0.41900577  0.41548592  0.80115762  1
  Se  Se215  1  0.41940481  0.75544226  0.31117712  1
  Se  Se216  1  0.42364235  0.75062159  0.80092516  1
  Se  Se217  1  0.74843105  0.07714536  0.31449774  1
  Se  Se218  1  0.75792612  0.09306695  0.80711584  1
  Se  Se219  1  0.75181149  0.41274779  0.30442473  1
  Se  Se220  1  0.74613239  0.41230542  0.79594517  1
  Se  Se221  1  0.74461540  0.74303074  0.30526734  1
  Se  Se222  1  0.74976129  0.75590395  0.79462391  1
  Se  Se223  1  0.23643460  0.09031161  0.19620531  1
  Se  Se224  1  0.25425161  0.07892975  0.68638621  1
  Se  Se225  1  0.24736360  0.42376744  0.20009642  1
  Se  Se226  1  0.24810883  0.41478695  0.70600489  1
  Se  Se227  1  0.24118673  0.76195604  0.19674426  1
  Se  Se228  1  0.26917064  0.71936686  0.70761677  1
  Se  Se229  1  0.58275451  0.06295507  0.19787220  1
  Se  Se230  1  0.57630203  0.09065373  0.68795662  1
  Se  Se231  1  0.58825396  0.40842737  0.20020099  1
  Se  Se232  1  0.58562223  0.41390095  0.69221855  1
  Se  Se233  1  0.58222011  0.74429228  0.19717806  1
  Se  Se234  1  0.58774187  0.74978011  0.69730238  1
  Se  Se235  1  0.91018422  0.09054604  0.19404933  1
  Se  Se236  1  0.91971221  0.07901725  0.68868738  1
  Se  Se237  1  0.90984455  0.42813142  0.18666814  1
  Se  Se238  1  0.90493023  0.41927790  0.68304142  1
  Se  Se239  1  0.91945470  0.74982901  0.19882299  1
  Se  Se240  1  0.91709602  0.74750563  0.68541511  1
  Se  Se241  1  0.08756509  0.24818056  0.19912248  1
  Se  Se242  1  0.08707304  0.23864589  0.68272369  1
  Se  Se243  1  0.08152148  0.59150064  0.20094693  1
  Se  Se244  1  0.09087865  0.55829343  0.70643964  1
  Se  Se245  1  0.08170301  0.91883081  0.19368603  1
  Se  Se246  1  0.09054354  0.91030118  0.68969922  1
  Se  Se247  1  0.40319851  0.25609604  0.20021400  1
  Se  Se248  1  0.41259421  0.25386797  0.69085929  1
  Se  Se249  1  0.42724562  0.57071976  0.18890283  1
  Se  Se250  1  0.42531116  0.58201208  0.69651341  1
  Se  Se251  1  0.41496332  0.90705231  0.18974162  1
  Se  Se252  1  0.41418034  0.92035502  0.70141076  1
  Se  Se253  1  0.74864059  0.24730783  0.20598089  1
  Se  Se254  1  0.74646245  0.25079188  0.69296913  1
  Se  Se255  1  0.74843704  0.58399581  0.19900020  1
  Se  Se256  1  0.74396676  0.58757399  0.68790472  1
  Se  Se257  1  0.75184066  0.91558562  0.20279818  1
  Se  Se258  1  0.75773781  0.91588613  0.68003226  1
