# generated using pymatgen
data_In86Cu29Se144
_symmetry_space_group_name_H-M   'P 1'
_cell_length_a   17.71322244
_cell_length_b   17.71375803
_cell_length_c   23.56020330
_cell_angle_alpha   90.04398253
_cell_angle_beta   89.99196977
_cell_angle_gamma   90.02699457
_symmetry_Int_Tables_number   1
_chemical_formula_structural   In86Cu29Se144
_chemical_formula_sum   'In86 Cu29 Se144'
_cell_volume   7392.42858385
_cell_formula_units_Z   1
loop_
 _symmetry_equiv_pos_site_id
 _symmetry_equiv_pos_as_xyz
  1  'x, y, z'
loop_
 _atom_site_type_symbol
 _atom_site_label
 _atom_site_symmetry_multiplicity
 _atom_site_fract_x
 _atom_site_fract_y
 _atom_site_fract_z
 _atom_site_occupancy
  In  In0  1  0.00019919  0.18297025  0.12225928  1
  In  In1  1  0.00908357  0.17370053  0.64396253  1
  In  In2  1  0.00034375  0.48844844  0.12324154  1
  In  In3  1  -0.00505800  0.48942452  0.61682395  1
  In  In4  1  0.00108463  0.82697132  0.11661981  1
  In  In5  1  0.00954437  0.83837410  0.61979812  1
  In  In6  1  0.33229408  0.15719368  0.11227887  1
  In  In7  1  0.35119602  0.15278153  0.65097632  1
  In  In8  1  0.33684403  0.51148878  0.11932917  1
  In  In9  1  0.33417039  0.50145495  0.62890663  1
  In  In10  1  0.33706448  0.82953990  0.10842092  1
  In  In11  1  0.33131956  0.83986213  0.63702559  1
  In  In12  1  0.65992761  0.15697239  0.11641217  1
  In  In13  1  0.62824974  0.17131813  0.63620194  1
  In  In14  1  0.67510703  0.51038534  0.13120877  1
  In  In15  1  0.67523200  0.50742912  0.61483252  1
  In  In16  1  0.66560430  0.82920495  0.12221783  1
  In  In17  1  0.66705977  0.83840958  0.62888078  1
  In  In18  1  0.16813833  -0.00773067  0.38025454  1
  In  In19  1  0.15445264  -0.00157077  0.86459654  1
  In  In20  1  0.16304159  0.34738987  0.37891041  1
  In  In21  1  0.18655035  0.33455696  0.85292348  1
  In  In22  1  0.17254378  0.66592329  0.38658849  1
  In  In23  1  0.17754348  0.66193970  0.87529990  1
  In  In24  1  0.50329671  -0.00409792  0.38767977  1
  In  In25  1  0.50620221  -0.01472936  0.86578959  1
  In  In26  1  0.51547280  0.32758444  0.39817882  1
  In  In27  1  0.48654301  0.33142440  0.86650099  1
  In  In28  1  0.51084754  0.66099167  0.38559918  1
  In  In29  1  0.51048114  0.68814218  0.85362838  1
  In  In30  1  0.82740164  -0.00364320  0.37760733  1
  In  In31  1  0.83243088  -0.00028257  0.87242776  1
  In  In32  1  0.84605898  0.33342755  0.37544527  1
  In  In33  1  0.82770605  0.32383995  0.87854334  1
  In  In34  1  0.82335578  0.67517687  0.37924953  1
  In  In35  1  0.84002724  0.67898694  0.87543381  1
  In  In36  1  -0.00996222  0.17727072  0.37299262  1
  In  In37  1  -0.00790814  0.16218918  0.86754264  1
  In  In38  1  0.00667151  0.49706492  0.38221698  1
  In  In39  1  0.02424152  0.49616738  0.86586329  1
  In  In40  1  0.00253320  0.82888608  0.38272544  1
  In  In41  1  -0.01002232  0.84318466  0.88216592  1
  In  In42  1  0.33570770  0.17528438  0.38428806  1
  In  In43  1  0.34790025  0.16166690  0.85731186  1
  In  In44  1  0.33864327  0.49878284  0.39163750  1
  In  In45  1  0.32752699  0.50079862  0.85843720  1
  In  In46  1  0.33814411  0.83220164  0.38990039  1
  In  In47  1  0.33494984  0.83106789  0.86949777  1
  In  In48  1  0.66495016  0.15508942  0.37779877  1
  In  In49  1  0.67501901  0.15591286  0.87855344  1
  In  In50  1  0.66148311  0.50774954  0.38629118  1
  In  In51  1  0.65226496  0.50737582  0.86947683  1
  In  In52  1  0.67853532  0.82413305  0.39217041  1
  In  In53  1  0.67191866  0.83114941  0.87178922  1
  In  In54  1  0.17292270  -0.00726793  0.11504846  1
  In  In55  1  0.17868118  -0.00250230  0.64462401  1
  In  In56  1  0.15487629  0.33402471  0.11977768  1
  In  In57  1  0.16996569  0.34535951  0.63397236  1
  In  In58  1  0.17196554  0.66443520  0.11077840  1
  In  In59  1  0.16930084  0.66741814  0.62468388  1
  In  In60  1  0.50021061  -0.00391048  0.11378297  1
  In  In61  1  0.49752027  -0.00370398  0.63402124  1
  In  In62  1  0.50596248  0.32744352  0.12379544  1
  In  In63  1  0.49554616  0.32512185  0.61606457  1
  In  In64  1  0.50459235  0.67638010  0.12419583  1
  In  In65  1  0.50338116  0.68305852  0.63412620  1
  In  In66  1  0.82569395  -0.00838502  0.11366754  1
  In  In67  1  0.84253072  -0.00202158  0.62742890  1
  In  In68  1  0.84731720  0.33896944  0.12141467  1
  In  In69  1  0.82397594  0.34196853  0.61798053  1
  In  In70  1  0.82431437  0.66763864  0.12577109  1
  In  In71  1  0.83023772  0.66268076  0.61736664  1
  In  In72  1  -0.00476817  0.66480454  0.25079467  1
  In  In73  1  0.33586095  0.66658337  0.25397934  1
  In  In74  1  0.16347266  0.16525613  -0.01963403  1
  In  In75  1  0.17005924  0.16452702  0.52030363  1
  In  In76  1  0.82978523  0.16067081  0.50394169  1
  In  In77  1  0.66346475  -0.00503903  0.24218774  1
  In  In78  1  0.83478124  0.50112009  0.00603736  1
  In  In79  1  -0.00117099  0.66138595  0.74912652  1
  In  In80  1  0.33111345  0.34271080  0.25531792  1
  In  In81  1  -0.00385850  0.00424228  0.24987791  1
  In  In82  1  0.49150217  0.49573711  -0.00609773  1
  In  In83  1  0.33353339  -0.00099747  0.24058490  1
  In  In84  1  0.67354867  0.33670879  0.25530204  1
  In  In85  1  0.66685332  0.33835998  0.74717447  1
  Cu  Cu86  1  0.00050908  0.66151538  0.50129192  1
  Cu  Cu87  1  0.33765275  0.66410506  -0.01029180  1
  Cu  Cu88  1  0.83477641  0.17378869  0.24441820  1
  Cu  Cu89  1  0.66085036  0.32250669  0.00013789  1
  Cu  Cu90  1  0.33023458  0.32766540  -0.01535659  1
  Cu  Cu91  1  0.34133720  -0.00516060  -0.00975284  1
  Cu  Cu92  1  0.00754459  0.67029041  -0.00669302  1
  Cu  Cu93  1  0.66619457  0.66821967  -0.00306496  1
  Cu  Cu94  1  0.00397934  -0.00661762  0.50496312  1
  Cu  Cu95  1  0.82400807  0.16083601  0.75052977  1
  Cu  Cu96  1  0.33238506  0.00116801  0.51765310  1
  Cu  Cu97  1  0.66056006  0.67666763  0.50589616  1
  Cu  Cu98  1  0.82696890  0.50679479  0.74212365  1
  Cu  Cu99  1  0.16907727  0.83013414  0.24696598  1
  Cu  Cu100  1  0.33502430  0.67150922  0.51267261  1
  Cu  Cu101  1  0.00548106  0.32964433  0.50432542  1
  Cu  Cu102  1  0.48789312  0.17018399  0.25493710  1
  Cu  Cu103  1  0.33450619  0.33221984  0.50853803  1
  Cu  Cu104  1  0.83915686  0.83437459  0.75176608  1
  Cu  Cu105  1  -0.00118889  0.00701951  -0.00616924  1
  Cu  Cu106  1  0.65785639  0.00627683  0.50931974  1
  Cu  Cu107  1  0.66407019  -0.00844704  -0.00753007  1
  Cu  Cu108  1  0.50193936  0.50776844  0.74308189  1
  Cu  Cu109  1  0.15822232  0.17407843  0.24775925  1
  Cu  Cu110  1  0.50460101  0.50080977  0.26431380  1
  Cu  Cu111  1  0.16237754  0.49992881  0.25219036  1
  Cu  Cu112  1  0.50850336  0.82836388  0.25004210  1
  Cu  Cu113  1  0.00172697  0.33745144  -0.00402720  1
  Cu  Cu114  1  0.15961616  0.82835866  0.75092950  1
  Se  Se115  1  0.08043487  0.08456315  0.05625763  1
  Se  Se116  1  0.07366755  0.07426063  0.57043514  1
  Se  Se117  1  0.08530072  0.42065018  0.04817241  1
  Se  Se118  1  0.09090334  0.41299077  0.55386133  1
  Se  Se119  1  0.09039607  0.75345845  0.04876033  1
  Se  Se120  1  0.08316694  0.74485608  0.55500640  1
  Se  Se121  1  0.41866947  0.08022982  0.04651676  1
  Se  Se122  1  0.41685139  0.08593253  0.56594215  1
  Se  Se123  1  0.40482415  0.40203649  0.05606254  1
  Se  Se124  1  0.41660364  0.42052775  0.55704367  1
  Se  Se125  1  0.42210574  0.74153631  0.04790981  1
  Se  Se126  1  0.41220011  0.75928164  0.56593483  1
  Se  Se127  1  0.74379132  0.07688037  0.04928531  1
  Se  Se128  1  0.74024598  0.08260657  0.56964419  1
  Se  Se129  1  0.73674682  0.40847423  0.05938991  1
  Se  Se130  1  0.74610521  0.41705195  0.54608317  1
  Se  Se131  1  0.74945490  0.74777796  0.05292309  1
  Se  Se132  1  0.74810897  0.75619855  0.55771421  1
  Se  Se133  1  0.24960890  0.25417536  0.05077181  1
  Se  Se134  1  0.26356698  0.25235749  0.57370661  1
  Se  Se135  1  0.25582481  0.58018506  0.04480712  1
  Se  Se136  1  0.25182636  0.58249239  0.55786962  1
  Se  Se137  1  0.25405997  0.91614662  0.04492994  1
  Se  Se138  1  0.24501356  0.91961781  0.56565566  1
  Se  Se139  1  0.57433025  0.24193359  0.05189235  1
  Se  Se140  1  0.59620497  0.25730357  0.55329525  1
  Se  Se141  1  0.58795654  0.58261547  0.05527216  1
  Se  Se142  1  0.57967197  0.59683061  0.56285790  1
  Se  Se143  1  0.58513498  0.91063029  0.05224634  1
  Se  Se144  1  0.57911253  0.91857455  0.56087397  1
  Se  Se145  1  0.91804831  0.25433902  0.04808076  1
  Se  Se146  1  0.92482259  0.24816285  0.56214992  1
  Se  Se147  1  0.92918427  0.59440126  0.05956251  1
  Se  Se148  1  0.91509662  0.57916992  0.55207761  1
  Se  Se149  1  0.92479766  0.92026950  0.05299532  1
  Se  Se150  1  0.91517789  0.91318847  0.55416554  1
  Se  Se151  1  0.08496723  0.24633590  0.44605122  1
  Se  Se152  1  0.07765874  0.26345394  0.92927245  1
  Se  Se153  1  0.08815364  0.58074454  0.44941393  1
  Se  Se154  1  0.08552469  0.58330268  0.94148297  1
  Se  Se155  1  0.08645481  0.91332380  0.44854928  1
  Se  Se156  1  0.08379034  0.92331605  0.94417900  1
  Se  Se157  1  0.41780331  0.24744278  0.45565678  1
  Se  Se158  1  0.41463237  0.24330982  0.93644804  1
  Se  Se159  1  0.41547569  0.59229877  0.45248751  1
  Se  Se160  1  0.41614740  0.58593841  0.92788849  1
  Se  Se161  1  0.41280986  0.92319786  0.45509289  1
  Se  Se162  1  0.42186582  0.90866898  0.93878633  1
  Se  Se163  1  0.74924870  0.25024297  0.43742884  1
  Se  Se164  1  0.74913566  0.24423823  0.94938382  1
  Se  Se165  1  0.74451562  0.59468644  0.45065197  1
  Se  Se166  1  0.74518814  0.58486625  0.93955973  1
  Se  Se167  1  0.74504480  0.92920665  0.45240584  1
  Se  Se168  1  0.75308841  0.91332582  0.94119726  1
  Se  Se169  1  0.25541135  0.07737989  0.44960155  1
  Se  Se170  1  0.26035329  0.07471736  0.93130691  1
  Se  Se171  1  0.25172726  0.41104214  0.45161048  1
  Se  Se172  1  0.25326735  0.41321508  0.93148879  1
  Se  Se173  1  0.25181585  0.75090967  0.45373136  1
  Se  Se174  1  0.25285776  0.75072173  0.94261507  1
  Se  Se175  1  0.57981425  0.08853717  0.45132971  1
  Se  Se176  1  0.58166759  0.07222009  0.93730521  1
  Se  Se177  1  0.57416270  0.43423561  0.45485945  1
  Se  Se178  1  0.58758668  0.40573695  0.93870998  1
  Se  Se179  1  0.57517382  0.75906522  0.45275366  1
  Se  Se180  1  0.58545225  0.74562615  0.93859206  1
  Se  Se181  1  0.92828799  0.07509812  0.44264036  1
  Se  Se182  1  0.91320931  0.08606571  0.94172160  1
  Se  Se183  1  0.92335797  0.41084005  0.44865008  1
  Se  Se184  1  0.91981420  0.41901655  0.93702797  1
  Se  Se185  1  0.91897347  0.74561814  0.44683504  1
  Se  Se186  1  0.91602262  0.75253613  0.95076834  1
  Se  Se187  1  0.24196736  0.24493257  0.31118846  1
  Se  Se188  1  0.24608431  0.22644729  0.79428080  1
  Se  Se189  1  0.24756944  0.57280748  0.31231745  1
  Se  Se190  1  0.22893993  0.57304412  0.79798450  1
  Se  Se191  1  0.25073038  0.90868600  0.30706413  1
  Se  Se192  1  0.24254392  0.91131542  0.80468180  1
  Se  Se193  1  0.57591892  0.24465947  0.31063653  1
  Se  Se194  1  0.58760248  0.24747748  0.81234348  1
  Se  Se195  1  0.58829286  0.58812468  0.30949825  1
  Se  Se196  1  0.58851395  0.58999495  0.79399739  1
  Se  Se197  1  0.57899633  0.91374923  0.31128518  1
  Se  Se198  1  0.57090561  0.88340469  0.79979414  1
  Se  Se199  1  0.91783819  0.25474553  0.29778555  1
  Se  Se200  1  0.90268428  0.24732408  0.80433422  1
  Se  Se201  1  0.91399242  0.58123090  0.31801851  1
  Se  Se202  1  0.90968318  0.57183962  0.81176940  1
  Se  Se203  1  0.91438721  0.91113959  0.31099727  1
  Se  Se204  1  0.92017455  0.91950518  0.80436034  1
  Se  Se205  1  0.09011574  0.09036537  0.31229192  1
  Se  Se206  1  0.08549714  0.09438517  0.80084483  1
  Se  Se207  1  0.08057614  0.41713890  0.30494840  1
  Se  Se208  1  0.07318479  0.39398037  0.79719240  1
  Se  Se209  1  0.09446156  0.75121095  0.30934728  1
  Se  Se210  1  0.07897635  0.75346757  0.81371295  1
  Se  Se211  1  0.41447596  0.08405397  0.31289089  1
  Se  Se212  1  0.41082315  0.05547565  0.79689464  1
  Se  Se213  1  0.42728972  0.41678094  0.32034429  1
  Se  Se214  1  0.42197313  0.42173480  0.79631968  1
  Se  Se215  1  0.42403290  0.75744030  0.31322306  1
  Se  Se216  1  0.39028187  0.72853426  0.80151357  1
  Se  Se217  1  0.75752559  0.08946764  0.30188249  1
  Se  Se218  1  0.74401066  0.07519605  0.80223517  1
  Se  Se219  1  0.75528759  0.42601360  0.31733860  1
  Se  Se220  1  0.75565795  0.42742817  0.81076823  1
  Se  Se221  1  0.75041857  0.76341066  0.31042832  1
  Se  Se222  1  0.75709268  0.74822785  0.80252519  1
  Se  Se223  1  0.23636376  0.09404901  0.18808259  1
  Se  Se224  1  0.22291966  0.11828211  0.69733819  1
  Se  Se225  1  0.24522138  0.42766121  0.18794406  1
  Se  Se226  1  0.26725592  0.41078376  0.69965318  1
  Se  Se227  1  0.25043758  0.75353471  0.18673780  1
  Se  Se228  1  0.24429802  0.74917140  0.69752310  1
  Se  Se229  1  0.56535448  0.08984984  0.19262098  1
  Se  Se230  1  0.59385943  0.06392597  0.70208337  1
  Se  Se231  1  0.57558236  0.42234840  0.19533127  1
  Se  Se232  1  0.58131836  0.42601131  0.68412415  1
  Se  Se233  1  0.58984858  0.74641188  0.19600688  1
  Se  Se234  1  0.57286012  0.77780994  0.70306660  1
  Se  Se235  1  0.90936676  0.08971055  0.18375808  1
  Se  Se236  1  0.91611946  0.08613152  0.69818737  1
  Se  Se237  1  0.90856117  0.42725914  0.19372797  1
  Se  Se238  1  0.90490530  0.42052268  0.68904864  1
  Se  Se239  1  0.91267976  0.75965085  0.19150415  1
  Se  Se240  1  0.91487253  0.75348862  0.68797226  1
  Se  Se241  1  0.07938972  0.25922672  0.19582167  1
  Se  Se242  1  0.06554267  0.28564060  0.69931940  1
  Se  Se243  1  0.09273124  0.58331855  0.18844967  1
  Se  Se244  1  0.08279332  0.57277756  0.68691450  1
  Se  Se245  1  0.09061449  0.91377906  0.19069729  1
  Se  Se246  1  0.07936876  0.91488587  0.69843448  1
  Se  Se247  1  0.41094495  0.24508553  0.19066162  1
  Se  Se248  1  0.44551880  0.24351541  0.69877647  1
  Se  Se249  1  0.42886595  0.57534367  0.19602759  1
  Se  Se250  1  0.41662836  0.59131780  0.69374990  1
  Se  Se251  1  0.42541264  0.90225772  0.18776345  1
  Se  Se252  1  0.39113349  0.94526264  0.70313892  1
  Se  Se253  1  0.74836641  0.24565718  0.18425338  1
  Se  Se254  1  0.75104373  0.24315607  0.68685157  1
  Se  Se255  1  0.76614196  0.57617226  0.19843417  1
  Se  Se256  1  0.74625029  0.58993649  0.69105373  1
  Se  Se257  1  0.76116143  0.90647694  0.19219953  1
  Se  Se258  1  0.75862208  0.91585767  0.69498535  1
