# generated using pymatgen
data_In86Cu29Se144
_symmetry_space_group_name_H-M   'P 1'
_cell_length_a   17.58201716
_cell_length_b   17.58237191
_cell_length_c   23.44237388
_cell_angle_alpha   89.98639358
_cell_angle_beta   90.00423052
_cell_angle_gamma   90.02770310
_symmetry_Int_Tables_number   1
_chemical_formula_structural   In86Cu29Se144
_chemical_formula_sum   'In86 Cu29 Se144'
_cell_volume   7246.82353365
_cell_formula_units_Z   1
loop_
 _symmetry_equiv_pos_site_id
 _symmetry_equiv_pos_as_xyz
  1  'x, y, z'
loop_
 _atom_site_type_symbol
 _atom_site_label
 _atom_site_symmetry_multiplicity
 _atom_site_fract_x
 _atom_site_fract_y
 _atom_site_fract_z
 _atom_site_occupancy
  In  In0  1  -0.00202478  0.16925007  0.12344546  1
  In  In1  1  -0.00403251  0.16728310  0.63272449  1
  In  In2  1  0.00112284  0.49159582  0.12981338  1
  In  In3  1  0.00171151  0.49968909  0.62113487  1
  In  In4  1  0.00052268  0.83374153  0.13437133  1
  In  In5  1  0.01149508  0.82246642  0.63562449  1
  In  In6  1  0.31806189  0.15403460  0.11405378  1
  In  In7  1  0.33884542  0.16257007  0.63079380  1
  In  In8  1  0.31838211  0.48371158  0.10353566  1
  In  In9  1  0.32896976  0.52303596  0.62862818  1
  In  In10  1  0.34307555  0.83971503  0.12168138  1
  In  In11  1  0.32092175  0.81124546  0.60516562  1
  In  In12  1  0.66012224  0.15631982  0.11733349  1
  In  In13  1  0.66691162  0.16564724  0.63637225  1
  In  In14  1  0.65906325  0.51274256  0.12631845  1
  In  In15  1  0.67083322  0.48858375  0.63145009  1
  In  In16  1  0.65923201  0.84035478  0.12949249  1
  In  In17  1  0.66649163  0.84801517  0.62630819  1
  In  In18  1  0.15544583  -0.01099466  0.36329470  1
  In  In19  1  0.16969110  0.01192761  0.88005083  1
  In  In20  1  0.16186016  0.34733685  0.37492127  1
  In  In21  1  0.15867532  0.34458913  0.88329355  1
  In  In22  1  0.15304402  0.68016267  0.39486781  1
  In  In23  1  0.15753918  0.65289469  0.86813491  1
  In  In24  1  0.49415992  -0.00933367  0.36430053  1
  In  In25  1  0.50479184  -0.00277246  0.88234060  1
  In  In26  1  0.49258996  0.34421443  0.37015416  1
  In  In27  1  0.51103772  0.32457465  0.88826551  1
  In  In28  1  0.51529643  0.67090638  0.37303211  1
  In  In29  1  0.48547636  0.68235992  0.87721994  1
  In  In30  1  0.83785404  0.00562621  0.36009952  1
  In  In31  1  0.84272362  0.00856165  0.87319795  1
  In  In32  1  0.85306234  0.33514147  0.36906151  1
  In  In33  1  0.82709701  0.32476115  0.87143834  1
  In  In34  1  0.83014999  0.66386259  0.37542053  1
  In  In35  1  0.84429702  0.65947267  0.87110212  1
  In  In36  1  0.00145612  0.16564548  0.35491402  1
  In  In37  1  -0.00093917  0.16554520  0.88004971  1
  In  In38  1  -0.00003628  0.50399168  0.37543937  1
  In  In39  1  0.01703573  0.50939875  0.86874802  1
  In  In40  1  0.00215771  0.83087781  0.37455818  1
  In  In41  1  -0.00018148  0.82914753  0.86891937  1
  In  In42  1  0.34270925  0.16504566  0.36714549  1
  In  In43  1  0.32958256  0.17986017  0.89469892  1
  In  In44  1  0.31770132  0.49953224  0.37855078  1
  In  In45  1  0.32098960  0.50811588  0.88322505  1
  In  In46  1  0.32505097  0.83520123  0.38562946  1
  In  In47  1  0.34954897  0.82858025  0.87096606  1
  In  In48  1  0.68321107  0.16251789  0.36243754  1
  In  In49  1  0.67030268  0.16417149  0.88058969  1
  In  In50  1  0.66016117  0.51590027  0.37332947  1
  In  In51  1  0.67652303  0.48786349  0.87411253  1
  In  In52  1  0.66575814  0.83189755  0.37185422  1
  In  In53  1  0.64139432  0.84083656  0.86971205  1
  In  In54  1  0.14639621  0.02537554  0.14573728  1
  In  In55  1  0.17202223  -0.01784981  0.62554714  1
  In  In56  1  0.14759346  0.31633077  0.10927684  1
  In  In57  1  0.15163007  0.33182524  0.62949502  1
  In  In58  1  0.15879510  0.65517446  0.12364986  1
  In  In59  1  0.16137303  0.66544864  0.61599610  1
  In  In60  1  0.49816808  -0.00280944  0.12401544  1
  In  In61  1  0.50916004  -0.00459761  0.62966142  1
  In  In62  1  0.48302495  0.32299653  0.10036916  1
  In  In63  1  0.50687907  0.34326691  0.63505458  1
  In  In64  1  0.49772025  0.67524648  0.11698936  1
  In  In65  1  0.48809206  0.67420273  0.63084486  1
  In  In66  1  0.82733640  0.01086867  0.13631847  1
  In  In67  1  0.83118835  0.00074555  0.63067918  1
  In  In68  1  0.84884690  0.32852917  0.12722941  1
  In  In69  1  0.82953032  0.33794977  0.62964308  1
  In  In70  1  0.83285110  0.66314781  0.13424779  1
  In  In71  1  0.85723692  0.66774799  0.62077687  1
  In  In72  1  0.83399118  0.16794030  0.48671945  1
  In  In73  1  0.49588215  0.51187248  0.50721401  1
  In  In74  1  0.67324774  0.66871068  0.74999179  1
  In  In75  1  0.83874638  0.83150178  0.49585703  1
  In  In76  1  0.66472460  0.33423927  0.24008521  1
  In  In77  1  0.33378152  0.33861583  0.76831078  1
  In  In78  1  0.17231176  0.83582679  0.00612819  1
  In  In79  1  0.32094024  0.32684432  0.23579798  1
  In  In80  1  0.50210861  0.16345809  0.49821463  1
  In  In81  1  0.83557345  0.49502389  0.00292177  1
  In  In82  1  0.16514366  0.16189049  0.49175792  1
  In  In83  1  0.83461330  0.83520964  -0.00668056  1
  In  In84  1  0.33153791  0.66783810  0.24699481  1
  In  In85  1  0.33901070  -0.00376795  0.75392034  1
  Cu  Cu86  1  0.66452361  0.00121026  0.49956626  1
  Cu  Cu87  1  0.17062146  0.82965022  0.25792892  1
  Cu  Cu88  1  0.00804691  -0.00773959  0.49836964  1
  Cu  Cu89  1  0.00042106  0.00306118  0.00553571  1
  Cu  Cu90  1  -0.00107496  0.33345846  -0.00185734  1
  Cu  Cu91  1  0.15415910  0.16208464  0.75522955  1
  Cu  Cu92  1  0.17021445  0.50009012  0.74779738  1
  Cu  Cu93  1  0.33439818  -0.01155550  0.49396228  1
  Cu  Cu94  1  0.50427785  0.83240245  0.24570511  1
  Cu  Cu95  1  0.67306194  0.32975824  -0.00065887  1
  Cu  Cu96  1  0.83467856  0.82793940  0.25373749  1
  Cu  Cu97  1  0.66411801  -0.00202146  0.00425953  1
  Cu  Cu98  1  0.49098970  0.50483775  0.24157611  1
  Cu  Cu99  1  0.32670820  0.33599125  0.50596413  1
  Cu  Cu100  1  0.50578057  0.15907336  0.24379090  1
  Cu  Cu101  1  0.66446004  0.67353331  -0.00021606  1
  Cu  Cu102  1  0.33247083  0.00113205  0.00215015  1
  Cu  Cu103  1  -0.00282235  0.34112311  0.49950403  1
  Cu  Cu104  1  0.84968458  0.49584053  0.75006067  1
  Cu  Cu105  1  0.16663730  0.83060807  0.74550356  1
  Cu  Cu106  1  0.50459578  0.16729792  0.76314041  1
  Cu  Cu107  1  0.83429850  0.16540211  0.75501251  1
  Cu  Cu108  1  0.83149323  0.83972144  0.74888814  1
  Cu  Cu109  1  0.83212845  0.50073734  0.25167600  1
  Cu  Cu110  1  0.32842711  0.66947193  -0.00076253  1
  Cu  Cu111  1  0.50764357  0.50206366  0.75438829  1
  Cu  Cu112  1  0.66947674  0.34144608  0.50484026  1
  Cu  Cu113  1  0.67055030  0.66841276  0.49969505  1
  Cu  Cu114  1  0.15208268  0.50252722  0.25159563  1
  Se  Se115  1  0.08706940  0.08682740  0.05556289  1
  Se  Se116  1  0.07950004  0.07804915  0.56084677  1
  Se  Se117  1  0.07892441  0.42190950  0.05062066  1
  Se  Se118  1  0.08799827  0.41464773  0.55297466  1
  Se  Se119  1  0.07397057  0.74714633  0.05812030  1
  Se  Se120  1  0.07585157  0.75437217  0.55345752  1
  Se  Se121  1  0.42021537  0.08348352  0.05373939  1
  Se  Se122  1  0.40840175  0.07281420  0.55602636  1
  Se  Se123  1  0.43676007  0.44163469  0.04763192  1
  Se  Se124  1  0.40983603  0.41196801  0.56577898  1
  Se  Se125  1  0.41301371  0.75591313  0.04767379  1
  Se  Se126  1  0.42856341  0.74668558  0.54778771  1
  Se  Se127  1  0.75451779  0.07770996  0.05350613  1
  Se  Se128  1  0.74483491  0.08479249  0.55637254  1
  Se  Se129  1  0.74389716  0.41018123  0.06615341  1
  Se  Se130  1  0.75538749  0.42161208  0.55561174  1
  Se  Se131  1  0.74854081  0.74739570  0.06016144  1
  Se  Se132  1  0.74785449  0.74804308  0.56309346  1
  Se  Se133  1  0.27473674  0.27707552  0.06396769  1
  Se  Se134  1  0.25237751  0.24674679  0.56236646  1
  Se  Se135  1  0.24133331  0.58613490  0.04805817  1
  Se  Se136  1  0.25323680  0.58655911  0.55002590  1
  Se  Se137  1  0.24776113  0.93365878  0.06818710  1
  Se  Se138  1  0.24421125  0.91189552  0.54607554  1
  Se  Se139  1  0.58624399  0.24458514  0.04762437  1
  Se  Se140  1  0.58908750  0.25780541  0.56109095  1
  Se  Se141  1  0.58174934  0.58787185  0.05091226  1
  Se  Se142  1  0.59495418  0.59176799  0.56771704  1
  Se  Se143  1  0.57953473  0.91210424  0.05343347  1
  Se  Se144  1  0.58185729  0.91836443  0.55173564  1
  Se  Se145  1  0.91575252  0.24858852  0.04972968  1
  Se  Se146  1  0.91960848  0.25209740  0.55565907  1
  Se  Se147  1  0.92074757  0.58839649  0.06102799  1
  Se  Se148  1  0.91876559  0.57776370  0.54986733  1
  Se  Se149  1  0.91926399  0.91962487  0.06126895  1
  Se  Se150  1  0.92184954  0.92204509  0.56088344  1
  Se  Se151  1  0.06907533  0.25281891  0.43822830  1
  Se  Se152  1  0.08499968  0.24832317  0.94779955  1
  Se  Se153  1  0.10084295  0.56092555  0.44399050  1
  Se  Se154  1  0.08979819  0.57817522  0.94830479  1
  Se  Se155  1  0.08932485  0.91093184  0.44352724  1
  Se  Se156  1  0.07639255  0.92049542  0.94356261  1
  Se  Se157  1  0.40852412  0.26141302  0.44422761  1
  Se  Se158  1  0.42216142  0.25402929  0.95760263  1
  Se  Se159  1  0.41423433  0.58981893  0.43461187  1
  Se  Se160  1  0.41477169  0.58934917  0.94517609  1
  Se  Se161  1  0.42713218  0.91292088  0.44354133  1
  Se  Se162  1  0.41200221  0.91743990  0.94633489  1
  Se  Se163  1  0.73945962  0.26407456  0.43578939  1
  Se  Se164  1  0.75763736  0.24575905  0.94893504  1
  Se  Se165  1  0.74818438  0.58147446  0.44680793  1
  Se  Se166  1  0.74717278  0.59216784  0.94284002  1
  Se  Se167  1  0.75172635  0.92887816  0.43892799  1
  Se  Se168  1  0.73942473  0.92223423  0.93609220  1
  Se  Se169  1  0.25922699  0.07417080  0.43443899  1
  Se  Se170  1  0.24563242  0.08759786  0.95520608  1
  Se  Se171  1  0.24417192  0.41587466  0.45139541  1
  Se  Se172  1  0.26268874  0.40368749  0.94632111  1
  Se  Se173  1  0.26256023  0.73834381  0.45239500  1
  Se  Se174  1  0.25053525  0.74849667  0.93552905  1
  Se  Se175  1  0.59255175  0.08158478  0.43367958  1
  Se  Se176  1  0.58328673  0.08419963  0.94936301  1
  Se  Se177  1  0.58194194  0.41556955  0.44471203  1
  Se  Se178  1  0.59369324  0.41955707  0.94917108  1
  Se  Se179  1  0.58897417  0.75323516  0.44729481  1
  Se  Se180  1  0.57976775  0.75404362  0.94582406  1
  Se  Se181  1  0.93081727  0.07428088  0.43696630  1
  Se  Se182  1  0.91530926  0.08412522  0.95110699  1
  Se  Se183  1  0.91274976  0.42125344  0.44537087  1
  Se  Se184  1  0.92294100  0.41477864  0.93468723  1
  Se  Se185  1  0.92879863  0.73515172  0.44495815  1
  Se  Se186  1  0.92882651  0.73832459  0.94445390  1
  Se  Se187  1  0.24182172  0.24808049  0.31113141  1
  Se  Se188  1  0.23918305  0.24003239  0.81388756  1
  Se  Se189  1  0.23754274  0.58292219  0.30732852  1
  Se  Se190  1  0.25428874  0.58304129  0.80137501  1
  Se  Se191  1  0.25848301  0.91290003  0.30593112  1
  Se  Se192  1  0.24145429  0.90914396  0.81233408  1
  Se  Se193  1  0.57367011  0.24647929  0.30747107  1
  Se  Se194  1  0.59002622  0.25274511  0.81138252  1
  Se  Se195  1  0.57721135  0.58247946  0.29653285  1
  Se  Se196  1  0.58639254  0.58357499  0.81573247  1
  Se  Se197  1  0.58868704  0.91566170  0.30003515  1
  Se  Se198  1  0.56534640  0.92186081  0.79928653  1
  Se  Se199  1  0.89025927  0.22832795  0.30129049  1
  Se  Se200  1  0.92013530  0.24776493  0.80712000  1
  Se  Se201  1  0.91480002  0.58414532  0.30603633  1
  Se  Se202  1  0.92795410  0.58638722  0.79944392  1
  Se  Se203  1  0.92229637  0.91159502  0.30329979  1
  Se  Se204  1  0.91791877  0.91774748  0.80533912  1
  Se  Se205  1  0.09577253  0.08790712  0.29656086  1
  Se  Se206  1  0.07645594  0.07598688  0.80952994  1
  Se  Se207  1  0.07269567  0.41307558  0.30272360  1
  Se  Se208  1  0.08824177  0.41463037  0.80121682  1
  Se  Se209  1  0.08717584  0.74399167  0.30852177  1
  Se  Se210  1  0.08467358  0.74749333  0.80193366  1
  Se  Se211  1  0.41779355  0.08078670  0.29717610  1
  Se  Se212  1  0.41266703  0.09575351  0.81841596  1
  Se  Se213  1  0.40813525  0.42588126  0.30028896  1
  Se  Se214  1  0.43097186  0.42635236  0.82108119  1
  Se  Se215  1  0.42198495  0.75583528  0.30828523  1
  Se  Se216  1  0.41649315  0.74899398  0.79438445  1
  Se  Se217  1  0.74736128  0.07465734  0.29086717  1
  Se  Se218  1  0.74874175  0.08236396  0.80722415  1
  Se  Se219  1  0.74734004  0.42082492  0.31005308  1
  Se  Se220  1  0.75855496  0.41675614  0.79994801  1
  Se  Se221  1  0.74826476  0.74609326  0.30612976  1
  Se  Se222  1  0.75645358  0.76150521  0.81543513  1
  Se  Se223  1  0.25823604  0.08802612  0.20011022  1
  Se  Se224  1  0.24086091  0.08819395  0.69541132  1
  Se  Se225  1  0.23342714  0.42799104  0.18730640  1
  Se  Se226  1  0.25261965  0.41590794  0.69134284  1
  Se  Se227  1  0.24179655  0.75765505  0.18543124  1
  Se  Se228  1  0.24524169  0.74860253  0.68759504  1
  Se  Se229  1  0.58848728  0.07475998  0.19277556  1
  Se  Se230  1  0.57801713  0.08510503  0.70077506  1
  Se  Se231  1  0.56613388  0.41724554  0.18333139  1
  Se  Se232  1  0.59156017  0.41435721  0.70747491  1
  Se  Se233  1  0.58223421  0.74397492  0.19273327  1
  Se  Se234  1  0.58152492  0.75958894  0.69390923  1
  Se  Se235  1  0.93938565  0.06712910  0.19186620  1
  Se  Se236  1  0.91515825  0.08136990  0.69889576  1
  Se  Se237  1  0.91550013  0.41493855  0.20123066  1
  Se  Se238  1  0.92633494  0.41117127  0.69281005  1
  Se  Se239  1  0.91846379  0.74596632  0.19989133  1
  Se  Se240  1  0.91489811  0.75110748  0.70130953  1
  Se  Se241  1  0.07934537  0.25491115  0.19228412  1
  Se  Se242  1  0.07710995  0.25030794  0.70194570  1
  Se  Se243  1  0.07210273  0.58809574  0.19764305  1
  Se  Se244  1  0.08723012  0.58032090  0.69048363  1
  Se  Se245  1  0.08748520  0.91196037  0.20201256  1
  Se  Se246  1  0.08225285  0.92131622  0.70018209  1
  Se  Se247  1  0.42661683  0.24420744  0.18704901  1
  Se  Se248  1  0.42311437  0.24702447  0.70092512  1
  Se  Se249  1  0.40859595  0.57773665  0.17892399  1
  Se  Se250  1  0.42160855  0.58248095  0.70238599  1
  Se  Se251  1  0.41704592  0.91684168  0.19743107  1
  Se  Se252  1  0.40681309  0.91014836  0.67979302  1
  Se  Se253  1  0.75329210  0.24013781  0.18585801  1
  Se  Se254  1  0.75307917  0.24987889  0.69885236  1
  Se  Se255  1  0.74502593  0.58197379  0.20003508  1
  Se  Se256  1  0.76542579  0.57821647  0.69188938  1
  Se  Se257  1  0.75423982  0.90953049  0.19627615  1
  Se  Se258  1  0.74517495  0.92381392  0.70070021  1
