# generated using pymatgen
data_In86Cu29Se144
_symmetry_space_group_name_H-M   'P 1'
_cell_length_a   17.58502051
_cell_length_b   17.58754879
_cell_length_c   23.44880644
_cell_angle_alpha   90.00362631
_cell_angle_beta   90.00274092
_cell_angle_gamma   90.01114925
_symmetry_Int_Tables_number   1
_chemical_formula_structural   In86Cu29Se144
_chemical_formula_sum   'In86 Cu29 Se144'
_cell_volume   7252.18587287
_cell_formula_units_Z   1
loop_
 _symmetry_equiv_pos_site_id
 _symmetry_equiv_pos_as_xyz
  1  'x, y, z'
loop_
 _atom_site_type_symbol
 _atom_site_label
 _atom_site_symmetry_multiplicity
 _atom_site_fract_x
 _atom_site_fract_y
 _atom_site_fract_z
 _atom_site_occupancy
  In  In0  1  -0.00505737  0.16447395  0.13218425  1
  In  In1  1  0.00128552  0.16455110  0.62037643  1
  In  In2  1  0.01060566  0.48955640  0.12765635  1
  In  In3  1  0.00401239  0.50133619  0.63941834  1
  In  In4  1  -0.01282528  0.83992181  0.12697886  1
  In  In5  1  -0.00810437  0.84010571  0.62935810  1
  In  In6  1  0.31987885  0.16462823  0.13127270  1
  In  In7  1  0.34393962  0.17776964  0.61389821  1
  In  In8  1  0.34349273  0.50878937  0.11808396  1
  In  In9  1  0.32689316  0.48479587  0.62244969  1
  In  In10  1  0.32914416  0.83265835  0.13888662  1
  In  In11  1  0.34238502  0.83108950  0.62200861  1
  In  In12  1  0.68336054  0.17067897  0.12803545  1
  In  In13  1  0.66808546  0.16952417  0.62898004  1
  In  In14  1  0.65907727  0.51124722  0.12713576  1
  In  In15  1  0.66437199  0.50216954  0.62995359  1
  In  In16  1  0.66981103  0.81521571  0.12152296  1
  In  In17  1  0.68710486  0.81797103  0.62833468  1
  In  In18  1  0.16908783  0.00530083  0.37096930  1
  In  In19  1  0.16102799  0.01228094  0.87407884  1
  In  In20  1  0.15001379  0.33373806  0.37656749  1
  In  In21  1  0.16695474  0.34147596  0.86045753  1
  In  In22  1  0.16357678  0.66621965  0.36941964  1
  In  In23  1  0.14876484  0.65979791  0.87369090  1
  In  In24  1  0.49954991  0.01279985  0.37903323  1
  In  In25  1  0.51135544  -0.00786600  0.87190362  1
  In  In26  1  0.51001237  0.32943267  0.38404869  1
  In  In27  1  0.50980943  0.34824765  0.86832515  1
  In  In28  1  0.49274258  0.65430319  0.37186493  1
  In  In29  1  0.49963371  0.65490821  0.87591937  1
  In  In30  1  0.84254612  -0.00913419  0.38342171  1
  In  In31  1  0.83204230  0.00237541  0.86499069  1
  In  In32  1  0.82454282  0.33172774  0.37306939  1
  In  In33  1  0.84163296  0.34147310  0.85988538  1
  In  In34  1  0.84309168  0.67741178  0.37002160  1
  In  In35  1  0.83776333  0.67417604  0.87353844  1
  In  In36  1  -0.00285753  0.16702937  0.37959494  1
  In  In37  1  -0.00531363  0.16938263  0.85675479  1
  In  In38  1  0.00216372  0.50144153  0.36694055  1
  In  In39  1  0.00123828  0.49769442  0.87237859  1
  In  In40  1  -0.01609642  0.82334897  0.37031868  1
  In  In41  1  -0.00910785  0.83083416  0.87349499  1
  In  In42  1  0.33947054  0.16156054  0.38034114  1
  In  In43  1  0.31599989  0.17569803  0.87396994  1
  In  In44  1  0.33954321  0.51425809  0.37868783  1
  In  In45  1  0.34160216  0.49607243  0.87985139  1
  In  In46  1  0.32373988  0.82499859  0.36720030  1
  In  In47  1  0.34170323  0.83126644  0.87817138  1
  In  In48  1  0.65958597  0.17400801  0.38658107  1
  In  In49  1  0.68481311  0.17827029  0.85230582  1
  In  In50  1  0.65925231  0.49376412  0.37185422  1
  In  In51  1  0.66277517  0.50174172  0.87127916  1
  In  In52  1  0.68505105  0.83296294  0.37766939  1
  In  In53  1  0.67899508  0.84182826  0.86469262  1
  In  In54  1  0.15980064  0.00344935  0.13414323  1
  In  In55  1  0.14908045  0.00075218  0.62486076  1
  In  In56  1  0.14845043  0.33891605  0.12553006  1
  In  In57  1  0.17722007  0.33314769  0.63081412  1
  In  In58  1  0.17221051  0.65799104  0.13127288  1
  In  In59  1  0.15634777  0.65206998  0.62576405  1
  In  In60  1  0.50221734  -0.01431001  0.13090505  1
  In  In61  1  0.50170879  0.01637221  0.62007705  1
  In  In62  1  0.50067454  0.35176194  0.12415031  1
  In  In63  1  0.50196814  0.33289237  0.62613367  1
  In  In64  1  0.51022261  0.65361534  0.13388583  1
  In  In65  1  0.51160726  0.66706918  0.61814245  1
  In  In66  1  0.84780360  -0.00324490  0.12314621  1
  In  In67  1  0.83774191  0.00337039  0.62717418  1
  In  In68  1  0.83509168  0.33061766  0.13305704  1
  In  In69  1  0.84699533  0.31300155  0.64155476  1
  In  In70  1  0.82354831  0.67604142  0.12672588  1
  In  In71  1  0.83639224  0.66703065  0.62678707  1
  In  In72  1  0.16845327  0.49852898  0.49704364  1
  In  In73  1  0.33453172  0.33225782  0.25035758  1
  In  In74  1  0.16159451  0.83132343  0.49431050  1
  In  In75  1  0.50574878  0.83512330  0.49854493  1
  In  In76  1  0.16108545  0.82747235  -0.00549336  1
  In  In77  1  0.50404481  0.82173173  0.00645121  1
  In  In78  1  0.83979206  0.17173672  -0.01111689  1
  In  In79  1  0.50430567  0.16779914  -0.00520624  1
  In  In80  1  0.15692129  0.17380093  0.00593975  1
  In  In81  1  0.83166190  0.49765676  0.50785972  1
  In  In82  1  0.66668680  0.00151605  0.25582149  1
  In  In83  1  0.33037204  0.66612483  0.75066290  1
  In  In84  1  0.33133858  0.00627251  0.75507189  1
  In  In85  1  0.83465060  0.50273529  -0.00638677  1
  Cu  Cu86  1  0.33749335  0.32900553  0.50160633  1
  Cu  Cu87  1  0.83536808  0.16955158  0.25612763  1
  Cu  Cu88  1  0.16706114  0.49878600  0.25084237  1
  Cu  Cu89  1  0.67550822  -0.00123333  -0.01126092  1
  Cu  Cu90  1  -0.00410783  0.00389411  0.50176182  1
  Cu  Cu91  1  0.32531504  0.00221046  0.49674750  1
  Cu  Cu92  1  0.15695850  0.83294701  0.25132412  1
  Cu  Cu93  1  0.66433932  0.34313669  -0.00247026  1
  Cu  Cu94  1  0.50319723  0.17153970  0.25909764  1
  Cu  Cu95  1  0.16595501  0.17039371  0.74323637  1
  Cu  Cu96  1  0.16180152  0.16189615  0.25245874  1
  Cu  Cu97  1  0.67256559  0.00286370  0.50524892  1
  Cu  Cu98  1  0.66843511  0.32930928  0.50612319  1
  Cu  Cu99  1  0.51410768  0.83666766  0.74334593  1
  Cu  Cu100  1  0.49634459  0.17168627  0.74459870  1
  Cu  Cu101  1  0.33350382  -0.00167752  0.01113285  1
  Cu  Cu102  1  0.83225022  0.83149979  0.24917704  1
  Cu  Cu103  1  0.15992310  0.83021678  0.75101736  1
  Cu  Cu104  1  0.32983984  0.65661472  0.00669391  1
  Cu  Cu105  1  0.83349809  0.50300878  0.24854221  1
  Cu  Cu106  1  -0.00169215  0.66090678  -0.00026719  1
  Cu  Cu107  1  0.67353167  0.66139287  0.50182470  1
  Cu  Cu108  1  0.49607619  0.49990784  0.74916548  1
  Cu  Cu109  1  0.50430560  0.50109857  0.24917839  1
  Cu  Cu110  1  0.82783738  0.50631560  0.75055643  1
  Cu  Cu111  1  0.49683993  0.83098801  0.25285606  1
  Cu  Cu112  1  -0.00298911  0.33095577  0.50350094  1
  Cu  Cu113  1  0.33198040  0.34253682  -0.00499756  1
  Cu  Cu114  1  0.83796944  0.83282311  0.74824862  1
  Se  Se115  1  0.07095917  0.07415297  0.05863635  1
  Se  Se116  1  0.08646922  0.08532446  0.54834391  1
  Se  Se117  1  0.08107537  0.41556543  0.04825279  1
  Se  Se118  1  0.07739120  0.41389002  0.56073666  1
  Se  Se119  1  0.07808806  0.74163835  0.06198769  1
  Se  Se120  1  0.07674486  0.74675778  0.56085031  1
  Se  Se121  1  0.41694823  0.08152281  0.06441490  1
  Se  Se122  1  0.41485117  0.08292506  0.54674676  1
  Se  Se123  1  0.41970822  0.42053531  0.04854461  1
  Se  Se124  1  0.41864657  0.41429378  0.55424669  1
  Se  Se125  1  0.40556710  0.74213089  0.06636036  1
  Se  Se126  1  0.41110110  0.73993255  0.55076781  1
  Se  Se127  1  0.74980547  0.08073346  0.05307146  1
  Se  Se128  1  0.75221246  0.08756592  0.55971222  1
  Se  Se129  1  0.74863940  0.41362457  0.06109465  1
  Se  Se130  1  0.74966742  0.40410907  0.56886021  1
  Se  Se131  1  0.75303212  0.74976820  0.04752453  1
  Se  Se132  1  0.76038797  0.74521447  0.54954414  1
  Se  Se133  1  0.25778687  0.26282695  0.05954106  1
  Se  Se134  1  0.24538019  0.25274679  0.55247581  1
  Se  Se135  1  0.24066713  0.57509710  0.05463494  1
  Se  Se136  1  0.25772053  0.58997699  0.55705403  1
  Se  Se137  1  0.24852995  0.91634461  0.06271870  1
  Se  Se138  1  0.25279767  0.92031524  0.55949936  1
  Se  Se139  1  0.59307439  0.25542827  0.05900456  1
  Se  Se140  1  0.58130824  0.24639390  0.55709540  1
  Se  Se141  1  0.58209974  0.58782852  0.05305860  1
  Se  Se142  1  0.58874370  0.57771733  0.55141990  1
  Se  Se143  1  0.59614189  0.92555152  0.05499948  1
  Se  Se144  1  0.59298884  0.91851865  0.56460050  1
  Se  Se145  1  0.92340884  0.25587873  0.05811227  1
  Se  Se146  1  0.91178971  0.24816070  0.55476602  1
  Se  Se147  1  0.91940348  0.58449072  0.06382209  1
  Se  Se148  1  0.93054765  0.58405635  0.56097386  1
  Se  Se149  1  0.91417826  0.91330993  0.04916273  1
  Se  Se150  1  0.91544835  0.91768893  0.55456195  1
  Se  Se151  1  0.08222795  0.24862871  0.45037802  1
  Se  Se152  1  0.07965122  0.25014206  0.93062059  1
  Se  Se153  1  0.07443794  0.58987541  0.44251181  1
  Se  Se154  1  0.07998643  0.57585818  0.94812969  1
  Se  Se155  1  0.07179111  0.92282842  0.43704780  1
  Se  Se156  1  0.07668616  0.92616370  0.94064008  1
  Se  Se157  1  0.42138665  0.24614307  0.44745184  1
  Se  Se158  1  0.41056378  0.25780564  0.93777492  1
  Se  Se159  1  0.42765360  0.57741460  0.45143826  1
  Se  Se160  1  0.41817732  0.58294233  0.95013420  1
  Se  Se161  1  0.40573434  0.91856184  0.43875563  1
  Se  Se162  1  0.41577185  0.92549205  0.94852781  1
  Se  Se163  1  0.75400517  0.25130789  0.45004855  1
  Se  Se164  1  0.74368468  0.26464292  0.93633297  1
  Se  Se165  1  0.75156422  0.58349315  0.43737957  1
  Se  Se166  1  0.74181327  0.59389240  0.94010258  1
  Se  Se167  1  0.75275832  0.91607586  0.45284206  1
  Se  Se168  1  0.76001691  0.91590995  0.93919704  1
  Se  Se169  1  0.24362034  0.08738581  0.44492949  1
  Se  Se170  1  0.25581930  0.07844663  0.95005375  1
  Se  Se171  1  0.25928040  0.40666412  0.43663931  1
  Se  Se172  1  0.24405654  0.41502233  0.93850427  1
  Se  Se173  1  0.25672397  0.73682208  0.44385536  1
  Se  Se174  1  0.25856333  0.73647321  0.93986570  1
  Se  Se175  1  0.58374838  0.08158787  0.45309790  1
  Se  Se176  1  0.59948647  0.08581415  0.93280211  1
  Se  Se177  1  0.58963747  0.41670723  0.45139333  1
  Se  Se178  1  0.58041010  0.42578773  0.94618870  1
  Se  Se179  1  0.59353814  0.74230261  0.43953281  1
  Se  Se180  1  0.58860823  0.75157732  0.93262064  1
  Se  Se181  1  0.91118991  0.08790137  0.44953055  1
  Se  Se182  1  0.92873987  0.07811328  0.93454779  1
  Se  Se183  1  0.92300922  0.41436988  0.44156416  1
  Se  Se184  1  0.92167972  0.40302883  0.94255180  1
  Se  Se185  1  0.91128363  0.75242192  0.44940858  1
  Se  Se186  1  0.91869567  0.74874755  0.94862385  1
  Se  Se187  1  0.24283641  0.24498357  0.31129069  1
  Se  Se188  1  0.25143459  0.25298667  0.79517748  1
  Se  Se189  1  0.25013238  0.58037667  0.30574064  1
  Se  Se190  1  0.24520312  0.57736566  0.81243948  1
  Se  Se191  1  0.24464327  0.91481017  0.30303748  1
  Se  Se192  1  0.24292416  0.90685617  0.81233707  1
  Se  Se193  1  0.58898250  0.25353104  0.30849266  1
  Se  Se194  1  0.57885199  0.25411336  0.80045786  1
  Se  Se195  1  0.58671357  0.58573049  0.30286788  1
  Se  Se196  1  0.58039767  0.58508756  0.80034383  1
  Se  Se197  1  0.57652259  0.90915461  0.31574469  1
  Se  Se198  1  0.59224012  0.92325200  0.79662439  1
  Se  Se199  1  0.91838564  0.25367106  0.30933919  1
  Se  Se200  1  0.88892195  0.23099366  0.79657390  1
  Se  Se201  1  0.91711892  0.58572179  0.30217428  1
  Se  Se202  1  0.91470501  0.58269813  0.80785820  1
  Se  Se203  1  0.91267191  0.91834667  0.30238579  1
  Se  Se204  1  0.92081473  0.91795363  0.80094985  1
  Se  Se205  1  0.07572562  0.08289099  0.30706292  1
  Se  Se206  1  0.08645087  0.08323622  0.79618011  1
  Se  Se207  1  0.08136335  0.41336842  0.29954458  1
  Se  Se208  1  0.05836274  0.39998332  0.80103575  1
  Se  Se209  1  0.07622135  0.74724114  0.30425903  1
  Se  Se210  1  0.07729513  0.74897181  0.80551784  1
  Se  Se211  1  0.41703701  0.08459967  0.30417664  1
  Se  Se212  1  0.42442383  0.09536761  0.81517193  1
  Se  Se213  1  0.42488489  0.41971092  0.31123942  1
  Se  Se214  1  0.41214985  0.41681565  0.80206978  1
  Se  Se215  1  0.41541287  0.74463166  0.30470122  1
  Se  Se216  1  0.42921079  0.76043173  0.80391970  1
  Se  Se217  1  0.75461343  0.08922398  0.31757618  1
  Se  Se218  1  0.74554341  0.07332150  0.79323048  1
  Se  Se219  1  0.75029963  0.41984240  0.30342517  1
  Se  Se220  1  0.74402924  0.42028064  0.80140691  1
  Se  Se221  1  0.74804921  0.74796364  0.30093546  1
  Se  Se222  1  0.75294644  0.74751795  0.79957632  1
  Se  Se223  1  0.24966053  0.07890053  0.20287360  1
  Se  Se224  1  0.24919709  0.08806946  0.68472634  1
  Se  Se225  1  0.24825565  0.42173886  0.18818880  1
  Se  Se226  1  0.24035739  0.43021529  0.69920019  1
  Se  Se227  1  0.24425638  0.74735949  0.20209657  1
  Se  Se228  1  0.24309455  0.75876217  0.68850109  1
  Se  Se229  1  0.57887985  0.09224507  0.19166808  1
  Se  Se230  1  0.58028149  0.08474948  0.69685406  1
  Se  Se231  1  0.58837944  0.41699143  0.19719941  1
  Se  Se232  1  0.58127089  0.41702043  0.69670541  1
  Se  Se233  1  0.58181701  0.75311830  0.19685043  1
  Se  Se234  1  0.58837046  0.74535604  0.69162662  1
  Se  Se235  1  0.91132561  0.08225443  0.20003022  1
  Se  Se236  1  0.92861751  0.07981310  0.69268016  1
  Se  Se237  1  0.91807909  0.41758664  0.19717060  1
  Se  Se238  1  0.91240404  0.42005053  0.70086930  1
  Se  Se239  1  0.91591418  0.74799041  0.19580586  1
  Se  Se240  1  0.92102565  0.74588296  0.69723420  1
  Se  Se241  1  0.08347300  0.24671356  0.19656061  1
  Se  Se242  1  0.08139441  0.25233999  0.69008623  1
  Se  Se243  1  0.08140862  0.58101837  0.19790818  1
  Se  Se244  1  0.08783084  0.58401171  0.70628338  1
  Se  Se245  1  0.07541205  0.91642265  0.19658999  1
  Se  Se246  1  0.08004211  0.91769651  0.69925899  1
  Se  Se247  1  0.42702813  0.24391503  0.18873566  1
  Se  Se248  1  0.41058302  0.25387675  0.69405511  1
  Se  Se249  1  0.41344984  0.58145544  0.19905085  1
  Se  Se250  1  0.42033056  0.58170930  0.68636689  1
  Se  Se251  1  0.41460240  0.91897144  0.20326151  1
  Se  Se252  1  0.42303586  0.91673392  0.69230585  1
  Se  Se253  1  0.74990826  0.25229063  0.20394036  1
  Se  Se254  1  0.73779016  0.25738583  0.70144779  1
  Se  Se255  1  0.74884759  0.58592697  0.19545947  1
  Se  Se256  1  0.74793801  0.58910869  0.69465913  1
  Se  Se257  1  0.75060393  0.91392787  0.18942655  1
  Se  Se258  1  0.75398130  0.91514493  0.69400721  1
