# generated using pymatgen
data_In86Cu29Se144
_symmetry_space_group_name_H-M   'P 1'
_cell_length_a   17.57765721
_cell_length_b   17.57949051
_cell_length_c   23.43765665
_cell_angle_alpha   89.98172300
_cell_angle_beta   90.01747989
_cell_angle_gamma   89.99333064
_symmetry_Int_Tables_number   1
_chemical_formula_structural   In86Cu29Se144
_chemical_formula_sum   'In86 Cu29 Se144'
_cell_volume   7242.38182799
_cell_formula_units_Z   1
loop_
 _symmetry_equiv_pos_site_id
 _symmetry_equiv_pos_as_xyz
  1  'x, y, z'
loop_
 _atom_site_type_symbol
 _atom_site_label
 _atom_site_symmetry_multiplicity
 _atom_site_fract_x
 _atom_site_fract_y
 _atom_site_fract_z
 _atom_site_occupancy
  In  In0  1  -0.00258003  0.17110526  0.12970541  1
  In  In1  1  0.01626016  0.14960862  0.64120295  1
  In  In2  1  -0.01360984  0.50108441  0.12768033  1
  In  In3  1  -0.00689635  0.49309094  0.61977808  1
  In  In4  1  0.00054670  0.85086183  0.12555283  1
  In  In5  1  0.01294715  0.84253242  0.62656854  1
  In  In6  1  0.33537407  0.15609596  0.12411722  1
  In  In7  1  0.32130925  0.15083838  0.61570408  1
  In  In8  1  0.33307411  0.49163119  0.12260536  1
  In  In9  1  0.33383192  0.51649902  0.62444495  1
  In  In10  1  0.34430797  0.84281433  0.12617667  1
  In  In11  1  0.33029865  0.83115847  0.62927875  1
  In  In12  1  0.65546920  0.15448996  0.11639555  1
  In  In13  1  0.66425785  0.16368399  0.62542852  1
  In  In14  1  0.67420323  0.50932213  0.11919043  1
  In  In15  1  0.68000899  0.50046350  0.62060247  1
  In  In16  1  0.67324330  0.82710423  0.12946928  1
  In  In17  1  0.66344101  0.84156328  0.63223992  1
  In  In18  1  0.16511470  -0.00246492  0.38073746  1
  In  In19  1  0.16960747  -0.00159093  0.86341674  1
  In  In20  1  0.15070385  0.34076821  0.38389552  1
  In  In21  1  0.14977962  0.33677347  0.87015090  1
  In  In22  1  0.16799090  0.66488949  0.38654098  1
  In  In23  1  0.17291293  0.66539712  0.86516606  1
  In  In24  1  0.50086366  -0.00285729  0.37973712  1
  In  In25  1  0.50298400  0.00389493  0.87250355  1
  In  In26  1  0.48691638  0.33000492  0.37497692  1
  In  In27  1  0.51456686  0.32591881  0.88445778  1
  In  In28  1  0.52028031  0.67869375  0.37492180  1
  In  In29  1  0.50332019  0.66762136  0.87085035  1
  In  In30  1  0.83760531  0.00179601  0.36699273  1
  In  In31  1  0.82812208  0.00255141  0.87302764  1
  In  In32  1  0.84901967  0.33233960  0.37236004  1
  In  In33  1  0.83962235  0.32693460  0.88335174  1
  In  In34  1  0.81339309  0.66601148  0.38096885  1
  In  In35  1  0.81839774  0.68011162  0.87818565  1
  In  In36  1  0.00060382  0.17098810  0.37379127  1
  In  In37  1  -0.03867664  0.14084285  0.84522652  1
  In  In38  1  0.00668688  0.49030281  0.38148582  1
  In  In39  1  -0.00409598  0.48889560  0.87134206  1
  In  In40  1  0.00215757  0.84647336  0.38057446  1
  In  In41  1  -0.02011971  0.83594559  0.86650268  1
  In  In42  1  0.34178133  0.15405241  0.38518907  1
  In  In43  1  0.34553528  0.16082268  0.87813051  1
  In  In44  1  0.32462002  0.49537889  0.37855623  1
  In  In45  1  0.33921611  0.51302175  0.86964421  1
  In  In46  1  0.32152917  0.84808998  0.38600562  1
  In  In47  1  0.33958080  0.84279502  0.86065784  1
  In  In48  1  0.67082039  0.14602071  0.37504004  1
  In  In49  1  0.67644433  0.15448414  0.88417590  1
  In  In50  1  0.66445663  0.51840003  0.37578887  1
  In  In51  1  0.66100306  0.50823563  0.88000187  1
  In  In52  1  0.65937506  0.82566965  0.37457453  1
  In  In53  1  0.69124967  0.85385927  0.85180438  1
  In  In54  1  0.16714330  0.00158951  0.13656414  1
  In  In55  1  0.16641248  -0.00070934  0.62904521  1
  In  In56  1  0.16463385  0.32054139  0.13257273  1
  In  In57  1  0.15720937  0.31972729  0.61523929  1
  In  In58  1  0.16161711  0.66914727  0.12864756  1
  In  In59  1  0.17971526  0.68293505  0.61128988  1
  In  In60  1  0.49260547  0.01150384  0.12945055  1
  In  In61  1  0.49886292  -0.00565857  0.62398566  1
  In  In62  1  0.49495291  0.33199349  0.11525245  1
  In  In63  1  0.50933907  0.32062853  0.62128834  1
  In  In64  1  0.51575536  0.67784051  0.12331085  1
  In  In65  1  0.49139536  0.67219546  0.63057921  1
  In  In66  1  0.83237469  -0.00047629  0.12208578  1
  In  In67  1  0.84163842  -0.00854613  0.64697298  1
  In  In68  1  0.84134511  0.33641018  0.12089939  1
  In  In69  1  0.83271523  0.33860102  0.62740815  1
  In  In70  1  0.82464453  0.65847345  0.11881196  1
  In  In71  1  0.83490970  0.66099326  0.62782706  1
  In  In72  1  -0.00706294  0.66525208  0.25209280  1
  In  In73  1  0.83626047  0.83519752  0.51078438  1
  In  In74  1  0.67114135  0.32856611  0.75056282  1
  In  In75  1  0.50752167  0.83613447  -0.01165187  1
  In  In76  1  0.66918865  0.33172943  0.24259716  1
  In  In77  1  0.00117307  0.67081575  0.74289706  1
  In  In78  1  0.16322881  0.16970809  -0.00226524  1
  In  In79  1  0.49671023  0.49675841  0.49907403  1
  In  In80  1  0.16296206  0.49788288  -0.00264110  1
  In  In81  1  0.83463033  0.16289512  0.50200707  1
  In  In82  1  0.33438770  0.66966897  0.26347695  1
  In  In83  1  0.32507896  0.32960288  0.25185221  1
  In  In84  1  0.33316445  0.33286029  0.74966276  1
  In  In85  1  0.16528520  0.83961258  -0.00102386  1
  Cu  Cu86  1  0.32943333  0.32794173  0.49773102  1
  Cu  Cu87  1  0.66926437  0.66943231  -0.00224973  1
  Cu  Cu88  1  0.49709370  0.83011135  0.74753347  1
  Cu  Cu89  1  0.66663353  -0.00653837  0.50224944  1
  Cu  Cu90  1  -0.00455025  0.66276954  0.50454803  1
  Cu  Cu91  1  0.16843377  0.83817069  0.25630147  1
  Cu  Cu92  1  -0.00559067  0.32907522  -0.00062412  1
  Cu  Cu93  1  0.50513473  0.15979270  0.25316026  1
  Cu  Cu94  1  0.50186455  0.51157122  0.24479221  1
  Cu  Cu95  1  0.33704314  0.67140218  0.50189488  1
  Cu  Cu96  1  0.83174313  0.50315990  0.74929638  1
  Cu  Cu97  1  0.33498395  -0.00372297  0.50514955  1
  Cu  Cu98  1  0.16727355  0.16977404  0.74389138  1
  Cu  Cu99  1  -0.00175097  0.32968208  0.50134880  1
  Cu  Cu100  1  0.83078317  0.49948134  0.24646168  1
  Cu  Cu101  1  0.33765446  0.66532109  -0.00842143  1
  Cu  Cu102  1  0.66715548  -0.00636317  -0.00243266  1
  Cu  Cu103  1  0.67035114  0.33739912  0.00298924  1
  Cu  Cu104  1  0.16789509  0.50442597  0.74270371  1
  Cu  Cu105  1  -0.00904204  0.00338876  -0.00379349  1
  Cu  Cu106  1  -0.01028189  0.66727867  -0.00389812  1
  Cu  Cu107  1  0.34056062  0.33929823  -0.00485328  1
  Cu  Cu108  1  0.16553241  0.16311558  0.25876196  1
  Cu  Cu109  1  0.50455086  0.84635428  0.25093097  1
  Cu  Cu110  1  0.49723320  0.15415457  0.74743112  1
  Cu  Cu111  1  0.66815908  0.32890688  0.50182959  1
  Cu  Cu112  1  0.50508054  0.50232256  0.75187323  1
  Cu  Cu113  1  0.83256498  0.83611450  0.25123783  1
  Cu  Cu114  1  0.83592206  0.15845487  0.24657755  1
  Se  Se115  1  0.07839063  0.07400529  0.05885149  1
  Se  Se116  1  0.08929497  0.08806997  0.55976318  1
  Se  Se117  1  0.07864145  0.40574983  0.06055310  1
  Se  Se118  1  0.08306120  0.41653554  0.55183091  1
  Se  Se119  1  0.07318175  0.74372850  0.05653260  1
  Se  Se120  1  0.07692130  0.75357083  0.55162633  1
  Se  Se121  1  0.42102753  0.08764114  0.05238872  1
  Se  Se122  1  0.42233966  0.08265868  0.55303100  1
  Se  Se123  1  0.41951220  0.42563240  0.04909069  1
  Se  Se124  1  0.40814518  0.40642464  0.56234798  1
  Se  Se125  1  0.41314580  0.74774276  0.05358552  1
  Se  Se126  1  0.41750964  0.75380378  0.55686952  1
  Se  Se127  1  0.74939802  0.08030889  0.05087907  1
  Se  Se128  1  0.75145187  0.06783884  0.56369421  1
  Se  Se129  1  0.75511693  0.41977773  0.05545004  1
  Se  Se130  1  0.75345514  0.41226606  0.55109741  1
  Se  Se131  1  0.75125644  0.75300822  0.05296990  1
  Se  Se132  1  0.74196262  0.74465049  0.56337921  1
  Se  Se133  1  0.25940361  0.26099711  0.05661583  1
  Se  Se134  1  0.24649612  0.24257417  0.54915598  1
  Se  Se135  1  0.25390818  0.59362736  0.05590501  1
  Se  Se136  1  0.25096872  0.58225876  0.54746789  1
  Se  Se137  1  0.25530498  0.92790239  0.05987113  1
  Se  Se138  1  0.24974940  0.91579016  0.55937780  1
  Se  Se139  1  0.58382528  0.25141677  0.05161964  1
  Se  Se140  1  0.58639526  0.24046419  0.54914711  1
  Se  Se141  1  0.58410006  0.58875060  0.05220801  1
  Se  Se142  1  0.58172099  0.58475141  0.56166100  1
  Se  Se143  1  0.58582417  0.91911381  0.06169955  1
  Se  Se144  1  0.58253923  0.91076525  0.55467116  1
  Se  Se145  1  0.91553223  0.24267330  0.05421096  1
  Se  Se146  1  0.92305430  0.24930406  0.56478674  1
  Se  Se147  1  0.91513399  0.58007955  0.05214909  1
  Se  Se148  1  0.90940471  0.57968046  0.55388141  1
  Se  Se149  1  0.91400163  0.91512264  0.05083601  1
  Se  Se150  1  0.92471504  0.93391642  0.56163333  1
  Se  Se151  1  0.08123400  0.24376514  0.44983448  1
  Se  Se152  1  0.06860032  0.24903060  0.93639879  1
  Se  Se153  1  0.08039346  0.58108981  0.44998134  1
  Se  Se154  1  0.07629988  0.59269915  0.93676907  1
  Se  Se155  1  0.09425233  0.90668306  0.45121650  1
  Se  Se156  1  0.07341919  0.92462697  0.93673327  1
  Se  Se157  1  0.42051877  0.24747791  0.45046317  1
  Se  Se158  1  0.42049055  0.24795603  0.94732769  1
  Se  Se159  1  0.41336381  0.59266034  0.43611682  1
  Se  Se160  1  0.42459912  0.58284177  0.94305307  1
  Se  Se161  1  0.42090311  0.91447697  0.45112959  1
  Se  Se162  1  0.40583391  0.92479982  0.94147717  1
  Se  Se163  1  0.74683047  0.25237452  0.43636311  1
  Se  Se164  1  0.74921816  0.25030113  0.94912421  1
  Se  Se165  1  0.74551477  0.57948864  0.45367593  1
  Se  Se166  1  0.75384398  0.58303215  0.94695928  1
  Se  Se167  1  0.75174279  0.92018522  0.44067678  1
  Se  Se168  1  0.75100828  0.91285965  0.94256700  1
  Se  Se169  1  0.25047255  0.07898196  0.45077687  1
  Se  Se170  1  0.25163555  0.07547859  0.94155692  1
  Se  Se171  1  0.24635493  0.41595223  0.44952920  1
  Se  Se172  1  0.25554979  0.41186250  0.93367648  1
  Se  Se173  1  0.24843046  0.75285416  0.45116467  1
  Se  Se174  1  0.25588434  0.74916067  0.93754225  1
  Se  Se175  1  0.58544211  0.08078468  0.44972932  1
  Se  Se176  1  0.58096297  0.07945069  0.94842530  1
  Se  Se177  1  0.58936091  0.40791542  0.43734228  1
  Se  Se178  1  0.58530943  0.42049970  0.95013840  1
  Se  Se179  1  0.58930363  0.75122100  0.45375754  1
  Se  Se180  1  0.60217613  0.75204829  0.93070797  1
  Se  Se181  1  0.92380907  0.07337576  0.44239766  1
  Se  Se182  1  0.91145464  0.08926091  0.94201535  1
  Se  Se183  1  0.91447392  0.41460282  0.44937831  1
  Se  Se184  1  0.91622429  0.42147121  0.94936925  1
  Se  Se185  1  0.91886619  0.74456173  0.44130952  1
  Se  Se186  1  0.91187220  0.75558900  0.94426435  1
  Se  Se187  1  0.24552724  0.24297553  0.32005874  1
  Se  Se188  1  0.24477091  0.24395609  0.81244178  1
  Se  Se189  1  0.23564351  0.57457898  0.30810222  1
  Se  Se190  1  0.25401003  0.58315385  0.79608309  1
  Se  Se191  1  0.25255175  0.92329592  0.30642772  1
  Se  Se192  1  0.24254108  0.90906269  0.79620445  1
  Se  Se193  1  0.58152085  0.24634983  0.31034799  1
  Se  Se194  1  0.57741137  0.23706545  0.80679737  1
  Se  Se195  1  0.58532821  0.59080003  0.29971514  1
  Se  Se196  1  0.58956479  0.58614811  0.80247681  1
  Se  Se197  1  0.58974393  0.92250873  0.30860019  1
  Se  Se198  1  0.57646965  0.91685137  0.80152499  1
  Se  Se199  1  0.91595828  0.24492201  0.29971966  1
  Se  Se200  1  0.92634304  0.27236156  0.80506554  1
  Se  Se201  1  0.90559566  0.57685980  0.31440851  1
  Se  Se202  1  0.91300590  0.58474825  0.80912239  1
  Se  Se203  1  0.92169591  0.91417072  0.30267173  1
  Se  Se204  1  0.91768102  0.93198746  0.80001881  1
  Se  Se205  1  0.08136924  0.07921392  0.31033798  1
  Se  Se206  1  0.08639788  0.08824620  0.80117668  1
  Se  Se207  1  0.07611129  0.41010844  0.30546386  1
  Se  Se208  1  0.08351511  0.42384867  0.79626104  1
  Se  Se209  1  0.08930822  0.75118409  0.31088112  1
  Se  Se210  1  0.08693471  0.75999376  0.80741191  1
  Se  Se211  1  0.41936241  0.08144553  0.30841178  1
  Se  Se212  1  0.41047805  0.07637828  0.80208981  1
  Se  Se213  1  0.42172356  0.42947142  0.30342254  1
  Se  Se214  1  0.43035457  0.41555005  0.81069548  1
  Se  Se215  1  0.42399944  0.76748867  0.31452274  1
  Se  Se216  1  0.41593932  0.74449707  0.80173497  1
  Se  Se217  1  0.74908340  0.07727603  0.29757158  1
  Se  Se218  1  0.74358695  0.08490862  0.80399578  1
  Se  Se219  1  0.75098389  0.42070530  0.31001124  1
  Se  Se220  1  0.75397592  0.42270635  0.81254583  1
  Se  Se221  1  0.75015694  0.75160481  0.30440261  1
  Se  Se222  1  0.74993644  0.74317000  0.79410973  1
  Se  Se223  1  0.25169156  0.08923025  0.19994361  1
  Se  Se224  1  0.25385266  0.08269962  0.69833055  1
  Se  Se225  1  0.23806921  0.42632164  0.19420008  1
  Se  Se226  1  0.24621925  0.41843381  0.68441318  1
  Se  Se227  1  0.24752905  0.75880301  0.19377257  1
  Se  Se228  1  0.25103856  0.74075213  0.69513603  1
  Se  Se229  1  0.58859261  0.07953146  0.19790708  1
  Se  Se230  1  0.58446572  0.07788730  0.69272340  1
  Se  Se231  1  0.57481467  0.42352993  0.18673782  1
  Se  Se232  1  0.57957225  0.42041533  0.68920359  1
  Se  Se233  1  0.58377555  0.75471524  0.20141449  1
  Se  Se234  1  0.58345364  0.74814531  0.69664929  1
  Se  Se235  1  0.92051659  0.07631755  0.19274534  1
  Se  Se236  1  0.91351782  0.09193044  0.70669635  1
  Se  Se237  1  0.91566634  0.41302730  0.19914952  1
  Se  Se238  1  0.91524284  0.41975228  0.69730406  1
  Se  Se239  1  0.91055406  0.75606683  0.18739579  1
  Se  Se240  1  0.90940570  0.76418362  0.68861765  1
  Se  Se241  1  0.08247438  0.24559101  0.20337815  1
  Se  Se242  1  0.08281374  0.25930636  0.69905218  1
  Se  Se243  1  0.08729028  0.57478998  0.19418503  1
  Se  Se244  1  0.08899798  0.58268827  0.68034295  1
  Se  Se245  1  0.08219802  0.91798730  0.20248512  1
  Se  Se246  1  0.08315437  0.92228661  0.70147632  1
  Se  Se247  1  0.42535979  0.24499531  0.19485639  1
  Se  Se248  1  0.41943615  0.23984987  0.68889296  1
  Se  Se249  1  0.41569468  0.58844818  0.18751805  1
  Se  Se250  1  0.41657765  0.58245308  0.70082917  1
  Se  Se251  1  0.41493994  0.92443805  0.20002604  1
  Se  Se252  1  0.41511599  0.91674633  0.69552105  1
  Se  Se253  1  0.75595779  0.23830332  0.18457976  1
  Se  Se254  1  0.76117468  0.23767921  0.69356302  1
  Se  Se255  1  0.74758306  0.58620759  0.19707000  1
  Se  Se256  1  0.74654356  0.58367016  0.69719091  1
  Se  Se257  1  0.75108309  0.91834905  0.19450458  1
  Se  Se258  1  0.74458070  0.91634880  0.70561432  1
