# generated using pymatgen
data_In86Cu29Se144
_symmetry_space_group_name_H-M   'P 1'
_cell_length_a   17.58318317
_cell_length_b   17.58434534
_cell_length_c   23.43919921
_cell_angle_alpha   90.00666679
_cell_angle_beta   89.99136563
_cell_angle_gamma   89.98258348
_symmetry_Int_Tables_number   1
_chemical_formula_structural   In86Cu29Se144
_chemical_formula_sum   'In86 Cu29 Se144'
_cell_volume   7247.13659165
_cell_formula_units_Z   1
loop_
 _symmetry_equiv_pos_site_id
 _symmetry_equiv_pos_as_xyz
  1  'x, y, z'
loop_
 _atom_site_type_symbol
 _atom_site_label
 _atom_site_symmetry_multiplicity
 _atom_site_fract_x
 _atom_site_fract_y
 _atom_site_fract_z
 _atom_site_occupancy
  In  In0  1  0.00421965  0.15821182  0.13350867  1
  In  In1  1  -0.01208421  0.14943296  0.61363021  1
  In  In2  1  -0.01039842  0.48899313  0.12090833  1
  In  In3  1  -0.00865551  0.50618447  0.62784936  1
  In  In4  1  0.00952382  0.84243652  0.12132187  1
  In  In5  1  0.01163342  0.83041090  0.62207831  1
  In  In6  1  0.33320533  0.16222127  0.11514725  1
  In  In7  1  0.31939331  0.15710309  0.61566843  1
  In  In8  1  0.34912157  0.51528177  0.11066347  1
  In  In9  1  0.33661802  0.48566139  0.62685346  1
  In  In10  1  0.32878999  0.83600800  0.12351668  1
  In  In11  1  0.33762594  0.84869938  0.62913570  1
  In  In12  1  0.67493260  0.17710528  0.12541273  1
  In  In13  1  0.66279284  0.16707622  0.62445648  1
  In  In14  1  0.66675528  0.49487902  0.12913211  1
  In  In15  1  0.64399182  0.47692942  0.59648225  1
  In  In16  1  0.65898800  0.81597220  0.12435888  1
  In  In17  1  0.67698319  0.83803158  0.62596556  1
  In  In18  1  0.14673217  0.01285312  0.39001549  1
  In  In19  1  0.16645727  -0.00088971  0.87265700  1
  In  In20  1  0.15481965  0.33417809  0.37084321  1
  In  In21  1  0.16007885  0.33277352  0.88472101  1
  In  In22  1  0.18164284  0.66783574  0.37024965  1
  In  In23  1  0.17007028  0.66826960  0.89085703  1
  In  In24  1  0.50916586  0.00684567  0.37973673  1
  In  In25  1  0.51115671  0.01915011  0.86715439  1
  In  In26  1  0.51703589  0.32773884  0.38580960  1
  In  In27  1  0.50807809  0.32539185  0.88026527  1
  In  In28  1  0.49537076  0.66292772  0.36951610  1
  In  In29  1  0.48976188  0.65652490  0.88378844  1
  In  In30  1  0.85160237  0.00500132  0.37704426  1
  In  In31  1  0.82555301  -0.00504706  0.86666586  1
  In  In32  1  0.83079264  0.33357749  0.38089254  1
  In  In33  1  0.82651799  0.34707166  0.87279875  1
  In  In34  1  0.81486433  0.66260168  0.37128531  1
  In  In35  1  0.83672190  0.66438860  0.88479706  1
  In  In36  1  -0.00504765  0.16751135  0.38075255  1
  In  In37  1  0.01318129  0.16501171  0.87279047  1
  In  In38  1  0.00152110  0.48272471  0.36744922  1
  In  In39  1  -0.00487113  0.50025487  0.88363036  1
  In  In40  1  0.00120357  0.85413400  0.37343024  1
  In  In41  1  -0.00913887  0.83946033  0.88280452  1
  In  In42  1  0.33518772  0.16656720  0.38175039  1
  In  In43  1  0.33704396  0.16304601  0.87745454  1
  In  In44  1  0.33654360  0.51729136  0.36742033  1
  In  In45  1  0.33285522  0.50588069  0.88999276  1
  In  In46  1  0.32699568  0.81973850  0.37104610  1
  In  In47  1  0.31919848  0.83606893  0.88125549  1
  In  In48  1  0.66398478  0.18130275  0.39034190  1
  In  In49  1  0.65419862  0.15952956  0.86496006  1
  In  In50  1  0.66940664  0.49855629  0.38196977  1
  In  In51  1  0.67036635  0.49325248  0.87790298  1
  In  In52  1  0.66809695  0.82942097  0.36708912  1
  In  In53  1  0.66829246  0.85518677  0.88281501  1
  In  In54  1  0.16217437  -0.00678720  0.11750181  1
  In  In55  1  0.16411739  -0.00149699  0.62830541  1
  In  In56  1  0.16081933  0.32434255  0.11928300  1
  In  In57  1  0.17854925  0.32769254  0.62693892  1
  In  In58  1  0.18070426  0.67619434  0.11432586  1
  In  In59  1  0.15291140  0.66606057  0.62464114  1
  In  In60  1  0.49276679  -0.00294607  0.11866478  1
  In  In61  1  0.49141643  0.00957996  0.63157433  1
  In  In62  1  0.50924842  0.33990055  0.12272498  1
  In  In63  1  0.50517253  0.33343704  0.61488257  1
  In  In64  1  0.51616225  0.66013430  0.13860660  1
  In  In65  1  0.50718207  0.65009110  0.62188719  1
  In  In66  1  0.84652782  0.00829754  0.12437849  1
  In  In67  1  0.82876951  0.00186250  0.63312785  1
  In  In68  1  0.82199033  0.33950422  0.13577696  1
  In  In69  1  0.80538883  0.31147157  0.60089601  1
  In  In70  1  0.82103648  0.65220830  0.12013760  1
  In  In71  1  0.83302910  0.66120530  0.61506886  1
  In  In72  1  0.49873721  0.82992079  -0.00006979  1
  In  In73  1  0.33493782  0.33819149  0.24329790  1
  In  In74  1  0.32775005  -0.00706259  0.24426678  1
  In  In75  1  0.32870581  0.67261057  0.76569874  1
  In  In76  1  0.49402916  0.83361358  0.49487418  1
  In  In77  1  0.00187304  0.66793414  0.23995945  1
  In  In78  1  0.16884575  0.49646349  0.49636798  1
  In  In79  1  0.83402835  0.83265251  0.49551938  1
  In  In80  1  -0.00347392  0.33064631  0.75092390  1
  In  In81  1  0.33713507  0.33108167  0.75391390  1
  In  In82  1  0.83036797  0.16653606  0.00015419  1
  In  In83  1  0.67088400  0.00022181  0.25318603  1
  In  In84  1  -0.00197517  0.66996274  0.75083289  1
  In  In85  1  0.66918726  0.67236492  0.74777338  1
  Cu  Cu86  1  0.33175238  0.32988285  0.00076895  1
  Cu  Cu87  1  0.83641903  0.17449621  0.25663261  1
  Cu  Cu88  1  0.16657063  0.15897184  0.74611576  1
  Cu  Cu89  1  0.50476860  0.84396700  0.75259484  1
  Cu  Cu90  1  0.00522848  0.00138884  -0.00034506  1
  Cu  Cu91  1  0.16521295  0.83693712  0.75172984  1
  Cu  Cu92  1  0.15685951  0.16783317  0.25203626  1
  Cu  Cu93  1  0.33266180  0.00494665  -0.00376202  1
  Cu  Cu94  1  0.50513176  0.16791995  0.25382055  1
  Cu  Cu95  1  0.66636892  0.65819429  0.00444049  1
  Cu  Cu96  1  0.00272113  0.33200349  0.49740956  1
  Cu  Cu97  1  0.66707324  0.00504634  0.50352037  1
  Cu  Cu98  1  0.83207251  0.16826008  0.74150067  1
  Cu  Cu99  1  0.83418644  0.83294179  0.24926342  1
  Cu  Cu100  1  0.33351160  0.66764643  0.49637436  1
  Cu  Cu101  1  0.32545027  0.00011833  0.50505955  1
  Cu  Cu102  1  0.16357761  0.84045311  0.24581719  1
  Cu  Cu103  1  0.34013914  0.33393714  0.49745062  1
  Cu  Cu104  1  0.83380338  0.83998667  0.75363997  1
  Cu  Cu105  1  0.50743206  0.49460390  0.25156115  1
  Cu  Cu106  1  0.17115206  0.50205538  0.24343978  1
  Cu  Cu107  1  0.82980079  0.49694222  0.25155260  1
  Cu  Cu108  1  0.00193961  0.67008384  0.49400809  1
  Cu  Cu109  1  0.50128044  0.17263135  0.74701981  1
  Cu  Cu110  1  0.00009772  0.66729211  0.00780043  1
  Cu  Cu111  1  0.66486004  0.33562911  0.00303387  1
  Cu  Cu112  1  -0.00662040  0.33023916  0.00192019  1
  Cu  Cu113  1  0.50228969  0.49589105  0.74681625  1
  Cu  Cu114  1  0.82374215  0.49466953  0.74430716  1
  Se  Se115  1  0.08302615  0.08807020  0.05529978  1
  Se  Se116  1  0.10297785  0.09658432  0.55937158  1
  Se  Se117  1  0.07995346  0.41326947  0.05312300  1
  Se  Se118  1  0.07951041  0.41177059  0.56209703  1
  Se  Se119  1  0.08635555  0.75568843  0.05243803  1
  Se  Se120  1  0.08667433  0.74872930  0.54836160  1
  Se  Se121  1  0.42136563  0.08412891  0.04773432  1
  Se  Se122  1  0.41694201  0.08174603  0.55270552  1
  Se  Se123  1  0.41922810  0.41051580  0.05285279  1
  Se  Se124  1  0.41850569  0.42107033  0.55036341  1
  Se  Se125  1  0.42108403  0.74207290  0.06765723  1
  Se  Se126  1  0.41051962  0.74378475  0.56328625  1
  Se  Se127  1  0.74149961  0.07432975  0.05868469  1
  Se  Se128  1  0.75227899  0.08157133  0.55969315  1
  Se  Se129  1  0.75117529  0.41570512  0.05706816  1
  Se  Se130  1  0.77514580  0.44164227  0.55676439  1
  Se  Se131  1  0.74848721  0.74698423  0.05312130  1
  Se  Se132  1  0.73730758  0.74342145  0.55162583  1
  Se  Se133  1  0.24679422  0.24465249  0.05061624  1
  Se  Se134  1  0.25086324  0.25461243  0.54873085  1
  Se  Se135  1  0.24359670  0.57582523  0.04965831  1
  Se  Se136  1  0.25590880  0.58666116  0.56116011  1
  Se  Se137  1  0.25350460  0.91788089  0.05058202  1
  Se  Se138  1  0.24716403  0.91279132  0.55770028  1
  Se  Se139  1  0.58505236  0.24785921  0.05525878  1
  Se  Se140  1  0.59620778  0.25617630  0.55118275  1
  Se  Se141  1  0.58315459  0.57880883  0.06017152  1
  Se  Se142  1  0.58294134  0.58904382  0.54226166  1
  Se  Se143  1  0.59277954  0.91973894  0.05679726  1
  Se  Se144  1  0.58482629  0.92084596  0.55950784  1
  Se  Se145  1  0.91606982  0.25250020  0.06645785  1
  Se  Se146  1  0.91904315  0.24760566  0.54913111  1
  Se  Se147  1  0.91369295  0.57923812  0.05330240  1
  Se  Se148  1  0.92452700  0.58526577  0.54918985  1
  Se  Se149  1  0.92004615  0.92108400  0.05389002  1
  Se  Se150  1  0.91795478  0.91790388  0.56182261  1
  Se  Se151  1  0.08841060  0.25028021  0.44550033  1
  Se  Se152  1  0.07847409  0.24648049  0.95088577  1
  Se  Se153  1  0.08056263  0.58634277  0.43281842  1
  Se  Se154  1  0.07868629  0.58312337  0.95038110  1
  Se  Se155  1  0.08380308  0.90989512  0.45270011  1
  Se  Se156  1  0.08686072  0.91646309  0.94497393  1
  Se  Se157  1  0.42250975  0.24666799  0.44724856  1
  Se  Se158  1  0.41651970  0.24869447  0.94548447  1
  Se  Se159  1  0.41683388  0.58397708  0.44526439  1
  Se  Se160  1  0.41906190  0.58059003  0.95924112  1
  Se  Se161  1  0.40242864  0.92585722  0.43688769  1
  Se  Se162  1  0.41784812  0.92689002  0.93641989  1
  Se  Se163  1  0.76145118  0.24771021  0.45511183  1
  Se  Se164  1  0.74153473  0.25595171  0.93868816  1
  Se  Se165  1  0.75804283  0.57975707  0.44900196  1
  Se  Se166  1  0.74997402  0.57809079  0.94682802  1
  Se  Se167  1  0.74073595  0.92559538  0.43764430  1
  Se  Se168  1  0.76896179  0.91316146  0.94799451  1
  Se  Se169  1  0.24865014  0.08683922  0.44840758  1
  Se  Se170  1  0.24577064  0.08521700  0.94276906  1
  Se  Se171  1  0.26061877  0.41166855  0.43297902  1
  Se  Se172  1  0.24763750  0.41420717  0.94944282  1
  Se  Se173  1  0.24613449  0.75043750  0.44862299  1
  Se  Se174  1  0.26657478  0.74060113  0.95324520  1
  Se  Se175  1  0.58109052  0.08825932  0.45255110  1
  Se  Se176  1  0.58879615  0.08540903  0.94543194  1
  Se  Se177  1  0.58738562  0.41846845  0.45343641  1
  Se  Se178  1  0.58144749  0.41847626  0.94744869  1
  Se  Se179  1  0.58871305  0.74613186  0.43921830  1
  Se  Se180  1  0.59412530  0.74105442  0.93878642  1
  Se  Se181  1  0.92620285  0.07697838  0.45263460  1
  Se  Se182  1  0.92269389  0.07973925  0.93899232  1
  Se  Se183  1  0.92174288  0.41864435  0.44557147  1
  Se  Se184  1  0.91065487  0.41438114  0.94842042  1
  Se  Se185  1  0.92223698  0.74466511  0.43042821  1
  Se  Se186  1  0.91719661  0.74954775  0.95146667  1
  Se  Se187  1  0.24832815  0.24441967  0.30584999  1
  Se  Se188  1  0.23786765  0.24464725  0.80899845  1
  Se  Se189  1  0.25287171  0.58851356  0.29337428  1
  Se  Se190  1  0.23909676  0.57456106  0.81541187  1
  Se  Se191  1  0.23738317  0.91791029  0.31345113  1
  Se  Se192  1  0.25283716  0.91719738  0.80353044  1
  Se  Se193  1  0.58787113  0.24782338  0.30856754  1
  Se  Se194  1  0.58362836  0.25765352  0.79928442  1
  Se  Se195  1  0.58648950  0.57833693  0.30895953  1
  Se  Se196  1  0.57680526  0.58175498  0.80749541  1
  Se  Se197  1  0.56998711  0.91159724  0.30631631  1
  Se  Se198  1  0.59111794  0.92418605  0.80443146  1
  Se  Se199  1  0.92001284  0.25599151  0.31094981  1
  Se  Se200  1  0.90552908  0.24144605  0.81236548  1
  Se  Se201  1  0.91519441  0.58085551  0.30602109  1
  Se  Se202  1  0.90470053  0.57383785  0.80541735  1
  Se  Se203  1  0.91505267  0.92070054  0.29871260  1
  Se  Se204  1  0.92360383  0.91897010  0.80391688  1
  Se  Se205  1  0.07814582  0.08478170  0.30841915  1
  Se  Se206  1  0.08195400  0.07793600  0.80030034  1
  Se  Se207  1  0.08847793  0.41604189  0.29327032  1
  Se  Se208  1  0.08386716  0.42164188  0.81168945  1
  Se  Se209  1  0.08634885  0.75572015  0.30674347  1
  Se  Se210  1  0.08986797  0.75380196  0.81375262  1
  Se  Se211  1  0.41947930  0.08566451  0.30619152  1
  Se  Se212  1  0.41582910  0.09072771  0.80046474  1
  Se  Se213  1  0.42451111  0.41616808  0.31198592  1
  Se  Se214  1  0.42184754  0.42567496  0.81375886  1
  Se  Se215  1  0.41288221  0.74727106  0.30295953  1
  Se  Se216  1  0.42960640  0.76285147  0.81533726  1
  Se  Se217  1  0.75440751  0.09200526  0.31648903  1
  Se  Se218  1  0.75061489  0.08674866  0.80037867  1
  Se  Se219  1  0.74970451  0.41548639  0.30968835  1
  Se  Se220  1  0.73944916  0.41445038  0.79868938  1
  Se  Se221  1  0.74773352  0.74837032  0.29617839  1
  Se  Se222  1  0.75723845  0.75631249  0.81375830  1
  Se  Se223  1  0.24037009  0.09219233  0.19038177  1
  Se  Se224  1  0.25533644  0.07829286  0.69602385  1
  Se  Se225  1  0.24889980  0.42375475  0.17948672  1
  Se  Se226  1  0.24063081  0.42486148  0.70046648  1
  Se  Se227  1  0.24684926  0.75578209  0.19451195  1
  Se  Se228  1  0.24343211  0.75255864  0.69240800  1
  Se  Se229  1  0.57815092  0.08535269  0.18984893  1
  Se  Se230  1  0.58482331  0.08424491  0.69695668  1
  Se  Se231  1  0.58896593  0.40809497  0.20032927  1
  Se  Se232  1  0.58238500  0.41815089  0.68736305  1
  Se  Se233  1  0.58817205  0.75185198  0.20592689  1
  Se  Se234  1  0.57177828  0.75885416  0.68818700  1
  Se  Se235  1  0.91412213  0.08549496  0.20353896  1
  Se  Se236  1  0.92060801  0.08199584  0.69808820  1
  Se  Se237  1  0.91712090  0.41500989  0.20046932  1
  Se  Se238  1  0.90546547  0.41274858  0.68684562  1
  Se  Se239  1  0.90847152  0.75569561  0.18235639  1
  Se  Se240  1  0.90541371  0.75650991  0.68891602  1
  Se  Se241  1  0.07997987  0.25482748  0.19700463  1
  Se  Se242  1  0.08583089  0.24208620  0.68858319  1
  Se  Se243  1  0.09051467  0.57867476  0.18021039  1
  Se  Se244  1  0.09070789  0.57196778  0.69906195  1
  Se  Se245  1  0.08065903  0.92653224  0.19621482  1
  Se  Se246  1  0.07927282  0.91477634  0.69689681  1
  Se  Se247  1  0.42285543  0.23968366  0.18905381  1
  Se  Se248  1  0.41698308  0.24551022  0.68400438  1
  Se  Se249  1  0.42107279  0.57476193  0.19714934  1
  Se  Se250  1  0.41524135  0.58073498  0.69699860  1
  Se  Se251  1  0.42809099  0.90541547  0.19343038  1
  Se  Se252  1  0.41509638  0.92391566  0.70311806  1
  Se  Se253  1  0.74592937  0.25039675  0.20450200  1
  Se  Se254  1  0.74766656  0.25357681  0.69242397  1
  Se  Se255  1  0.74655207  0.58139570  0.19926804  1
  Se  Se256  1  0.74857437  0.57945303  0.68474085  1
  Se  Se257  1  0.75499046  0.91360538  0.18645102  1
  Se  Se258  1  0.74474605  0.91905234  0.70208419  1
