# generated using pymatgen
data_In86Cu29Se144
_symmetry_space_group_name_H-M   'P 1'
_cell_length_a   17.58994566
_cell_length_b   17.58162220
_cell_length_c   23.44756036
_cell_angle_alpha   89.99471795
_cell_angle_beta   90.01523708
_cell_angle_gamma   89.98769276
_symmetry_Int_Tables_number   1
_chemical_formula_structural   In86Cu29Se144
_chemical_formula_sum   'In86 Cu29 Se144'
_cell_volume   7251.38688076
_cell_formula_units_Z   1
loop_
 _symmetry_equiv_pos_site_id
 _symmetry_equiv_pos_as_xyz
  1  'x, y, z'
loop_
 _atom_site_type_symbol
 _atom_site_label
 _atom_site_symmetry_multiplicity
 _atom_site_fract_x
 _atom_site_fract_y
 _atom_site_fract_z
 _atom_site_occupancy
  In  In0  1  -0.00606355  0.15777829  0.11807089  1
  In  In1  1  0.00184141  0.16646780  0.62002069  1
  In  In2  1  -0.01728238  0.49959638  0.12066959  1
  In  In3  1  -0.01721632  0.49727346  0.62101022  1
  In  In4  1  0.01073463  0.84400879  0.12749773  1
  In  In5  1  -0.00026452  0.84692424  0.63180805  1
  In  In6  1  0.34532481  0.18051413  0.10928313  1
  In  In7  1  0.34087923  0.17561942  0.61974277  1
  In  In8  1  0.34662553  0.49183746  0.13695749  1
  In  In9  1  0.34166342  0.49051517  0.62641774  1
  In  In10  1  0.34026036  0.82165908  0.12736234  1
  In  In11  1  0.33586229  0.82011519  0.62909157  1
  In  In12  1  0.66182088  0.17143801  0.11944113  1
  In  In13  1  0.66300988  0.16194574  0.62099054  1
  In  In14  1  0.67252153  0.48969680  0.13250421  1
  In  In15  1  0.67378546  0.50586937  0.62157795  1
  In  In16  1  0.65391032  0.83608635  0.12499818  1
  In  In17  1  0.66101924  0.84738172  0.63598452  1
  In  In18  1  0.16284519  0.01776259  0.37869926  1
  In  In19  1  0.16241684  0.01897817  0.88415710  1
  In  In20  1  0.16334964  0.31940718  0.37813250  1
  In  In21  1  0.15333609  0.32141612  0.86322802  1
  In  In22  1  0.17162127  0.65643622  0.37396416  1
  In  In23  1  0.16946759  0.65225575  0.86897680  1
  In  In24  1  0.49528003  0.00241774  0.38481694  1
  In  In25  1  0.50124705  -0.01156364  0.88542470  1
  In  In26  1  0.50450870  0.33268718  0.37220067  1
  In  In27  1  0.49588406  0.33761507  0.87359507  1
  In  In28  1  0.50315496  0.66526561  0.37692862  1
  In  In29  1  0.50998720  0.67065363  0.86735865  1
  In  In30  1  0.84557717  0.01032343  0.37243275  1
  In  In31  1  0.84659732  0.01730223  0.85373035  1
  In  In32  1  0.82768241  0.34014546  0.38826008  1
  In  In33  1  0.84184897  0.31476090  0.88462311  1
  In  In34  1  0.81741928  0.66106502  0.37336546  1
  In  In35  1  0.81252284  0.67278263  0.87011192  1
  In  In36  1  0.00583712  0.16577456  0.39057188  1
  In  In37  1  -0.00406039  0.16209686  0.87494865  1
  In  In38  1  -0.01277454  0.48518044  0.38301481  1
  In  In39  1  0.00346943  0.48150003  0.87095999  1
  In  In40  1  -0.00599403  0.84620793  0.37706055  1
  In  In41  1  -0.00736157  0.85665235  0.87005066  1
  In  In42  1  0.33333508  0.17076948  0.37693671  1
  In  In43  1  0.32601542  0.16859460  0.88132840  1
  In  In44  1  0.34327539  0.51203072  0.36874997  1
  In  In45  1  0.33640014  0.49711807  0.86450083  1
  In  In46  1  0.35052406  0.83581154  0.37764898  1
  In  In47  1  0.34994580  0.83444436  0.87694623  1
  In  In48  1  0.65110373  0.18099369  0.37969871  1
  In  In49  1  0.68051451  0.15621976  0.88301358  1
  In  In50  1  0.66555790  0.49554898  0.37651478  1
  In  In51  1  0.66127511  0.50587937  0.87503848  1
  In  In52  1  0.66630968  0.81914285  0.37231979  1
  In  In53  1  0.66284381  0.82815346  0.86619947  1
  In  In54  1  0.15503242  0.00584777  0.12654183  1
  In  In55  1  0.15219434  0.01258832  0.62873638  1
  In  In56  1  0.18215633  0.32971032  0.12713432  1
  In  In57  1  0.17455940  0.32136063  0.62749118  1
  In  In58  1  0.17707680  0.67735894  0.12681076  1
  In  In59  1  0.17232948  0.67893954  0.62775799  1
  In  In60  1  0.50123097  0.00585062  0.10984408  1
  In  In61  1  0.50787772  0.00598139  0.61869014  1
  In  In62  1  0.50902725  0.31370598  0.14739704  1
  In  In63  1  0.49133302  0.32584900  0.61800104  1
  In  In64  1  0.49948698  0.67044842  0.13124043  1
  In  In65  1  0.50246567  0.66639205  0.62225389  1
  In  In66  1  0.83616895  0.01716507  0.12298198  1
  In  In67  1  0.82855482  0.00781325  0.63243109  1
  In  In68  1  0.81357413  0.31829177  0.10920967  1
  In  In69  1  0.84418786  0.33437585  0.61371472  1
  In  In70  1  0.82906163  0.64974299  0.12342090  1
  In  In71  1  0.82519785  0.65482486  0.62574402  1
  In  In72  1  0.50726932  0.48956892  0.00166916  1
  In  In73  1  0.16740114  0.49475056  0.00546410  1
  In  In74  1  0.16496763  0.49468474  0.50147564  1
  In  In75  1  0.33237588  0.00405769  0.25233863  1
  In  In76  1  -0.00170393  0.33314610  0.25707000  1
  In  In77  1  0.16911618  0.84216026  0.50485356  1
  In  In78  1  0.66681048  0.00509451  0.24202984  1
  In  In79  1  0.17277414  0.83763339  -0.00636794  1
  In  In80  1  0.33217524  -0.00138168  0.76112048  1
  In  In81  1  0.00100020  0.66217717  0.74578495  1
  In  In82  1  0.66662870  0.33490447  0.75286635  1
  In  In83  1  0.00579331  0.66796777  0.24519351  1
  In  In84  1  0.82984759  0.83848390  -0.00596460  1
  In  In85  1  0.82761028  0.84163010  0.50926949  1
  Cu  Cu86  1  0.17105898  0.83806084  0.24848699  1
  Cu  Cu87  1  0.34649095  0.66475791  0.00161439  1
  Cu  Cu88  1  0.50010771  0.83120542  0.75117663  1
  Cu  Cu89  1  0.49826884  0.50211033  0.74592396  1
  Cu  Cu90  1  0.50423666  0.50325048  0.25527567  1
  Cu  Cu91  1  0.34226739  0.66692424  0.50008872  1
  Cu  Cu92  1  0.66729758  0.00013224  -0.00292824  1
  Cu  Cu93  1  0.50171957  0.83132221  0.25200362  1
  Cu  Cu94  1  0.33918328  0.33498910  0.49714243  1
  Cu  Cu95  1  0.00016663  0.32469117  -0.00559227  1
  Cu  Cu96  1  0.17373435  0.49311323  0.74534226  1
  Cu  Cu97  1  0.50365844  0.16308923  0.74430814  1
  Cu  Cu98  1  0.82755399  0.49601765  0.25233789  1
  Cu  Cu99  1  0.16486238  0.16818119  0.75234380  1
  Cu  Cu100  1  0.16361450  0.16597204  0.25412750  1
  Cu  Cu101  1  0.16685142  0.83486811  0.75016566  1
  Cu  Cu102  1  0.66864494  -0.00265539  0.50131647  1
  Cu  Cu103  1  0.83181120  0.17317778  0.24680836  1
  Cu  Cu104  1  -0.00744983  0.66905244  -0.00125703  1
  Cu  Cu105  1  0.32804443  0.33062980  -0.00525434  1
  Cu  Cu106  1  0.83658203  0.83386270  0.25378369  1
  Cu  Cu107  1  0.65989341  0.66240127  0.49731015  1
  Cu  Cu108  1  0.66141532  0.66901410  -0.00489449  1
  Cu  Cu109  1  0.83333254  0.49497569  0.74741196  1
  Cu  Cu110  1  -0.01144966  0.66919721  0.50236392  1
  Cu  Cu111  1  0.17456685  0.50140609  0.24867782  1
  Cu  Cu112  1  0.33504069  0.00431691  0.50229968  1
  Cu  Cu113  1  0.83813455  0.17262356  0.74847469  1
  Cu  Cu114  1  0.66302583  0.33264846  0.50133271  1
  Se  Se115  1  0.08620290  0.08587430  0.05123740  1
  Se  Se116  1  0.09477843  0.09446778  0.55056836  1
  Se  Se117  1  0.07315261  0.40327701  0.06253487  1
  Se  Se118  1  0.07804057  0.40826476  0.56324257  1
  Se  Se119  1  0.07795881  0.74412825  0.05554230  1
  Se  Se120  1  0.07152234  0.74735831  0.55921305  1
  Se  Se121  1  0.40462485  0.07579818  0.04683864  1
  Se  Se122  1  0.42126667  0.08799793  0.55323731  1
  Se  Se123  1  0.40795754  0.40711849  0.05737448  1
  Se  Se124  1  0.42099087  0.42042253  0.54925050  1
  Se  Se125  1  0.42614658  0.75014001  0.05441603  1
  Se  Se126  1  0.42041569  0.75411118  0.55374198  1
  Se  Se127  1  0.74529887  0.08475129  0.05360557  1
  Se  Se128  1  0.75063174  0.07986473  0.55502167  1
  Se  Se129  1  0.76024245  0.43392277  0.05528930  1
  Se  Se130  1  0.74837462  0.41535328  0.55409040  1
  Se  Se131  1  0.74453882  0.74589226  0.05808203  1
  Se  Se132  1  0.73736883  0.74426907  0.56048266  1
  Se  Se133  1  0.24175851  0.24859205  0.04679878  1
  Se  Se134  1  0.25432904  0.25207972  0.54951097  1
  Se  Se135  1  0.26342170  0.58625140  0.06115003  1
  Se  Se136  1  0.25438144  0.59145838  0.55826861  1
  Se  Se137  1  0.25211061  0.91525143  0.06777388  1
  Se  Se138  1  0.25927008  0.92709678  0.56848088  1
  Se  Se139  1  0.57494783  0.25989519  0.05906708  1
  Se  Se140  1  0.58074409  0.24599114  0.55315298  1
  Se  Se141  1  0.58955685  0.58759426  0.06094074  1
  Se  Se142  1  0.58075220  0.57832253  0.55372519  1
  Se  Se143  1  0.58410576  0.91416964  0.04828200  1
  Se  Se144  1  0.58589381  0.91283560  0.55385283  1
  Se  Se145  1  0.91503439  0.24536419  0.05060795  1
  Se  Se146  1  0.90035979  0.22743736  0.55222647  1
  Se  Se147  1  0.91012717  0.58130618  0.04642955  1
  Se  Se148  1  0.90616983  0.58191025  0.55064507  1
  Se  Se149  1  0.92097751  0.92270678  0.05857209  1
  Se  Se150  1  0.92550144  0.93174681  0.55853462  1
  Se  Se151  1  0.07539717  0.26447972  0.45337013  1
  Se  Se152  1  0.08583682  0.24402797  0.94197954  1
  Se  Se153  1  0.07171690  0.59078447  0.44303599  1
  Se  Se154  1  0.07620076  0.58513146  0.94293269  1
  Se  Se155  1  0.07536585  0.92983509  0.44776519  1
  Se  Se156  1  0.07087044  0.92920842  0.94855038  1
  Se  Se157  1  0.42153186  0.25030067  0.44337490  1
  Se  Se158  1  0.41768353  0.25304730  0.94297862  1
  Se  Se159  1  0.42144690  0.58104746  0.44687147  1
  Se  Se160  1  0.41845085  0.58090742  0.93874310  1
  Se  Se161  1  0.41848416  0.91559210  0.45443028  1
  Se  Se162  1  0.40991595  0.91634666  0.95414153  1
  Se  Se163  1  0.74536449  0.24690755  0.44923130  1
  Se  Se164  1  0.74861852  0.24799162  0.95194205  1
  Se  Se165  1  0.74830158  0.57942441  0.44795320  1
  Se  Se166  1  0.74665005  0.58604407  0.94438138  1
  Se  Se167  1  0.74547805  0.92155801  0.43461264  1
  Se  Se168  1  0.74470252  0.92574148  0.93100742  1
  Se  Se169  1  0.25322461  0.08704965  0.44774730  1
  Se  Se170  1  0.26762307  0.06812155  0.94972889  1
  Se  Se171  1  0.25814457  0.41549601  0.43644905  1
  Se  Se172  1  0.24891506  0.41206227  0.93457867  1
  Se  Se173  1  0.25433196  0.74531594  0.44359427  1
  Se  Se174  1  0.25746991  0.73378291  0.94023582  1
  Se  Se175  1  0.58544836  0.08266215  0.44804069  1
  Se  Se176  1  0.58145961  0.08426376  0.94603724  1
  Se  Se177  1  0.58090681  0.41592598  0.44591241  1
  Se  Se178  1  0.59893755  0.40185677  0.94242805  1
  Se  Se179  1  0.58123428  0.75311107  0.44721401  1
  Se  Se180  1  0.58104547  0.75386578  0.94215635  1
  Se  Se181  1  0.90823562  0.08897660  0.45109966  1
  Se  Se182  1  0.90786857  0.08002753  0.93987845  1
  Se  Se183  1  0.91691044  0.41111632  0.45911431  1
  Se  Se184  1  0.91956727  0.41431274  0.94544540  1
  Se  Se185  1  0.91202848  0.74885514  0.43964328  1
  Se  Se186  1  0.92153012  0.74778486  0.93288220  1
  Se  Se187  1  0.24851182  0.24889941  0.30535523  1
  Se  Se188  1  0.25455140  0.24753506  0.80382581  1
  Se  Se189  1  0.25477937  0.58989502  0.29906762  1
  Se  Se190  1  0.25365886  0.58119892  0.79649308  1
  Se  Se191  1  0.24446545  0.91356325  0.31701313  1
  Se  Se192  1  0.23909619  0.90947204  0.81979766  1
  Se  Se193  1  0.58372951  0.25250034  0.29946424  1
  Se  Se194  1  0.58030969  0.24056468  0.81073736  1
  Se  Se195  1  0.58890914  0.58580853  0.30804196  1
  Se  Se196  1  0.58559785  0.58147448  0.79895540  1
  Se  Se197  1  0.58017451  0.91696490  0.30978456  1
  Se  Se198  1  0.57721423  0.91995970  0.80509655  1
  Se  Se199  1  0.90799635  0.24489334  0.31608983  1
  Se  Se200  1  0.92149794  0.25255907  0.80412961  1
  Se  Se201  1  0.91617349  0.57659752  0.30708390  1
  Se  Se202  1  0.91262058  0.57615549  0.81054928  1
  Se  Se203  1  0.91854724  0.92160434  0.30112613  1
  Se  Se204  1  0.90489671  0.90882334  0.79307399  1
  Se  Se205  1  0.07525430  0.09012920  0.30832919  1
  Se  Se206  1  0.08286832  0.08212989  0.80436384  1
  Se  Se207  1  0.09181559  0.42889041  0.31174596  1
  Se  Se208  1  0.08247089  0.41328885  0.79367063  1
  Se  Se209  1  0.08940516  0.75887754  0.31202442  1
  Se  Se210  1  0.08472204  0.75481397  0.81164089  1
  Se  Se211  1  0.42773478  0.09028031  0.30870879  1
  Se  Se212  1  0.42678613  0.08989901  0.81338852  1
  Se  Se213  1  0.41850693  0.41801110  0.30489277  1
  Se  Se214  1  0.41912816  0.41310515  0.79762993  1
  Se  Se215  1  0.41888620  0.74832653  0.30594066  1
  Se  Se216  1  0.41528105  0.74721453  0.80256997  1
  Se  Se217  1  0.75068663  0.09273974  0.30786579  1
  Se  Se218  1  0.74450894  0.09181762  0.79564977  1
  Se  Se219  1  0.75097275  0.41082660  0.30927125  1
  Se  Se220  1  0.75940583  0.41837378  0.81502176  1
  Se  Se221  1  0.75064335  0.74724155  0.29866214  1
  Se  Se222  1  0.74578360  0.75139616  0.79448391  1
  Se  Se223  1  0.24582268  0.09270590  0.19044067  1
  Se  Se224  1  0.25158488  0.08975378  0.69408666  1
  Se  Se225  1  0.25525956  0.41177885  0.20053590  1
  Se  Se226  1  0.25709382  0.40867668  0.69339955  1
  Se  Se227  1  0.25546124  0.75061512  0.20212431  1
  Se  Se228  1  0.25249634  0.74873874  0.70391706  1
  Se  Se229  1  0.56843568  0.09064448  0.18881146  1
  Se  Se230  1  0.58751828  0.07868129  0.69497781  1
  Se  Se231  1  0.58474364  0.41632897  0.20253050  1
  Se  Se232  1  0.57793511  0.41886960  0.68684613  1
  Se  Se233  1  0.58793722  0.75000522  0.19959254  1
  Se  Se234  1  0.58150468  0.74946085  0.69449071  1
  Se  Se235  1  0.91796872  0.08796996  0.19847176  1
  Se  Se236  1  0.92125670  0.08795381  0.69531047  1
  Se  Se237  1  0.90575915  0.41386269  0.19202780  1
  Se  Se238  1  0.91487277  0.41108386  0.69470577  1
  Se  Se239  1  0.91127593  0.75517957  0.18590834  1
  Se  Se240  1  0.91043055  0.75127496  0.68767398  1
  Se  Se241  1  0.08537763  0.24712253  0.19122892  1
  Se  Se242  1  0.08233689  0.24741835  0.69429774  1
  Se  Se243  1  0.09199171  0.57270043  0.18392085  1
  Se  Se244  1  0.09185911  0.57244501  0.68379154  1
  Se  Se245  1  0.08356462  0.92279755  0.20280802  1
  Se  Se246  1  0.08502034  0.92267029  0.70168799  1
  Se  Se247  1  0.39745422  0.24871354  0.19759175  1
  Se  Se248  1  0.41886002  0.24940474  0.69657633  1
  Se  Se249  1  0.42002569  0.58653059  0.20084658  1
  Se  Se250  1  0.41550568  0.58560127  0.69143861  1
  Se  Se251  1  0.42665763  0.91634733  0.19135990  1
  Se  Se252  1  0.42033698  0.91616844  0.69249167  1
  Se  Se253  1  0.74523491  0.25008241  0.19227918  1
  Se  Se254  1  0.75408448  0.24946999  0.68813609  1
  Se  Se255  1  0.74723915  0.58383619  0.20027919  1
  Se  Se256  1  0.74633109  0.58041791  0.70126230  1
  Se  Se257  1  0.76037005  0.91105937  0.18691847  1
  Se  Se258  1  0.76130616  0.91146189  0.69907847  1
