# generated using pymatgen
data_In86Cu29Se144
_symmetry_space_group_name_H-M   'P 1'
_cell_length_a   17.56570097
_cell_length_b   17.56631980
_cell_length_c   23.42947710
_cell_angle_alpha   89.98505972
_cell_angle_beta   90.00671691
_cell_angle_gamma   89.99635323
_symmetry_Int_Tables_number   1
_chemical_formula_structural   In86Cu29Se144
_chemical_formula_sum   'In86 Cu29 Se144'
_cell_volume   7229.50975381
_cell_formula_units_Z   1
loop_
 _symmetry_equiv_pos_site_id
 _symmetry_equiv_pos_as_xyz
  1  'x, y, z'
loop_
 _atom_site_type_symbol
 _atom_site_label
 _atom_site_symmetry_multiplicity
 _atom_site_fract_x
 _atom_site_fract_y
 _atom_site_fract_z
 _atom_site_occupancy
  In  In0  1  -0.00728176  0.15941736  0.11648217  1
  In  In1  1  -0.00270129  0.16298175  0.63184073  1
  In  In2  1  -0.00496807  0.50819270  0.11390666  1
  In  In3  1  0.00263299  0.50260095  0.63450419  1
  In  In4  1  0.00167965  0.84564737  0.12236003  1
  In  In5  1  -0.01629013  0.85065816  0.64877451  1
  In  In6  1  0.32301337  0.15663851  0.11698713  1
  In  In7  1  0.33070978  0.16714034  0.62320070  1
  In  In8  1  0.34492117  0.50342320  0.12876335  1
  In  In9  1  0.33544850  0.49761785  0.62294606  1
  In  In10  1  0.33494920  0.83317066  0.13488140  1
  In  In11  1  0.34058395  0.82095714  0.62188716  1
  In  In12  1  0.66775272  0.16768793  0.12715793  1
  In  In13  1  0.66813608  0.16475559  0.62053493  1
  In  In14  1  0.66130750  0.49284313  0.12640952  1
  In  In15  1  0.66754247  0.50957000  0.62570198  1
  In  In16  1  0.68343719  0.83635317  0.12344730  1
  In  In17  1  0.65874870  0.82796190  0.61544346  1
  In  In18  1  0.17640678  0.01291467  0.36181813  1
  In  In19  1  0.14562961  0.02006595  0.87184652  1
  In  In20  1  0.15424100  0.32159868  0.37457551  1
  In  In21  1  0.13725502  0.28866417  0.83661370  1
  In  In22  1  0.17446660  0.65757491  0.38004776  1
  In  In23  1  0.16072920  0.67322953  0.85646373  1
  In  In24  1  0.50235618  0.00394465  0.37524369  1
  In  In25  1  0.50843502  0.00326015  0.87667508  1
  In  In26  1  0.50789391  0.31955949  0.38596671  1
  In  In27  1  0.48840436  0.33191377  0.87134311  1
  In  In28  1  0.48198247  0.68220264  0.39619373  1
  In  In29  1  0.49762731  0.65794629  0.86173252  1
  In  In30  1  0.83352657  0.00355063  0.37497613  1
  In  In31  1  0.84163792  -0.00330527  0.87578887  1
  In  In32  1  0.81663701  0.33145868  0.36997113  1
  In  In33  1  0.86465926  0.31223338  0.89891448  1
  In  In34  1  0.84768472  0.67438736  0.38095007  1
  In  In35  1  0.83096748  0.66626385  0.86858648  1
  In  In36  1  0.01012990  0.14887799  0.38386688  1
  In  In37  1  -0.00482400  0.16173752  0.86905662  1
  In  In38  1  0.00781414  0.50335508  0.37821721  1
  In  In39  1  -0.01034984  0.48655381  0.87178642  1
  In  In40  1  -0.01353220  0.84453340  0.38625267  1
  In  In41  1  -0.02364378  0.81969609  0.84557391  1
  In  In42  1  0.33295983  0.16247059  0.37812400  1
  In  In43  1  0.32130913  0.17185352  0.88167715  1
  In  In44  1  0.33511715  0.51482241  0.37816278  1
  In  In45  1  0.32655674  0.49298058  0.86416173  1
  In  In46  1  0.33718422  0.83884266  0.37630697  1
  In  In47  1  0.33953614  0.82720272  0.86901605  1
  In  In48  1  0.67007806  0.16603360  0.37441420  1
  In  In49  1  0.66936713  0.16549885  0.88181634  1
  In  In50  1  0.66140427  0.48404509  0.37236087  1
  In  In51  1  0.67302064  0.51160578  0.87027218  1
  In  In52  1  0.65977697  0.84557214  0.38148842  1
  In  In53  1  0.69093496  0.83320979  0.86831865  1
  In  In54  1  0.15655669  0.01307550  0.14287135  1
  In  In55  1  0.15415956  0.00334383  0.63363075  1
  In  In56  1  0.16527509  0.32234450  0.11913578  1
  In  In57  1  0.16627229  0.32161604  0.63720633  1
  In  In58  1  0.16665851  0.67775474  0.12529471  1
  In  In59  1  0.17474356  0.67938927  0.63810560  1
  In  In60  1  0.48860306  0.01248845  0.13593031  1
  In  In61  1  0.50256855  0.00291089  0.61050505  1
  In  In62  1  0.51234150  0.33537637  0.12892352  1
  In  In63  1  0.48945106  0.32183817  0.61498891  1
  In  In64  1  0.49303204  0.65875117  0.12893094  1
  In  In65  1  0.49914821  0.66739600  0.61559113  1
  In  In66  1  0.83314664  0.00234581  0.12498132  1
  In  In67  1  0.84315653  0.00489837  0.62845914  1
  In  In68  1  0.82149668  0.31503228  0.10886342  1
  In  In69  1  0.84678297  0.32660273  0.63254114  1
  In  In70  1  0.83585955  0.67772467  0.11106713  1
  In  In71  1  0.81781006  0.68355817  0.64657041  1
  In  In72  1  0.16537690  0.48915771  -0.01245230  1
  In  In73  1  0.00816490  0.67134117  0.25641506  1
  In  In74  1  -0.01133958  0.32327112  0.23590177  1
  In  In75  1  0.67618094  0.33676419  0.74791112  1
  In  In76  1  0.32561002  -0.00017147  0.74557041  1
  In  In77  1  0.16283520  0.84529173  -0.00742315  1
  In  In78  1  0.50534211  0.83801704  -0.00217863  1
  In  In79  1  0.65839660  0.67352397  0.25439759  1
  In  In80  1  0.67143507  -0.00268106  0.75360259  1
  In  In81  1  0.50599647  0.49519099  0.00350521  1
  In  In82  1  0.83267819  0.49535208  0.50013939  1
  In  In83  1  0.17092158  0.49686445  0.51478371  1
  In  In84  1  0.33607949  0.32740229  0.25755055  1
  In  In85  1  0.16744170  0.83936535  0.50898350  1
  Cu  Cu86  1  0.83531115  0.84324127  0.25245802  1
  Cu  Cu87  1  -0.00927979  0.67020739  -0.01441959  1
  Cu  Cu88  1  0.32438058  0.00647860  0.00461275  1
  Cu  Cu89  1  0.33286494  0.00573753  0.49505684  1
  Cu  Cu90  1  0.67018077  0.33515863  0.00285141  1
  Cu  Cu91  1  -0.00272816  -0.00137836  -0.00101335  1
  Cu  Cu92  1  0.33041757  0.32133576  -0.00548702  1
  Cu  Cu93  1  0.67399534  0.67602996  -0.00838121  1
  Cu  Cu94  1  0.66665101  0.32762729  0.50014345  1
  Cu  Cu95  1  0.49538900  0.50728293  0.25412874  1
  Cu  Cu96  1  -0.00438344  0.67343109  0.51536396  1
  Cu  Cu97  1  0.83391356  0.16524761  0.24593279  1
  Cu  Cu98  1  0.17377135  0.83018931  0.25268933  1
  Cu  Cu99  1  0.67242199  0.66451572  0.50471293  1
  Cu  Cu100  1  0.66721896  0.00834617  0.00198645  1
  Cu  Cu101  1  0.49861459  0.83505259  0.25958465  1
  Cu  Cu102  1  -0.00279803  0.00135209  0.50676179  1
  Cu  Cu103  1  0.50483594  0.17149252  0.25468922  1
  Cu  Cu104  1  0.17933221  0.50189110  0.74837202  1
  Cu  Cu105  1  0.49791349  0.50086935  0.74091816  1
  Cu  Cu106  1  0.17381856  0.49661067  0.25355072  1
  Cu  Cu107  1  0.49463399  0.16776866  0.74813833  1
  Cu  Cu108  1  0.67736986  0.00081721  0.49596981  1
  Cu  Cu109  1  -0.00556661  0.31663366  0.50313414  1
  Cu  Cu110  1  0.33025552  0.65858741  -0.00131063  1
  Cu  Cu111  1  0.82355286  0.50183158  0.24369850  1
  Cu  Cu112  1  0.32310818  0.33271833  0.50199709  1
  Cu  Cu113  1  0.83755898  0.49835494  0.75780977  1
  Cu  Cu114  1  0.50256054  0.82340284  0.74190475  1
  Se  Se115  1  0.08554056  0.07285727  0.05647386  1
  Se  Se116  1  0.08162137  0.08459868  0.55915578  1
  Se  Se117  1  0.07576521  0.40795641  0.05419104  1
  Se  Se118  1  0.07084756  0.40477919  0.56173059  1
  Se  Se119  1  0.07339612  0.74446891  0.05125508  1
  Se  Se120  1  0.07658571  0.75475705  0.57152962  1
  Se  Se121  1  0.42007596  0.08272239  0.05264502  1
  Se  Se122  1  0.41422138  0.09052969  0.55088466  1
  Se  Se123  1  0.40726942  0.40368981  0.05690808  1
  Se  Se124  1  0.41216939  0.41495498  0.55012879  1
  Se  Se125  1  0.41130864  0.74318905  0.05538584  1
  Se  Se126  1  0.43108241  0.76432761  0.54812449  1
  Se  Se127  1  0.75267895  0.08863609  0.05668166  1
  Se  Se128  1  0.75449384  0.07900608  0.55817723  1
  Se  Se129  1  0.74891499  0.42412103  0.05481358  1
  Se  Se130  1  0.74609027  0.40492647  0.56420835  1
  Se  Se131  1  0.75472878  0.76340948  0.04347943  1
  Se  Se132  1  0.75796824  0.74605993  0.55693415  1
  Se  Se133  1  0.24378052  0.24198743  0.04798553  1
  Se  Se134  1  0.24173247  0.25069239  0.55761952  1
  Se  Se135  1  0.24953651  0.58118149  0.05857370  1
  Se  Se136  1  0.25686052  0.60092575  0.56074748  1
  Se  Se137  1  0.25172390  0.91879246  0.06455007  1
  Se  Se138  1  0.26095332  0.93161590  0.56617968  1
  Se  Se139  1  0.58578287  0.25319300  0.05671301  1
  Se  Se140  1  0.58236373  0.24246163  0.55169868  1
  Se  Se141  1  0.59370162  0.59849628  0.05617547  1
  Se  Se142  1  0.58541535  0.57839655  0.55050300  1
  Se  Se143  1  0.58738240  0.92665572  0.06366150  1
  Se  Se144  1  0.58806122  0.91910066  0.54606262  1
  Se  Se145  1  0.92900140  0.25677354  0.05001042  1
  Se  Se146  1  0.90989386  0.23786583  0.55811253  1
  Se  Se147  1  0.91260706  0.58778187  0.04460023  1
  Se  Se148  1  0.91288297  0.58522407  0.56593396  1
  Se  Se149  1  0.91305878  0.91667751  0.05333077  1
  Se  Se150  1  0.92033984  0.91347327  0.56071185  1
  Se  Se151  1  0.08590053  0.24139818  0.45100872  1
  Se  Se152  1  0.08826719  0.24163244  0.93299818  1
  Se  Se153  1  0.07639053  0.59331030  0.45505458  1
  Se  Se154  1  0.08221111  0.59376981  0.93341643  1
  Se  Se155  1  0.08450887  0.92934065  0.44385594  1
  Se  Se156  1  0.06276058  0.91646947  0.92988117  1
  Se  Se157  1  0.40798433  0.24981022  0.44800942  1
  Se  Se158  1  0.42285002  0.24328518  0.94494826  1
  Se  Se159  1  0.41284284  0.58007880  0.45626699  1
  Se  Se160  1  0.41452234  0.58076503  0.94029897  1
  Se  Se161  1  0.41815533  0.92171268  0.44513203  1
  Se  Se162  1  0.40491225  0.92647346  0.94247185  1
  Se  Se163  1  0.75286356  0.24799468  0.44685090  1
  Se  Se164  1  0.75141791  0.24719132  0.95162260  1
  Se  Se165  1  0.74547217  0.58630766  0.43582399  1
  Se  Se166  1  0.75417538  0.58465822  0.94443241  1
  Se  Se167  1  0.75979401  0.91321112  0.44535308  1
  Se  Se168  1  0.74533378  0.92510154  0.94379742  1
  Se  Se169  1  0.24236151  0.08461046  0.44555263  1
  Se  Se170  1  0.23997635  0.08120661  0.94507845  1
  Se  Se171  1  0.24681229  0.41221367  0.43749107  1
  Se  Se172  1  0.25368768  0.39810148  0.93117254  1
  Se  Se173  1  0.25436554  0.74769977  0.44691575  1
  Se  Se174  1  0.25243517  0.74262388  0.93977323  1
  Se  Se175  1  0.58927298  0.08285011  0.44449545  1
  Se  Se176  1  0.57935917  0.08795343  0.94925435  1
  Se  Se177  1  0.58348724  0.41518583  0.45064046  1
  Se  Se178  1  0.59142374  0.41074081  0.93664566  1
  Se  Se179  1  0.59191628  0.74953074  0.44919520  1
  Se  Se180  1  0.58481324  0.74510673  0.93131442  1
  Se  Se181  1  0.91268736  0.08233974  0.45052934  1
  Se  Se182  1  0.91550339  0.08486909  0.94568476  1
  Se  Se183  1  0.92533104  0.40547608  0.43966128  1
  Se  Se184  1  0.91717389  0.42646412  0.95535060  1
  Se  Se185  1  0.91605277  0.75492018  0.45763325  1
  Se  Se186  1  0.91170131  0.75938895  0.93418164  1
  Se  Se187  1  0.23681356  0.23723998  0.30515225  1
  Se  Se188  1  0.27150581  0.25649141  0.80043263  1
  Se  Se189  1  0.25225413  0.58646017  0.30254673  1
  Se  Se190  1  0.25946720  0.59230964  0.79968600  1
  Se  Se191  1  0.25669670  0.91683610  0.30345469  1
  Se  Se192  1  0.24511046  0.92148332  0.81889325  1
  Se  Se193  1  0.58820691  0.25523825  0.30656136  1
  Se  Se194  1  0.58086408  0.24434669  0.80600974  1
  Se  Se195  1  0.57367358  0.58557802  0.31835683  1
  Se  Se196  1  0.58539387  0.57763782  0.79622896  1
  Se  Se197  1  0.58556112  0.92066721  0.30453567  1
  Se  Se198  1  0.57559111  0.90248659  0.80824695  1
  Se  Se199  1  0.91214562  0.24308106  0.31178356  1
  Se  Se200  1  0.91988820  0.26141905  0.80592871  1
  Se  Se201  1  0.90889620  0.57371119  0.30655058  1
  Se  Se202  1  0.92444534  0.58537022  0.80514088  1
  Se  Se203  1  0.92206091  0.92219840  0.30595955  1
  Se  Se204  1  0.90995437  0.92991224  0.79106976  1
  Se  Se205  1  0.07386113  0.07940800  0.30065926  1
  Se  Se206  1  0.06190937  0.07510204  0.79060895  1
  Se  Se207  1  0.08224509  0.41814431  0.30248472  1
  Se  Se208  1  0.09616698  0.42622720  0.80843824  1
  Se  Se209  1  0.09232342  0.76073430  0.32159231  1
  Se  Se210  1  0.09445856  0.77072431  0.79076656  1
  Se  Se211  1  0.41940386  0.08897343  0.30709835  1
  Se  Se212  1  0.42004597  0.08515760  0.80932586  1
  Se  Se213  1  0.42389971  0.42018110  0.31648366  1
  Se  Se214  1  0.41949215  0.41751344  0.79812422  1
  Se  Se215  1  0.41743644  0.74772204  0.30948878  1
  Se  Se216  1  0.41513803  0.74551430  0.79683760  1
  Se  Se217  1  0.75155340  0.08401041  0.30391508  1
  Se  Se218  1  0.75724677  0.09337059  0.80897289  1
  Se  Se219  1  0.74404086  0.41541775  0.29625663  1
  Se  Se220  1  0.76266447  0.41309361  0.81802928  1
  Se  Se221  1  0.75909242  0.75712824  0.31172218  1
  Se  Se222  1  0.74625714  0.74074443  0.79556022  1
  Se  Se223  1  0.26701131  0.07483241  0.19767524  1
  Se  Se224  1  0.23536285  0.10028271  0.69774478  1
  Se  Se225  1  0.24779273  0.41641951  0.18963611  1
  Se  Se226  1  0.25438096  0.41489349  0.69272012  1
  Se  Se227  1  0.25275648  0.74342372  0.19955970  1
  Se  Se228  1  0.25769541  0.76634166  0.70242567  1
  Se  Se229  1  0.58605516  0.08680903  0.19844003  1
  Se  Se230  1  0.57563963  0.08436827  0.69209910  1
  Se  Se231  1  0.57940497  0.42421005  0.20216386  1
  Se  Se232  1  0.57611138  0.41408650  0.68485935  1
  Se  Se233  1  0.57318718  0.76295659  0.18736714  1
  Se  Se234  1  0.58698680  0.74247580  0.68872344  1
  Se  Se235  1  0.91912382  0.08267277  0.19399175  1
  Se  Se236  1  0.93539638  0.06442079  0.70448329  1
  Se  Se237  1  0.90607817  0.42669184  0.18254669  1
  Se  Se238  1  0.91854345  0.41749204  0.70037953  1
  Se  Se239  1  0.91210159  0.75456542  0.19307922  1
  Se  Se240  1  0.93273592  0.73259778  0.70246533  1
  Se  Se241  1  0.09128751  0.23426124  0.19040691  1
  Se  Se242  1  0.06235969  0.26166223  0.70029539  1
  Se  Se243  1  0.08947158  0.57542524  0.19128953  1
  Se  Se244  1  0.09249632  0.58442108  0.69745339  1
  Se  Se245  1  0.08416055  0.90832279  0.20024586  1
  Se  Se246  1  0.10463514  0.89808656  0.70101788  1
  Se  Se247  1  0.42224709  0.24481303  0.18984375  1
  Se  Se248  1  0.41360965  0.24947130  0.69314887  1
  Se  Se249  1  0.40950914  0.58994768  0.20420723  1
  Se  Se250  1  0.41741435  0.58657706  0.68772522  1
  Se  Se251  1  0.41683621  0.91692851  0.20148292  1
  Se  Se252  1  0.42918406  0.91848117  0.68891616  1
  Se  Se253  1  0.75254955  0.25396451  0.19496464  1
  Se  Se254  1  0.75946417  0.23346186  0.69549650  1
  Se  Se255  1  0.75106047  0.59261360  0.18672729  1
  Se  Se256  1  0.75012513  0.57510989  0.70245456  1
  Se  Se257  1  0.74945008  0.92188359  0.19775404  1
  Se  Se258  1  0.74961702  0.91003931  0.68566915  1
