# generated using pymatgen
data_In86Cu29Se144
_symmetry_space_group_name_H-M   'P 1'
_cell_length_a   17.58720220
_cell_length_b   17.58982194
_cell_length_c   23.44680461
_cell_angle_alpha   89.98346304
_cell_angle_beta   90.01298677
_cell_angle_gamma   90.02146696
_symmetry_Int_Tables_number   1
_chemical_formula_structural   In86Cu29Se144
_chemical_formula_sum   'In86 Cu29 Se144'
_cell_volume   7253.40294469
_cell_formula_units_Z   1
loop_
 _symmetry_equiv_pos_site_id
 _symmetry_equiv_pos_as_xyz
  1  'x, y, z'
loop_
 _atom_site_type_symbol
 _atom_site_label
 _atom_site_symmetry_multiplicity
 _atom_site_fract_x
 _atom_site_fract_y
 _atom_site_fract_z
 _atom_site_occupancy
  In  In0  1  0.00254943  0.16609033  0.11905458  1
  In  In1  1  -0.00169992  0.16769492  0.61791739  1
  In  In2  1  -0.01343198  0.51289554  0.13176523  1
  In  In3  1  0.00993865  0.50400041  0.63449383  1
  In  In4  1  -0.01601195  0.84144896  0.12169679  1
  In  In5  1  -0.01583616  0.82988906  0.62180119  1
  In  In6  1  0.32467692  0.15453855  0.11642328  1
  In  In7  1  0.33637564  0.16330213  0.62786955  1
  In  In8  1  0.33389368  0.50953399  0.12126772  1
  In  In9  1  0.34860046  0.48228989  0.64013231  1
  In  In10  1  0.34904600  0.83659410  0.12026943  1
  In  In11  1  0.33244100  0.83757973  0.63441912  1
  In  In12  1  0.66663811  0.17109015  0.11633297  1
  In  In13  1  0.66766199  0.16665826  0.62945309  1
  In  In14  1  0.68233549  0.49777206  0.12368121  1
  In  In15  1  0.65652755  0.51387799  0.63666687  1
  In  In16  1  0.66373426  0.83139171  0.12055163  1
  In  In17  1  0.68022902  0.82350256  0.63113869  1
  In  In18  1  0.18179413  -0.00264590  0.37018418  1
  In  In19  1  0.17927691  0.00450888  0.87230401  1
  In  In20  1  0.15033076  0.33375103  0.37549593  1
  In  In21  1  0.16806002  0.31950658  0.86932205  1
  In  In22  1  0.15577023  0.67133625  0.37407091  1
  In  In23  1  0.15686246  0.65856644  0.85857980  1
  In  In24  1  0.49777291  0.01287376  0.37762933  1
  In  In25  1  0.50097943  -0.00021015  0.87290416  1
  In  In26  1  0.50072961  0.33286405  0.38600205  1
  In  In27  1  0.49601043  0.32858556  0.86595644  1
  In  In28  1  0.50196139  0.65744039  0.38115882  1
  In  In29  1  0.51180889  0.67494947  0.86735664  1
  In  In30  1  0.82852420  0.00553758  0.38234615  1
  In  In31  1  0.82284272  0.01416847  0.88841549  1
  In  In32  1  0.83968502  0.32307553  0.37545387  1
  In  In33  1  0.82715440  0.33573206  0.87890655  1
  In  In34  1  0.83846963  0.67228616  0.37187940  1
  In  In35  1  0.82905174  0.66931647  0.87627961  1
  In  In36  1  -0.00828531  0.17637055  0.37892420  1
  In  In37  1  0.00459936  0.15828563  0.88941836  1
  In  In38  1  -0.00317301  0.49892078  0.36701377  1
  In  In39  1  -0.02194359  0.49744765  0.87131438  1
  In  In40  1  0.00055764  0.82030465  0.36874425  1
  In  In41  1  -0.00559316  0.82406689  0.88082948  1
  In  In42  1  0.33920126  0.16186455  0.38176894  1
  In  In43  1  0.33612759  0.16970347  0.87033250  1
  In  In44  1  0.34103055  0.50680838  0.38374634  1
  In  In45  1  0.32653662  0.49836058  0.85674591  1
  In  In46  1  0.32079713  0.83925866  0.37307506  1
  In  In47  1  0.34102895  0.84480213  0.86559414  1
  In  In48  1  0.66615630  0.16545323  0.38376089  1
  In  In49  1  0.66545816  0.16401098  0.87205066  1
  In  In50  1  0.65715229  0.50209599  0.38031591  1
  In  In51  1  0.69035720  0.50841769  0.85565606  1
  In  In52  1  0.68077140  0.83222464  0.37714840  1
  In  In53  1  0.66324033  0.83526805  0.87615493  1
  In  In54  1  0.15899831  0.01482493  0.12262540  1
  In  In55  1  0.16838487  0.01699744  0.62877012  1
  In  In56  1  0.16078895  0.31479845  0.11894737  1
  In  In57  1  0.18327133  0.32331907  0.63680488  1
  In  In58  1  0.16246854  0.65722528  0.12404743  1
  In  In59  1  0.16860080  0.65530603  0.64352542  1
  In  In60  1  0.49429978  -0.00331823  0.12070609  1
  In  In61  1  0.49272113  0.01057334  0.63366036  1
  In  In62  1  0.51690024  0.32956025  0.12057000  1
  In  In63  1  0.50433229  0.33015845  0.62638133  1
  In  In64  1  0.50169333  0.68247679  0.11996036  1
  In  In65  1  0.51598832  0.65373265  0.63046675  1
  In  In66  1  0.84271415  0.00195284  0.10790624  1
  In  In67  1  0.82829703  -0.00946122  0.62188205  1
  In  In68  1  0.83559101  0.33898519  0.11967309  1
  In  In69  1  0.83815151  0.31992849  0.62928938  1
  In  In70  1  0.83033193  0.66944081  0.12373008  1
  In  In71  1  0.81576506  0.67769466  0.64120554  1
  In  In72  1  0.67028983  0.00098055  0.25538227  1
  In  In73  1  0.17124342  0.49206789  0.50902000  1
  In  In74  1  0.67221328  0.33414250  0.25301766  1
  In  In75  1  0.82863144  0.50245415  0.50984645  1
  In  In76  1  0.00221396  -0.00136077  0.24070497  1
  In  In77  1  -0.00122314  0.33517551  0.75321685  1
  In  In78  1  0.32917015  0.33090096  0.24510657  1
  In  In79  1  0.16029412  0.49228982  -0.01101766  1
  In  In80  1  0.16151480  0.83235118  0.49416761  1
  In  In81  1  0.50791656  0.83425439  0.50497384  1
  In  In82  1  0.50431695  0.49549910  -0.01093157  1
  In  In83  1  0.32596442  0.67115568  0.25684326  1
  In  In84  1  0.00216322  -0.00398200  0.75790144  1
  In  In85  1  0.16782885  0.83649499  -0.00579323  1
  Cu  Cu86  1  -0.00235760  0.00367878  0.50109746  1
  Cu  Cu87  1  -0.00246336  0.66905930  0.50037160  1
  Cu  Cu88  1  0.66563453  0.33147166  0.50528692  1
  Cu  Cu89  1  0.16359996  0.83630296  0.75218176  1
  Cu  Cu90  1  0.33641189  0.32710145  0.50950333  1
  Cu  Cu91  1  0.49304791  0.16156066  0.25085558  1
  Cu  Cu92  1  0.34329106  0.66013763  0.50779822  1
  Cu  Cu93  1  0.50042131  0.16678282  0.75007148  1
  Cu  Cu94  1  0.50366109  0.83442020  0.74953177  1
  Cu  Cu95  1  0.83319483  0.16130288  0.75408280  1
  Cu  Cu96  1  0.50319530  0.83355771  0.24496526  1
  Cu  Cu97  1  -0.00249599  0.33268587  -0.00135476  1
  Cu  Cu98  1  0.66672047  0.32711405  -0.00805527  1
  Cu  Cu99  1  0.66669188  0.66626396  -0.00495863  1
  Cu  Cu100  1  0.82659042  0.83465850  0.75315232  1
  Cu  Cu101  1  0.33631237  0.67275274  -0.01260426  1
  Cu  Cu102  1  0.16357549  0.16487459  0.24616615  1
  Cu  Cu103  1  0.50220473  0.49706507  0.75021885  1
  Cu  Cu104  1  0.34187414  0.32373114  -0.00362289  1
  Cu  Cu105  1  -0.00064270  0.32730011  0.50143106  1
  Cu  Cu106  1  0.33994483  0.00385759  -0.00735588  1
  Cu  Cu107  1  0.15699018  0.49372850  0.24757523  1
  Cu  Cu108  1  0.33145279  0.00615401  0.50342734  1
  Cu  Cu109  1  0.65892614  -0.00282570  -0.00162113  1
  Cu  Cu110  1  0.83605825  0.50804590  0.24836041  1
  Cu  Cu111  1  -0.01252596  0.66616721  0.00267059  1
  Cu  Cu112  1  0.50066421  0.50750615  0.25660646  1
  Cu  Cu113  1  0.83273239  0.83257605  0.24704062  1
  Cu  Cu114  1  0.66680045  0.00548736  0.50555863  1
  Se  Se115  1  0.08206911  0.08514747  0.04780400  1
  Se  Se116  1  0.08442867  0.08368856  0.55265258  1
  Se  Se117  1  0.07473392  0.41580444  0.06129103  1
  Se  Se118  1  0.07743610  0.40246947  0.56575555  1
  Se  Se119  1  0.07865967  0.74393056  0.05603820  1
  Se  Se120  1  0.08432980  0.74116653  0.56237679  1
  Se  Se121  1  0.42156303  0.08601200  0.05039278  1
  Se  Se122  1  0.41982085  0.08472294  0.55483694  1
  Se  Se123  1  0.41306327  0.41077382  0.05802613  1
  Se  Se124  1  0.41898974  0.41512675  0.55758842  1
  Se  Se125  1  0.41722176  0.75119677  0.04537169  1
  Se  Se126  1  0.41517870  0.74818610  0.56566591  1
  Se  Se127  1  0.74408694  0.08131095  0.05056158  1
  Se  Se128  1  0.75294720  0.08657323  0.55846396  1
  Se  Se129  1  0.74612283  0.41226968  0.04866298  1
  Se  Se130  1  0.74277966  0.40896202  0.56846966  1
  Se  Se131  1  0.74752133  0.74918770  0.05271207  1
  Se  Se132  1  0.75832142  0.75008253  0.55645549  1
  Se  Se133  1  0.25167390  0.24763911  0.04915116  1
  Se  Se134  1  0.24918402  0.24468707  0.55784836  1
  Se  Se135  1  0.25480879  0.59062421  0.04576084  1
  Se  Se136  1  0.25758847  0.58616553  0.56680629  1
  Se  Se137  1  0.25802155  0.92530051  0.05589080  1
  Se  Se138  1  0.25118251  0.91950540  0.55781384  1
  Se  Se139  1  0.58075963  0.24630006  0.04452573  1
  Se  Se140  1  0.58365310  0.24474286  0.55684546  1
  Se  Se141  1  0.58690385  0.58468963  0.05720183  1
  Se  Se142  1  0.59225332  0.58384182  0.55332162  1
  Se  Se143  1  0.57812642  0.91341609  0.05419308  1
  Se  Se144  1  0.59055909  0.92479531  0.56836829  1
  Se  Se145  1  0.91517196  0.25007659  0.05368080  1
  Se  Se146  1  0.91015884  0.24559617  0.55014152  1
  Se  Se147  1  0.90638156  0.57892643  0.05374191  1
  Se  Se148  1  0.92557810  0.58893006  0.56491112  1
  Se  Se149  1  0.91853063  0.91333866  0.04140485  1
  Se  Se150  1  0.91447158  0.91613139  0.54947878  1
  Se  Se151  1  0.08568565  0.24603549  0.44924997  1
  Se  Se152  1  0.08745049  0.25438898  0.94801948  1
  Se  Se153  1  0.07862514  0.58205069  0.44593719  1
  Se  Se154  1  0.07032085  0.59188233  0.93980112  1
  Se  Se155  1  0.07356970  0.92555134  0.43513870  1
  Se  Se156  1  0.07871458  0.92706157  0.93622280  1
  Se  Se157  1  0.41845335  0.24663568  0.45051674  1
  Se  Se158  1  0.42571649  0.24556412  0.94142926  1
  Se  Se159  1  0.42656319  0.57701373  0.45587243  1
  Se  Se160  1  0.41101143  0.58407652  0.93098065  1
  Se  Se161  1  0.40906711  0.91993430  0.44482193  1
  Se  Se162  1  0.41969663  0.91382505  0.94359731  1
  Se  Se163  1  0.74895444  0.25508871  0.44628740  1
  Se  Se164  1  0.75267718  0.24115530  0.94362082  1
  Se  Se165  1  0.74884663  0.59030007  0.44202079  1
  Se  Se166  1  0.74731288  0.57939703  0.94313646  1
  Se  Se167  1  0.74707389  0.92102070  0.44989665  1
  Se  Se168  1  0.74565093  0.91499658  0.94766687  1
  Se  Se169  1  0.24647509  0.08311878  0.44616061  1
  Se  Se170  1  0.25434248  0.08826552  0.94364793  1
  Se  Se171  1  0.25867516  0.40399055  0.44226579  1
  Se  Se172  1  0.26386362  0.40858500  0.93811816  1
  Se  Se173  1  0.26076623  0.73485711  0.44462965  1
  Se  Se174  1  0.24926209  0.74532592  0.92845887  1
  Se  Se175  1  0.58044010  0.08475380  0.45116204  1
  Se  Se176  1  0.58135924  0.08349889  0.94299103  1
  Se  Se177  1  0.58389926  0.41692324  0.45177900  1
  Se  Se178  1  0.59606089  0.41231058  0.92847156  1
  Se  Se179  1  0.59417803  0.74423112  0.44431581  1
  Se  Se180  1  0.58032643  0.75082044  0.94682813  1
  Se  Se181  1  0.91475566  0.08807081  0.44729023  1
  Se  Se182  1  0.91755406  0.08174893  0.95532941  1
  Se  Se183  1  0.92288834  0.41629872  0.44587911  1
  Se  Se184  1  0.91183331  0.41645523  0.94867594  1
  Se  Se185  1  0.91814358  0.75253295  0.44521517  1
  Se  Se186  1  0.90626355  0.75195201  0.95089670  1
  Se  Se187  1  0.24238321  0.24478961  0.30948492  1
  Se  Se188  1  0.26102318  0.25766598  0.80005110  1
  Se  Se189  1  0.23909688  0.56795119  0.31182948  1
  Se  Se190  1  0.25372443  0.59257718  0.79405874  1
  Se  Se191  1  0.24606516  0.91022112  0.29691425  1
  Se  Se192  1  0.25054199  0.92174433  0.79839985  1
  Se  Se193  1  0.57378516  0.24370902  0.30908961  1
  Se  Se194  1  0.58709213  0.24917657  0.80123600  1
  Se  Se195  1  0.58739346  0.58874228  0.30627218  1
  Se  Se196  1  0.58600950  0.58329348  0.80031670  1
  Se  Se197  1  0.57623927  0.91101198  0.31344257  1
  Se  Se198  1  0.58535945  0.91821891  0.80374697  1
  Se  Se199  1  0.92329009  0.25556370  0.30194194  1
  Se  Se200  1  0.91708062  0.23753791  0.81448984  1
  Se  Se201  1  0.92103012  0.59060163  0.30221972  1
  Se  Se202  1  0.91524957  0.59364175  0.80530348  1
  Se  Se203  1  0.90845191  0.91670910  0.30828297  1
  Se  Se204  1  0.90461264  0.91386310  0.81577180  1
  Se  Se205  1  0.08495926  0.08605482  0.30960103  1
  Se  Se206  1  0.09089596  0.09521429  0.80798628  1
  Se  Se207  1  0.07504894  0.40977558  0.29999275  1
  Se  Se208  1  0.08802728  0.42513139  0.81398120  1
  Se  Se209  1  0.09554513  0.75820544  0.29987953  1
  Se  Se210  1  0.07512026  0.75744203  0.80305722  1
  Se  Se211  1  0.40953105  0.08046162  0.30433867  1
  Se  Se212  1  0.41767132  0.08211171  0.80354828  1
  Se  Se213  1  0.42005232  0.42022439  0.30912735  1
  Se  Se214  1  0.41454133  0.41161774  0.79651081  1
  Se  Se215  1  0.42571956  0.75799494  0.31323426  1
  Se  Se216  1  0.41869157  0.75100421  0.80183643  1
  Se  Se217  1  0.75875041  0.09867295  0.30816173  1
  Se  Se218  1  0.74898510  0.07658816  0.80481298  1
  Se  Se219  1  0.75945012  0.42831631  0.31318126  1
  Se  Se220  1  0.75381484  0.40140705  0.79771051  1
  Se  Se221  1  0.75029612  0.75011648  0.30175355  1
  Se  Se222  1  0.74367756  0.75009724  0.80663041  1
  Se  Se223  1  0.24951362  0.08240748  0.19519556  1
  Se  Se224  1  0.25953329  0.07846347  0.69913505  1
  Se  Se225  1  0.24052366  0.42409598  0.18398948  1
  Se  Se226  1  0.22694232  0.44029669  0.69255912  1
  Se  Se227  1  0.25017385  0.75296366  0.18282081  1
  Se  Se228  1  0.24951478  0.75291842  0.70064075  1
  Se  Se229  1  0.58098739  0.08868329  0.19148138  1
  Se  Se230  1  0.58707339  0.08285720  0.69985680  1
  Se  Se231  1  0.57812735  0.42682027  0.19438297  1
  Se  Se232  1  0.58527522  0.41232140  0.69752558  1
  Se  Se233  1  0.58647929  0.74942517  0.19506499  1
  Se  Se234  1  0.58658469  0.74935761  0.69700896  1
  Se  Se235  1  0.90627803  0.08813632  0.18799661  1
  Se  Se236  1  0.91511316  0.08430565  0.69229614  1
  Se  Se237  1  0.91181129  0.41702689  0.19552420  1
  Se  Se238  1  0.90797977  0.42347743  0.69368747  1
  Se  Se239  1  0.91693231  0.75093703  0.19301589  1
  Se  Se240  1  0.91546737  0.75461069  0.70103637  1
  Se  Se241  1  0.07873008  0.24730869  0.19479166  1
  Se  Se242  1  0.08452810  0.23858273  0.69502969  1
  Se  Se243  1  0.08031348  0.58666973  0.19832182  1
  Se  Se244  1  0.06906425  0.59310297  0.70871851  1
  Se  Se245  1  0.09265733  0.90610597  0.18467887  1
  Se  Se246  1  0.08465514  0.91128104  0.68591474  1
  Se  Se247  1  0.42327924  0.24482025  0.18571370  1
  Se  Se248  1  0.41784601  0.25041348  0.69506677  1
  Se  Se249  1  0.42139932  0.58469019  0.19369393  1
  Se  Se250  1  0.42010955  0.58596272  0.69837350  1
  Se  Se251  1  0.41822900  0.91868647  0.19687351  1
  Se  Se252  1  0.41703760  0.91955523  0.70058323  1
  Se  Se253  1  0.75519652  0.24450221  0.19003608  1
  Se  Se254  1  0.75233117  0.24685344  0.70083127  1
  Se  Se255  1  0.74830536  0.58672749  0.19579166  1
  Se  Se256  1  0.75365150  0.57669121  0.70455464  1
  Se  Se257  1  0.75722206  0.91807843  0.18737241  1
  Se  Se258  1  0.74771405  0.92110921  0.69894987  1
