# generated using pymatgen
data_In86Cu29Se144
_symmetry_space_group_name_H-M   'P 1'
_cell_length_a   17.57553388
_cell_length_b   17.57397221
_cell_length_c   23.43577738
_cell_angle_alpha   89.97259311
_cell_angle_beta   89.99765969
_cell_angle_gamma   90.00892275
_symmetry_Int_Tables_number   1
_chemical_formula_structural   In86Cu29Se144
_chemical_formula_sum   'In86 Cu29 Se144'
_cell_volume   7238.65319269
_cell_formula_units_Z   1
loop_
 _symmetry_equiv_pos_site_id
 _symmetry_equiv_pos_as_xyz
  1  'x, y, z'
loop_
 _atom_site_type_symbol
 _atom_site_label
 _atom_site_symmetry_multiplicity
 _atom_site_fract_x
 _atom_site_fract_y
 _atom_site_fract_z
 _atom_site_occupancy
  In  In0  1  -0.00510552  0.18483417  0.12989544  1
  In  In1  1  0.00432550  0.15400271  0.62901121  1
  In  In2  1  -0.00526755  0.47341445  0.12579957  1
  In  In3  1  0.00784824  0.51365115  0.61948409  1
  In  In4  1  0.00378971  0.83888450  0.11291793  1
  In  In5  1  0.00810644  0.82457821  0.63442143  1
  In  In6  1  0.33248210  0.16531571  0.12940360  1
  In  In7  1  0.32861629  0.16244212  0.61342323  1
  In  In8  1  0.33366276  0.51354268  0.12848797  1
  In  In9  1  0.32992780  0.48968517  0.60899736  1
  In  In10  1  0.32642178  0.82172714  0.11505453  1
  In  In11  1  0.33256324  0.84926523  0.62980339  1
  In  In12  1  0.68621375  0.14232410  0.15309031  1
  In  In13  1  0.66367390  0.16837439  0.62938352  1
  In  In14  1  0.69013975  0.49394308  0.14642175  1
  In  In15  1  0.66591571  0.49820713  0.61873563  1
  In  In16  1  0.66494807  0.83092831  0.11964428  1
  In  In17  1  0.67254342  0.83067661  0.63550183  1
  In  In18  1  0.16707824  -0.00145630  0.38562863  1
  In  In19  1  0.15520393  -0.00917948  0.86459586  1
  In  In20  1  0.16412817  0.33890550  0.38183034  1
  In  In21  1  0.16326713  0.33642847  0.87972196  1
  In  In22  1  0.17411798  0.65625359  0.38212394  1
  In  In23  1  0.16292847  0.67138667  0.87522230  1
  In  In24  1  0.51440697  0.01086570  0.37297037  1
  In  In25  1  0.49221114  -0.00705850  0.86928036  1
  In  In26  1  0.51238380  0.32100385  0.38837900  1
  In  In27  1  0.50552635  0.32363944  0.87320694  1
  In  In28  1  0.48991394  0.66211316  0.37009776  1
  In  In29  1  0.51763145  0.66528438  0.87331903  1
  In  In30  1  0.82062069  0.01720455  0.37030135  1
  In  In31  1  0.83241271  -0.00018915  0.87732585  1
  In  In32  1  0.84697831  0.34739294  0.35132346  1
  In  In33  1  0.82308242  0.34234094  0.87761324  1
  In  In34  1  0.81517778  0.66383338  0.36676920  1
  In  In35  1  0.84346036  0.67025866  0.87045364  1
  In  In36  1  0.00014937  0.18170961  0.36842960  1
  In  In37  1  0.00529510  0.15326689  0.87651652  1
  In  In38  1  0.00781980  0.49122011  0.38125721  1
  In  In39  1  -0.00061493  0.51141097  0.87115302  1
  In  In40  1  0.00766617  0.84072336  0.37669386  1
  In  In41  1  -0.00110422  0.83381278  0.87747474  1
  In  In42  1  0.33037612  0.18151095  0.39343972  1
  In  In43  1  0.34273994  0.16236756  0.87213102  1
  In  In44  1  0.32371347  0.50363804  0.38531647  1
  In  In45  1  0.32521629  0.49298590  0.87179623  1
  In  In46  1  0.33565956  0.82158862  0.37659437  1
  In  In47  1  0.32268140  0.84132163  0.87946080  1
  In  In48  1  0.66405312  0.16975577  0.36198848  1
  In  In49  1  0.67681863  0.17410663  0.87125636  1
  In  In50  1  0.67005728  0.49810020  0.37391827  1
  In  In51  1  0.66835288  0.49878819  0.86430607  1
  In  In52  1  0.66067627  0.83972407  0.36528947  1
  In  In53  1  0.66832600  0.83280673  0.87989094  1
  In  In54  1  0.17531006  -0.00336687  0.12184801  1
  In  In55  1  0.16925226  -0.00006618  0.62473232  1
  In  In56  1  0.13654165  0.33643875  0.13200441  1
  In  In57  1  0.17326903  0.33727883  0.61020156  1
  In  In58  1  0.17001133  0.66766206  0.11989547  1
  In  In59  1  0.15262416  0.65519628  0.62186925  1
  In  In60  1  0.52190016  -0.00102411  0.12516912  1
  In  In61  1  0.49610054  0.00506271  0.63062657  1
  In  In62  1  0.51226861  0.33261454  0.13236409  1
  In  In63  1  0.50758578  0.33864075  0.61044218  1
  In  In64  1  0.49667279  0.66631729  0.13010037  1
  In  In65  1  0.51313297  0.66417666  0.62616652  1
  In  In66  1  0.82461586  -0.01040291  0.11226347  1
  In  In67  1  0.83622813  -0.00326966  0.63748807  1
  In  In68  1  0.84740349  0.31518912  0.15012340  1
  In  In69  1  0.81767020  0.33114288  0.62156022  1
  In  In70  1  0.82136165  0.66570994  0.12609084  1
  In  In71  1  0.83978432  0.66023070  0.62925130  1
  In  In72  1  0.83897071  0.82740226  0.50089867  1
  In  In73  1  -0.00410195  0.00229979  0.25314784  1
  In  In74  1  0.49975425  0.16360438  0.00289007  1
  In  In75  1  -0.00157667  0.66257705  0.24506767  1
  In  In76  1  0.33958262  0.00326368  0.25108133  1
  In  In77  1  0.83524051  0.17125578  0.49197532  1
  In  In78  1  0.33600239  0.66843414  0.74595127  1
  In  In79  1  0.83987181  0.50289820  0.00208997  1
  In  In80  1  0.49716216  0.83417411  0.50422228  1
  In  In81  1  0.50257630  0.50967386  0.00623385  1
  In  In82  1  0.33675347  0.33863847  0.26249430  1
  In  In83  1  0.16431378  0.16527469  0.00235319  1
  In  In84  1  -0.00280665  0.33257604  0.74939798  1
  In  In85  1  0.33350323  0.33153001  0.73225812  1
  Cu  Cu86  1  0.82679192  0.49703938  0.74549524  1
  Cu  Cu87  1  0.50540886  0.49146618  0.74206942  1
  Cu  Cu88  1  0.83084330  0.83544688  0.75859200  1
  Cu  Cu89  1  -0.00335959  0.33348185  0.49627340  1
  Cu  Cu90  1  0.32634072  0.67052143  0.50092929  1
  Cu  Cu91  1  0.66289874  0.65742782  0.49640665  1
  Cu  Cu92  1  0.66831254  0.00545576  0.49947020  1
  Cu  Cu93  1  0.33555699  0.00196062  0.50349339  1
  Cu  Cu94  1  0.17762271  0.16472034  0.74557386  1
  Cu  Cu95  1  0.66929403  0.33411844  0.00247236  1
  Cu  Cu96  1  0.49963476  0.83448000  0.24551193  1
  Cu  Cu97  1  -0.00253062  0.66356114  0.50270865  1
  Cu  Cu98  1  -0.00349267  0.00032220  -0.00519222  1
  Cu  Cu99  1  0.00906932  -0.00124377  0.50349012  1
  Cu  Cu100  1  0.33144732  -0.00890584  -0.00425409  1
  Cu  Cu101  1  0.50818694  0.16212976  0.74902450  1
  Cu  Cu102  1  0.17358908  0.82577651  0.24627148  1
  Cu  Cu103  1  0.32333682  0.34230990  0.00420929  1
  Cu  Cu104  1  0.00387059  0.66909900  -0.00261119  1
  Cu  Cu105  1  0.16755811  0.49659785  0.25713183  1
  Cu  Cu106  1  0.50653119  0.83203151  0.75270568  1
  Cu  Cu107  1  0.83301076  0.16225912  0.75156113  1
  Cu  Cu108  1  0.16471182  0.83749615  0.75294366  1
  Cu  Cu109  1  0.66905542  0.33616658  0.49497925  1
  Cu  Cu110  1  0.66838529  0.00113581  -0.00007071  1
  Cu  Cu111  1  0.49931921  0.51172354  0.25827538  1
  Cu  Cu112  1  0.82490629  0.83908786  0.24260119  1
  Cu  Cu113  1  0.33353180  0.66755193  -0.00061203  1
  Cu  Cu114  1  0.66825910  0.66854411  0.00256871  1
  Se  Se115  1  0.07209316  0.07686325  0.06277162  1
  Se  Se116  1  0.08929682  0.08686304  0.55445256  1
  Se  Se117  1  0.08967107  0.42305903  0.05149314  1
  Se  Se118  1  0.07725885  0.41845307  0.55161450  1
  Se  Se119  1  0.08918489  0.75194510  0.05080787  1
  Se  Se120  1  0.07902658  0.75009413  0.55484883  1
  Se  Se121  1  0.40707199  0.07076825  0.06003149  1
  Se  Se122  1  0.42609754  0.08196242  0.55253119  1
  Se  Se123  1  0.41355281  0.41213404  0.06306680  1
  Se  Se124  1  0.41365907  0.40824444  0.54366629  1
  Se  Se125  1  0.42259797  0.74429521  0.05270909  1
  Se  Se126  1  0.40768632  0.74381563  0.56547336  1
  Se  Se127  1  0.74099863  0.09018778  0.05788246  1
  Se  Se128  1  0.75589702  0.07783310  0.55954557  1
  Se  Se129  1  0.74869167  0.41529817  0.06139930  1
  Se  Se130  1  0.75257744  0.41929611  0.54813003  1
  Se  Se131  1  0.75562217  0.75234396  0.05151795  1
  Se  Se132  1  0.74056037  0.74181887  0.55692053  1
  Se  Se133  1  0.25012207  0.25766053  0.06521089  1
  Se  Se134  1  0.25418650  0.25136937  0.54658524  1
  Se  Se135  1  0.25208547  0.58128248  0.05161357  1
  Se  Se136  1  0.24412399  0.58405192  0.55256656  1
  Se  Se137  1  0.24482237  0.91122256  0.04923905  1
  Se  Se138  1  0.25110303  0.91642908  0.55326973  1
  Se  Se139  1  0.59188385  0.25054017  0.06070821  1
  Se  Se140  1  0.59479985  0.24655221  0.55096229  1
  Se  Se141  1  0.60080214  0.58425180  0.06817923  1
  Se  Se142  1  0.57651946  0.57857392  0.55028176  1
  Se  Se143  1  0.58286532  0.91432765  0.04811503  1
  Se  Se144  1  0.59451803  0.92072133  0.56101550  1
  Se  Se145  1  0.91068641  0.26007101  0.06062239  1
  Se  Se146  1  0.92401176  0.25221732  0.56197060  1
  Se  Se147  1  0.92919409  0.59191728  0.06528328  1
  Se  Se148  1  0.90968524  0.58084723  0.55153327  1
  Se  Se149  1  0.91381335  0.91274425  0.04523909  1
  Se  Se150  1  0.92347317  0.92178227  0.56150572  1
  Se  Se151  1  0.08027688  0.24782541  0.44638075  1
  Se  Se152  1  0.07172140  0.25597863  0.94519799  1
  Se  Se153  1  0.08317439  0.58104380  0.44891063  1
  Se  Se154  1  0.08405645  0.58364279  0.94416307  1
  Se  Se155  1  0.08874393  0.90916748  0.45272622  1
  Se  Se156  1  0.08546268  0.91836187  0.94500384  1
  Se  Se157  1  0.41622005  0.26062864  0.45940961  1
  Se  Se158  1  0.40546040  0.26089456  0.94650216  1
  Se  Se159  1  0.41344641  0.59082665  0.44784115  1
  Se  Se160  1  0.41136748  0.58741930  0.93612031  1
  Se  Se161  1  0.41520487  0.92534180  0.43838795  1
  Se  Se162  1  0.42063214  0.91181739  0.94521668  1
  Se  Se163  1  0.74874799  0.25983731  0.43112511  1
  Se  Se164  1  0.75159147  0.25183852  0.94762753  1
  Se  Se165  1  0.75349979  0.58090100  0.44511253  1
  Se  Se166  1  0.74401637  0.58577003  0.93964022  1
  Se  Se167  1  0.74646982  0.92046610  0.44174830  1
  Se  Se168  1  0.75182161  0.91639564  0.94788942  1
  Se  Se169  1  0.24922217  0.08387686  0.45154767  1
  Se  Se170  1  0.25323281  0.07734268  0.93809458  1
  Se  Se171  1  0.24582789  0.41694701  0.45170102  1
  Se  Se172  1  0.24391517  0.42252411  0.94739339  1
  Se  Se173  1  0.24487267  0.75474844  0.44761631  1
  Se  Se174  1  0.24851204  0.74907453  0.94526993  1
  Se  Se175  1  0.59313161  0.09192086  0.44382443  1
  Se  Se176  1  0.58736832  0.07971340  0.93715018  1
  Se  Se177  1  0.58428541  0.42394256  0.44697101  1
  Se  Se178  1  0.58801294  0.41406671  0.94273165  1
  Se  Se179  1  0.58754621  0.74900259  0.44044128  1
  Se  Se180  1  0.58291705  0.74906419  0.94925586  1
  Se  Se181  1  0.92779860  0.07308970  0.43876611  1
  Se  Se182  1  0.91266485  0.08746803  0.94691680  1
  Se  Se183  1  0.91023049  0.40967839  0.44030745  1
  Se  Se184  1  0.92704866  0.41296417  0.93960756  1
  Se  Se185  1  0.92288438  0.73922289  0.43431233  1
  Se  Se186  1  0.91558686  0.74940802  0.94655645  1
  Se  Se187  1  0.24341576  0.24372342  0.31303701  1
  Se  Se188  1  0.24928350  0.24941206  0.80797061  1
  Se  Se189  1  0.25206908  0.58221284  0.30586109  1
  Se  Se190  1  0.24374910  0.57896127  0.80343782  1
  Se  Se191  1  0.24557552  0.91072451  0.30899889  1
  Se  Se192  1  0.25470750  0.92026199  0.80053686  1
  Se  Se193  1  0.57021248  0.25241323  0.30275309  1
  Se  Se194  1  0.58746002  0.25060914  0.80124780  1
  Se  Se195  1  0.58981255  0.59180717  0.30806766  1
  Se  Se196  1  0.58219475  0.57958671  0.79717156  1
  Se  Se197  1  0.57850623  0.92309863  0.29761573  1
  Se  Se198  1  0.58776299  0.91550478  0.80776096  1
  Se  Se199  1  0.89357055  0.22479730  0.30134897  1
  Se  Se200  1  0.91063211  0.24428368  0.81327350  1
  Se  Se201  1  0.91675774  0.57817608  0.31289792  1
  Se  Se202  1  0.91167939  0.57949570  0.79854502  1
  Se  Se203  1  0.90277409  0.90926615  0.31132878  1
  Se  Se204  1  0.91824695  0.91896779  0.80835765  1
  Se  Se205  1  0.09233184  0.08546158  0.31137566  1
  Se  Se206  1  0.08663688  0.08818783  0.79831653  1
  Se  Se207  1  0.08211665  0.41154933  0.30539280  1
  Se  Se208  1  0.09071442  0.42261083  0.80510144  1
  Se  Se209  1  0.08947801  0.75109170  0.30796182  1
  Se  Se210  1  0.08157486  0.75297642  0.80543504  1
  Se  Se211  1  0.41360089  0.09611067  0.31818038  1
  Se  Se212  1  0.41759004  0.08286573  0.79930400  1
  Se  Se213  1  0.42668491  0.42797668  0.32071323  1
  Se  Se214  1  0.42267438  0.41593654  0.80387062  1
  Se  Se215  1  0.41602233  0.75264574  0.30035979  1
  Se  Se216  1  0.42180456  0.75390917  0.81229025  1
  Se  Se217  1  0.74290926  0.08255208  0.29320920  1
  Se  Se218  1  0.74891605  0.07969561  0.80543946  1
  Se  Se219  1  0.73303644  0.40756694  0.30005838  1
  Se  Se220  1  0.74655573  0.40967235  0.79767002  1
  Se  Se221  1  0.74470041  0.75618050  0.29896281  1
  Se  Se222  1  0.74771292  0.74785959  0.80871147  1
  Se  Se223  1  0.23770326  0.09047167  0.19677918  1
  Se  Se224  1  0.25921296  0.08193187  0.69117836  1
  Se  Se225  1  0.24729103  0.41835425  0.19216246  1
  Se  Se226  1  0.23756994  0.42912587  0.68816189  1
  Se  Se227  1  0.25469931  0.74312611  0.19278524  1
  Se  Se228  1  0.24056736  0.75665040  0.68875667  1
  Se  Se229  1  0.56275884  0.09416588  0.20072538  1
  Se  Se230  1  0.59152593  0.07583963  0.69758578  1
  Se  Se231  1  0.57581242  0.43035895  0.19869679  1
  Se  Se232  1  0.58733369  0.40870930  0.68802901  1
  Se  Se233  1  0.58490818  0.75112544  0.19305404  1
  Se  Se234  1  0.58613678  0.74561482  0.69987356  1
  Se  Se235  1  0.91064147  0.07852044  0.18283637  1
  Se  Se236  1  0.92193623  0.08115863  0.70233372  1
  Se  Se237  1  0.90723571  0.42701251  0.20555611  1
  Se  Se238  1  0.90996757  0.41931616  0.68507223  1
  Se  Se239  1  0.91502968  0.76388078  0.18785991  1
  Se  Se240  1  0.90907031  0.75437830  0.69739189  1
  Se  Se241  1  0.08293662  0.24395651  0.20543141  1
  Se  Se242  1  0.09602588  0.24876043  0.68889742  1
  Se  Se243  1  0.09056138  0.57131532  0.18893882  1
  Se  Se244  1  0.07066885  0.59165138  0.69957884  1
  Se  Se245  1  0.09014120  0.90974807  0.19301820  1
  Se  Se246  1  0.08374755  0.92166731  0.69627878  1
  Se  Se247  1  0.42037475  0.24643876  0.19613480  1
  Se  Se248  1  0.43036025  0.23960019  0.68312758  1
  Se  Se249  1  0.41313473  0.58850614  0.20215029  1
  Se  Se250  1  0.41905293  0.56994677  0.68546186  1
  Se  Se251  1  0.41788266  0.91142596  0.18345074  1
  Se  Se252  1  0.42217195  0.91609141  0.70102805  1
  Se  Se253  1  0.72001680  0.27386351  0.19403886  1
  Se  Se254  1  0.75182288  0.24688798  0.69759628  1
  Se  Se255  1  0.75876250  0.59365386  0.20821045  1
  Se  Se256  1  0.74461413  0.58180560  0.69117215  1
  Se  Se257  1  0.74201193  0.92100440  0.18914832  1
  Se  Se258  1  0.74800815  0.91850898  0.70387242  1
