# generated using pymatgen
data_In86Cu29Se144
_symmetry_space_group_name_H-M   'P 1'
_cell_length_a   17.57387666
_cell_length_b   17.57620867
_cell_length_c   23.42784320
_cell_angle_alpha   90.00704969
_cell_angle_beta   90.00128738
_cell_angle_gamma   89.98995536
_symmetry_Int_Tables_number   1
_chemical_formula_structural   In86Cu29Se144
_chemical_formula_sum   'In86 Cu29 Se144'
_cell_volume   7236.44178768
_cell_formula_units_Z   1
loop_
 _symmetry_equiv_pos_site_id
 _symmetry_equiv_pos_as_xyz
  1  'x, y, z'
loop_
 _atom_site_type_symbol
 _atom_site_label
 _atom_site_symmetry_multiplicity
 _atom_site_fract_x
 _atom_site_fract_y
 _atom_site_fract_z
 _atom_site_occupancy
  In  In0  1  0.04013121  0.17982517  0.10144001  1
  In  In1  1  0.01652299  0.17017891  0.62611142  1
  In  In2  1  -0.00461778  0.47796746  0.10319101  1
  In  In3  1  -0.00066495  0.50171484  0.63801834  1
  In  In4  1  -0.00945628  0.83722421  0.12349694  1
  In  In5  1  -0.02052573  0.83591419  0.62740554  1
  In  In6  1  0.33674788  0.16526495  0.12818302  1
  In  In7  1  0.33025088  0.16860474  0.62940040  1
  In  In8  1  0.33453936  0.50033606  0.11406465  1
  In  In9  1  0.32047918  0.49487494  0.62766476  1
  In  In10  1  0.34565626  0.82208919  0.13038696  1
  In  In11  1  0.35535638  0.83910779  0.62377588  1
  In  In12  1  0.65492771  0.16367777  0.12577032  1
  In  In13  1  0.64161403  0.16583440  0.62678591  1
  In  In14  1  0.66593828  0.50844978  0.12030322  1
  In  In15  1  0.67229101  0.50261376  0.63294339  1
  In  In16  1  0.65870718  0.84264648  0.13345620  1
  In  In17  1  0.65641102  0.83575158  0.63382643  1
  In  In18  1  0.18545452  0.00460000  0.37368218  1
  In  In19  1  0.18049733  -0.00276391  0.87730992  1
  In  In20  1  0.16889070  0.33263642  0.37024375  1
  In  In21  1  0.16569444  0.32579804  0.89063231  1
  In  In22  1  0.16447890  0.65474990  0.37099940  1
  In  In23  1  0.15580355  0.66151697  0.87081546  1
  In  In24  1  0.49799045  -0.00018345  0.37747893  1
  In  In25  1  0.50225676  -0.00313949  0.87942311  1
  In  In26  1  0.48165211  0.32592414  0.37010683  1
  In  In27  1  0.48326147  0.34116768  0.88870192  1
  In  In28  1  0.51188002  0.67300036  0.36660763  1
  In  In29  1  0.50568781  0.65679857  0.87292883  1
  In  In30  1  0.81810429  -0.00462379  0.37548383  1
  In  In31  1  0.81914794  -0.00486687  0.86466511  1
  In  In32  1  0.84958133  0.32544830  0.37017455  1
  In  In33  1  0.84953813  0.33806855  0.87710409  1
  In  In34  1  0.82814894  0.68172110  0.38053424  1
  In  In35  1  0.82132837  0.65828595  0.86655235  1
  In  In36  1  0.00374275  0.18467003  0.37007442  1
  In  In37  1  -0.00124105  0.18000213  0.88238949  1
  In  In38  1  0.01246070  0.49236199  0.37036543  1
  In  In39  1  0.00119421  0.49171751  0.89067262  1
  In  In40  1  -0.00988633  0.82337959  0.38184872  1
  In  In41  1  0.00421743  0.82225597  0.86453233  1
  In  In42  1  0.33747869  0.16600831  0.37787005  1
  In  In43  1  0.33856581  0.16926903  0.88826381  1
  In  In44  1  0.32948524  0.49771979  0.36030564  1
  In  In45  1  0.34254320  0.47709625  0.89743946  1
  In  In46  1  0.34769870  0.84824157  0.36526976  1
  In  In47  1  0.33878597  0.85162550  0.86745119  1
  In  In48  1  0.66448008  0.14638271  0.37095501  1
  In  In49  1  0.65955802  0.15013726  0.87319819  1
  In  In50  1  0.65366843  0.50364260  0.36561739  1
  In  In51  1  0.65294773  0.51719394  0.87813125  1
  In  In52  1  0.66127947  0.83333451  0.37792782  1
  In  In53  1  0.64983449  0.81423794  0.84898520  1
  In  In54  1  0.18174562  0.04388480  0.10932755  1
  In  In55  1  0.16668981  0.02425741  0.62366807  1
  In  In56  1  0.17812047  0.33090260  0.12151244  1
  In  In57  1  0.18259471  0.31554204  0.64447542  1
  In  In58  1  0.18098114  0.66614660  0.12443047  1
  In  In59  1  0.16252299  0.65366876  0.62991143  1
  In  In60  1  0.49982944  -0.00255425  0.12798032  1
  In  In61  1  0.49428586  -0.00264673  0.63573839  1
  In  In62  1  0.47680450  0.31123380  0.09877127  1
  In  In63  1  0.49435502  0.32022460  0.62543610  1
  In  In64  1  0.50048067  0.67052241  0.11970729  1
  In  In65  1  0.49853963  0.68046567  0.62870876  1
  In  In66  1  0.83454867  -0.00778639  0.12806578  1
  In  In67  1  0.82781717  -0.01636633  0.62504962  1
  In  In68  1  0.83329709  0.34706041  0.12275423  1
  In  In69  1  0.83746106  0.34528059  0.63236665  1
  In  In70  1  0.83717254  0.64957729  0.12663103  1
  In  In71  1  0.80003989  0.70874910  0.66791799  1
  In  In72  1  0.49186838  0.49839113  0.50530289  1
  In  In73  1  0.83150298  0.16297008  0.49616811  1
  In  In74  1  0.33245805  0.66109277  0.75100600  1
  In  In75  1  0.83243151  0.16629624  -0.00710341  1
  In  In76  1  0.82434247  0.83187078  -0.00207765  1
  In  In77  1  0.17062143  0.83443400  0.49637533  1
  In  In78  1  0.17286478  0.83463705  -0.00251616  1
  In  In79  1  0.83292034  0.50707494  0.50844462  1
  In  In80  1  0.00403214  0.65974923  0.25038558  1
  In  In81  1  0.66079877  0.34487347  0.23983408  1
  In  In82  1  0.66130117  0.33420257  0.75172430  1
  In  In83  1  0.00256858  0.00416869  0.74610799  1
  In  In84  1  0.16515757  0.49649193  0.49676364  1
  In  In85  1  0.00443510  0.00298711  0.23981487  1
  Cu  Cu86  1  0.17096583  0.83608489  0.74629085  1
  Cu  Cu87  1  0.00748211  0.33219863  0.50272056  1
  Cu  Cu88  1  0.66964990  0.33926656  -0.00158722  1
  Cu  Cu89  1  -0.00124004  0.66858970  -0.00023587  1
  Cu  Cu90  1  0.17418316  0.17434026  0.24648240  1
  Cu  Cu91  1  0.83623329  0.17116496  0.75166407  1
  Cu  Cu92  1  0.65862580  -0.00433008  -0.00016913  1
  Cu  Cu93  1  0.33959901  0.67477547  -0.00401917  1
  Cu  Cu94  1  0.84127401  0.16664634  0.24639040  1
  Cu  Cu95  1  0.50061540  0.83321968  0.25160197  1
  Cu  Cu96  1  0.65846100  0.32756887  0.49657106  1
  Cu  Cu97  1  0.83773983  0.49847044  0.24395882  1
  Cu  Cu98  1  0.48701190  0.16561615  0.75576339  1
  Cu  Cu99  1  0.34117474  0.67307700  0.49263795  1
  Cu  Cu100  1  -0.01296384  0.67210855  0.51135983  1
  Cu  Cu101  1  0.17206209  0.17374613  0.75862763  1
  Cu  Cu102  1  0.16848148  0.49547093  0.23912917  1
  Cu  Cu103  1  0.16504906  0.48698122  0.76305581  1
  Cu  Cu104  1  0.66884108  0.67700771  0.50611770  1
  Cu  Cu105  1  0.16993727  0.83836930  0.24423780  1
  Cu  Cu106  1  0.00052850  0.00349265  0.50236325  1
  Cu  Cu107  1  0.82379353  0.83505800  0.25457400  1
  Cu  Cu108  1  0.66114719  -0.00706288  0.50342899  1
  Cu  Cu109  1  0.84519053  0.49557790  0.76118842  1
  Cu  Cu110  1  0.49503995  0.50065569  0.23694652  1
  Cu  Cu111  1  0.66707941  0.67369897  -0.00408008  1
  Cu  Cu112  1  0.34010165  -0.00119774  0.00326375  1
  Cu  Cu113  1  0.33801303  0.00402714  0.50220315  1
  Cu  Cu114  1  0.49665889  0.16581981  0.24763044  1
  Se  Se115  1  0.06603473  0.05780757  0.04425054  1
  Se  Se116  1  0.08388198  0.09194723  0.54695648  1
  Se  Se117  1  0.11052062  0.42416417  0.04861650  1
  Se  Se118  1  0.08022626  0.41520465  0.56546516  1
  Se  Se119  1  0.07760834  0.74722044  0.05971779  1
  Se  Se120  1  0.08206306  0.74752412  0.56198803  1
  Se  Se121  1  0.42126371  0.08345651  0.05829626  1
  Se  Se122  1  0.41590387  0.08218805  0.56445168  1
  Se  Se123  1  0.41560939  0.42019496  0.04251488  1
  Se  Se124  1  0.40028987  0.40479319  0.55840231  1
  Se  Se125  1  0.42160015  0.75774743  0.04903465  1
  Se  Se126  1  0.42305442  0.75240627  0.54941206  1
  Se  Se127  1  0.74515774  0.07387453  0.05687273  1
  Se  Se128  1  0.74029290  0.08072464  0.56131932  1
  Se  Se129  1  0.74950568  0.42292729  0.05271382  1
  Se  Se130  1  0.73852796  0.40540163  0.55732676  1
  Se  Se131  1  0.74505708  0.74312929  0.06647401  1
  Se  Se132  1  0.74983663  0.75226995  0.56815723  1
  Se  Se133  1  0.23078470  0.21794564  0.06024634  1
  Se  Se134  1  0.24067485  0.24507194  0.56086340  1
  Se  Se135  1  0.25327610  0.59195260  0.04696401  1
  Se  Se136  1  0.25871236  0.59433512  0.55210226  1
  Se  Se137  1  0.25657349  0.92068794  0.06478069  1
  Se  Se138  1  0.25349905  0.92397809  0.56194596  1
  Se  Se139  1  0.59268839  0.24715105  0.04821752  1
  Se  Se140  1  0.57410692  0.24635332  0.54933196  1
  Se  Se141  1  0.58395317  0.58909035  0.04973107  1
  Se  Se142  1  0.59112515  0.58706785  0.56022687  1
  Se  Se143  1  0.57937578  0.91204330  0.05638977  1
  Se  Se144  1  0.57729692  0.91767337  0.56223907  1
  Se  Se145  1  0.91661405  0.25119557  0.06012665  1
  Se  Se146  1  0.91753810  0.25674806  0.55926208  1
  Se  Se147  1  0.91515066  0.58118692  0.04925512  1
  Se  Se148  1  0.91369050  0.59262857  0.57434708  1
  Se  Se149  1  0.92108973  0.92486691  0.04923090  1
  Se  Se150  1  0.91458940  0.91923032  0.54957333  1
  Se  Se151  1  0.08816388  0.25338715  0.44429043  1
  Se  Se152  1  0.08321354  0.24018796  0.95896246  1
  Se  Se153  1  0.06585045  0.59431589  0.44680050  1
  Se  Se154  1  0.08640892  0.58674829  0.95018642  1
  Se  Se155  1  0.07751696  0.92478852  0.43659508  1
  Se  Se156  1  0.07715320  0.91511365  0.93460392  1
  Se  Se157  1  0.42231749  0.24473913  0.44809452  1
  Se  Se158  1  0.41175064  0.25534929  0.96080220  1
  Se  Se159  1  0.41345204  0.58520861  0.43312675  1
  Se  Se160  1  0.42147848  0.58495528  0.94685452  1
  Se  Se161  1  0.41560093  0.91645375  0.44853757  1
  Se  Se162  1  0.41840635  0.91265410  0.94881175  1
  Se  Se163  1  0.74382563  0.25636449  0.43387985  1
  Se  Se164  1  0.74091351  0.25615111  0.93304149  1
  Se  Se165  1  0.73771506  0.58743550  0.44236785  1
  Se  Se166  1  0.74993340  0.58587932  0.94674661  1
  Se  Se167  1  0.74711431  0.91340382  0.44937177  1
  Se  Se168  1  0.73342867  0.91615725  0.93666262  1
  Se  Se169  1  0.25208835  0.08562087  0.45000122  1
  Se  Se170  1  0.25149514  0.07887706  0.95176009  1
  Se  Se171  1  0.26153026  0.41217635  0.43971453  1
  Se  Se172  1  0.23337975  0.42337482  0.96008202  1
  Se  Se173  1  0.25523521  0.74540386  0.43160079  1
  Se  Se174  1  0.25774805  0.74769783  0.93081728  1
  Se  Se175  1  0.58395459  0.08075757  0.44821016  1
  Se  Se176  1  0.57779864  0.08572162  0.95151546  1
  Se  Se177  1  0.58325463  0.41345051  0.43859059  1
  Se  Se178  1  0.58454967  0.42080385  0.94511184  1
  Se  Se179  1  0.58025624  0.74840376  0.44759261  1
  Se  Se180  1  0.58586947  0.75168421  0.93693751  1
  Se  Se181  1  0.92434993  0.07925744  0.43266404  1
  Se  Se182  1  0.91441920  0.07049798  0.93213842  1
  Se  Se183  1  0.92470112  0.41465782  0.44584192  1
  Se  Se184  1  0.91589052  0.40979706  0.95788275  1
  Se  Se185  1  0.90570848  0.75569363  0.45691531  1
  Se  Se186  1  0.91832340  0.74483354  0.93861197  1
  Se  Se187  1  0.25707611  0.25033662  0.30597742  1
  Se  Se188  1  0.25294321  0.25136445  0.81849646  1
  Se  Se189  1  0.24419289  0.58352531  0.29553863  1
  Se  Se190  1  0.25119037  0.57060774  0.81632299  1
  Se  Se191  1  0.25251337  0.92072170  0.29869904  1
  Se  Se192  1  0.25001485  0.92357198  0.79674478  1
  Se  Se193  1  0.58372222  0.24733977  0.30588962  1
  Se  Se194  1  0.57243621  0.24716212  0.81435533  1
  Se  Se195  1  0.57955213  0.58225439  0.29221253  1
  Se  Se196  1  0.59219907  0.59366250  0.79620006  1
  Se  Se197  1  0.58131379  0.91683675  0.30800485  1
  Se  Se198  1  0.59685859  0.93722141  0.80612695  1
  Se  Se199  1  0.92519845  0.25534667  0.29216016  1
  Se  Se200  1  0.91978703  0.25074378  0.80439999  1
  Se  Se201  1  0.90896430  0.57682463  0.31483461  1
  Se  Se202  1  0.92649708  0.57807106  0.81620929  1
  Se  Se203  1  0.91533102  0.91249423  0.30766907  1
  Se  Se204  1  0.91352932  0.90989095  0.80115097  1
  Se  Se205  1  0.09165762  0.09099696  0.30607423  1
  Se  Se206  1  0.08794748  0.08886593  0.81388258  1
  Se  Se207  1  0.08726217  0.41370437  0.29725424  1
  Se  Se208  1  0.08235679  0.40820884  0.81967945  1
  Se  Se209  1  0.08922816  0.76139200  0.30713958  1
  Se  Se210  1  0.09051475  0.74746039  0.79470845  1
  Se  Se211  1  0.41799650  0.08334388  0.30663928  1
  Se  Se212  1  0.41165870  0.08186831  0.81568120  1
  Se  Se213  1  0.41859119  0.41631685  0.29623458  1
  Se  Se214  1  0.41457956  0.41977984  0.81137816  1
  Se  Se215  1  0.41538774  0.74687929  0.30229753  1
  Se  Se216  1  0.42120814  0.75398570  0.80763002  1
  Se  Se217  1  0.75845981  0.08436388  0.29908518  1
  Se  Se218  1  0.74769542  0.08756060  0.79695092  1
  Se  Se219  1  0.75918139  0.42003509  0.30895670  1
  Se  Se220  1  0.75154158  0.42075215  0.81514393  1
  Se  Se221  1  0.74327207  0.74855480  0.30636325  1
  Se  Se222  1  0.76657216  0.75804780  0.79698605  1
  Se  Se223  1  0.25456947  0.08217973  0.20008503  1
  Se  Se224  1  0.24824202  0.08693175  0.70219199  1
  Se  Se225  1  0.25914080  0.41703775  0.18935501  1
  Se  Se226  1  0.25408641  0.41488273  0.70613758  1
  Se  Se227  1  0.25292384  0.74787841  0.19836471  1
  Se  Se228  1  0.24853446  0.75476109  0.68444461  1
  Se  Se229  1  0.58342574  0.08065937  0.19932566  1
  Se  Se230  1  0.57636352  0.08578255  0.70449516  1
  Se  Se231  1  0.56620656  0.41629295  0.17329647  1
  Se  Se232  1  0.57146819  0.42181489  0.69050772  1
  Se  Se233  1  0.58074046  0.74859934  0.19565571  1
  Se  Se234  1  0.59032546  0.73648151  0.70209422  1
  Se  Se235  1  0.92036552  0.09599314  0.17829802  1
  Se  Se236  1  0.90956902  0.09152341  0.68403225  1
  Se  Se237  1  0.92427592  0.41950411  0.19175635  1
  Se  Se238  1  0.92407210  0.40987423  0.70617879  1
  Se  Se239  1  0.90778957  0.75470067  0.19616085  1
  Se  Se240  1  0.93928229  0.73375643  0.69849891  1
  Se  Se241  1  0.08756923  0.25183411  0.19095407  1
  Se  Se242  1  0.07871585  0.24970796  0.70673892  1
  Se  Se243  1  0.08376180  0.57508967  0.18113354  1
  Se  Se244  1  0.09099915  0.57612479  0.70624164  1
  Se  Se245  1  0.09433516  0.91407093  0.17987255  1
  Se  Se246  1  0.09101564  0.91414856  0.68215622  1
  Se  Se247  1  0.42173817  0.25376246  0.19224899  1
  Se  Se248  1  0.41094034  0.25291397  0.70130934  1
  Se  Se249  1  0.41293501  0.58671657  0.18506657  1
  Se  Se250  1  0.42107128  0.57393548  0.68717563  1
  Se  Se251  1  0.41657941  0.91582758  0.19808557  1
  Se  Se252  1  0.41881088  0.90949380  0.70554975  1
  Se  Se253  1  0.75548662  0.24661340  0.18783679  1
  Se  Se254  1  0.75141286  0.24412254  0.68730572  1
  Se  Se255  1  0.74808379  0.58067292  0.19800435  1
  Se  Se256  1  0.76123173  0.57218398  0.70254651  1
  Se  Se257  1  0.74789116  0.92281376  0.20005925  1
  Se  Se258  1  0.74979498  0.91435964  0.69946238  1
