# generated using pymatgen
data_In86Cu29Se144
_symmetry_space_group_name_H-M   'P 1'
_cell_length_a   17.58653270
_cell_length_b   17.58675002
_cell_length_c   23.45210748
_cell_angle_alpha   90.01059239
_cell_angle_beta   90.00255640
_cell_angle_gamma   90.01484086
_symmetry_Int_Tables_number   1
_chemical_formula_structural   In86Cu29Se144
_chemical_formula_sum   'In86 Cu29 Se144'
_cell_volume   7253.50087848
_cell_formula_units_Z   1
loop_
 _symmetry_equiv_pos_site_id
 _symmetry_equiv_pos_as_xyz
  1  'x, y, z'
loop_
 _atom_site_type_symbol
 _atom_site_label
 _atom_site_symmetry_multiplicity
 _atom_site_fract_x
 _atom_site_fract_y
 _atom_site_fract_z
 _atom_site_occupancy
  In  In0  1  -0.00575008  0.16033442  0.11711848  1
  In  In1  1  0.00785862  0.16664775  0.62005254  1
  In  In2  1  0.01148796  0.50816403  0.11861816  1
  In  In3  1  -0.01297643  0.50812592  0.63463854  1
  In  In4  1  -0.00676515  0.82679932  0.11819688  1
  In  In5  1  -0.00134149  0.82171217  0.62325495  1
  In  In6  1  0.33142873  0.17848991  0.12532295  1
  In  In7  1  0.32665864  0.16658552  0.63082808  1
  In  In8  1  0.33283666  0.49743209  0.12253906  1
  In  In9  1  0.31908826  0.49628695  0.63114001  1
  In  In10  1  0.31561268  0.83906867  0.12374632  1
  In  In11  1  0.32506349  0.84671865  0.62546945  1
  In  In12  1  0.68424092  0.16434104  0.13588622  1
  In  In13  1  0.67041057  0.15508076  0.62802762  1
  In  In14  1  0.65899244  0.49546301  0.11558800  1
  In  In15  1  0.69091640  0.49481399  0.62711205  1
  In  In16  1  0.67846284  0.82618659  0.12434035  1
  In  In17  1  0.68013985  0.83102638  0.64386716  1
  In  In18  1  0.16712275  0.00268770  0.40032244  1
  In  In19  1  0.16640976  -0.00621316  0.87333327  1
  In  In20  1  0.16927679  0.32431193  0.37275365  1
  In  In21  1  0.16274172  0.33147155  0.87565609  1
  In  In22  1  0.16896955  0.66936053  0.36635782  1
  In  In23  1  0.15340367  0.67257305  0.87880273  1
  In  In24  1  0.51123094  -0.00956871  0.37170383  1
  In  In25  1  0.50018740  0.00526257  0.86950734  1
  In  In26  1  0.50168497  0.33362171  0.36684115  1
  In  In27  1  0.49848123  0.34671592  0.87768699  1
  In  In28  1  0.49166782  0.68339061  0.36596318  1
  In  In29  1  0.50607183  0.65376023  0.88166131  1
  In  In30  1  0.83409374  0.01800345  0.37606002  1
  In  In31  1  0.83154365  0.00958491  0.87579386  1
  In  In32  1  0.83726638  0.33257365  0.37621250  1
  In  In33  1  0.84582238  0.32305279  0.88253008  1
  In  In34  1  0.83150897  0.65400286  0.37375145  1
  In  In35  1  0.83311091  0.67039135  0.87616520  1
  In  In36  1  0.00204795  0.16595071  0.38953778  1
  In  In37  1  -0.01295384  0.18076242  0.87724719  1
  In  In38  1  -0.01180268  0.50259715  0.37136752  1
  In  In39  1  -0.00128629  0.49952246  0.87734959  1
  In  In40  1  0.01237110  0.83284388  0.37685915  1
  In  In41  1  0.00521252  0.82604746  0.87584673  1
  In  In42  1  0.32221571  0.17081133  0.37233534  1
  In  In43  1  0.32167121  0.15829407  0.86831628  1
  In  In44  1  0.33163400  0.50012433  0.36437011  1
  In  In45  1  0.33920470  0.49107423  0.88090524  1
  In  In46  1  0.33280551  0.82983458  0.37342544  1
  In  In47  1  0.31777983  0.83367864  0.87483697  1
  In  In48  1  0.68055901  0.17531569  0.36277123  1
  In  In49  1  0.68472494  0.16415165  0.87123800  1
  In  In50  1  0.68588748  0.49980681  0.37278463  1
  In  In51  1  0.66280851  0.50985673  0.88239720  1
  In  In52  1  0.65765072  0.84408778  0.36878936  1
  In  In53  1  0.68612974  0.85156207  0.86186323  1
  In  In54  1  0.16224922  -0.00263964  0.11235103  1
  In  In55  1  0.17403950  0.00847922  0.61034153  1
  In  In56  1  0.16946879  0.33840181  0.11861043  1
  In  In57  1  0.16980309  0.32387573  0.63403317  1
  In  In58  1  0.16597735  0.66697656  0.12548841  1
  In  In59  1  0.14479182  0.66622134  0.62614186  1
  In  In60  1  0.50426387  0.01118359  0.12628650  1
  In  In61  1  0.50178845  -0.00567356  0.63261262  1
  In  In62  1  0.49629588  0.34338817  0.12980970  1
  In  In63  1  0.49501345  0.32223688  0.62935479  1
  In  In64  1  0.50192614  0.65204312  0.12343505  1
  In  In65  1  0.50821715  0.67944371  0.62516641  1
  In  In66  1  0.83313990  -0.00230583  0.12029718  1
  In  In67  1  0.82292007  -0.00215820  0.62774282  1
  In  In68  1  0.82372580  0.32717756  0.12074598  1
  In  In69  1  0.84509661  0.33720800  0.62382463  1
  In  In70  1  0.84476942  0.67349634  0.11774399  1
  In  In71  1  0.85510089  0.65554453  0.64432832  1
  In  In72  1  0.83950988  0.82990591  0.50588991  1
  In  In73  1  0.50290065  0.50078771  0.49000617  1
  In  In74  1  0.66276077  0.66386757  0.24726606  1
  In  In75  1  0.15897797  0.49961427  0.49887992  1
  In  In76  1  0.00076545  0.33411606  0.25380894  1
  In  In77  1  -0.00277780  -0.00450440  0.74353808  1
  In  In78  1  0.50009214  0.16211863  0.50640576  1
  In  In79  1  0.49879028  0.83808563  0.49375630  1
  In  In80  1  -0.00144924  0.00314831  0.25532761  1
  In  In81  1  0.33430069  0.66208277  0.75881221  1
  In  In82  1  0.33725600  -0.00029595  0.25306403  1
  In  In83  1  0.66422973  0.33349699  0.75314000  1
  In  In84  1  0.50147588  0.17389772  0.00783368  1
  In  In85  1  0.50213039  0.82478101  0.00325905  1
  Cu  Cu86  1  0.00110941  0.33511558  -0.00006403  1
  Cu  Cu87  1  0.17317098  0.50445518  0.24093845  1
  Cu  Cu88  1  0.49785932  0.49647239  0.24643193  1
  Cu  Cu89  1  0.67450363  0.00307285  -0.00129347  1
  Cu  Cu90  1  0.49103821  0.16603539  0.75072196  1
  Cu  Cu91  1  0.16736824  0.83318339  0.75123335  1
  Cu  Cu92  1  0.00068887  0.00048835  -0.00728726  1
  Cu  Cu93  1  0.67386508  0.66256659  0.50242396  1
  Cu  Cu94  1  0.83447766  0.49916283  0.24617486  1
  Cu  Cu95  1  0.50775681  0.17177626  0.24641264  1
  Cu  Cu96  1  0.66996399  0.33700595  -0.00336396  1
  Cu  Cu97  1  0.32814710  0.33104849  0.00062526  1
  Cu  Cu98  1  0.83521387  0.83411137  0.24337946  1
  Cu  Cu99  1  0.83380748  0.50139078  0.75826011  1
  Cu  Cu100  1  0.15880820  0.49178732  0.75336732  1
  Cu  Cu101  1  0.16647582  0.16707655  0.25112349  1
  Cu  Cu102  1  0.32187084  0.67474555  0.49466250  1
  Cu  Cu103  1  0.32492069  -0.00292421  -0.00677160  1
  Cu  Cu104  1  0.00134597  0.33558405  0.50253905  1
  Cu  Cu105  1  0.67686280  0.66996568  -0.00022651  1
  Cu  Cu106  1  0.32473316  0.66023589  -0.00111144  1
  Cu  Cu107  1  0.66861631  0.00005408  0.50326498  1
  Cu  Cu108  1  0.15942832  0.16661851  0.74881816  1
  Cu  Cu109  1  0.68443446  0.32804566  0.49853643  1
  Cu  Cu110  1  0.50209693  0.83247057  0.75151516  1
  Cu  Cu111  1  0.16560888  0.83370948  0.24988091  1
  Cu  Cu112  1  0.33296192  0.33102121  0.50678112  1
  Cu  Cu113  1  0.00118973  0.66239743  -0.00093245  1
  Cu  Cu114  1  0.49720687  0.49886027  0.75550666  1
  Se  Se115  1  0.08212937  0.08544157  0.04788771  1
  Se  Se116  1  0.08575617  0.08914151  0.54708884  1
  Se  Se117  1  0.08689241  0.41916701  0.05005266  1
  Se  Se118  1  0.07780611  0.41344300  0.56712014  1
  Se  Se119  1  0.08383026  0.74749867  0.05373646  1
  Se  Se120  1  0.07921279  0.74591670  0.55021867  1
  Se  Se121  1  0.40370665  0.07531863  0.05593748  1
  Se  Se122  1  0.40989774  0.07177488  0.56297566  1
  Se  Se123  1  0.41546343  0.41280671  0.05298581  1
  Se  Se124  1  0.41405742  0.41713784  0.55996571  1
  Se  Se125  1  0.40415755  0.74100095  0.06109625  1
  Se  Se126  1  0.40973028  0.74596536  0.55576412  1
  Se  Se127  1  0.75207929  0.08860222  0.05515128  1
  Se  Se128  1  0.75266997  0.08474063  0.55295767  1
  Se  Se129  1  0.75343000  0.41975788  0.05142030  1
  Se  Se130  1  0.76190954  0.41697916  0.55119179  1
  Se  Se131  1  0.75965903  0.75620963  0.04961024  1
  Se  Se132  1  0.74544060  0.74432727  0.56555906  1
  Se  Se133  1  0.24522806  0.24507824  0.05154205  1
  Se  Se134  1  0.24900100  0.24937560  0.55837174  1
  Se  Se135  1  0.24479970  0.57892145  0.05661345  1
  Se  Se136  1  0.25300506  0.59070171  0.55825146  1
  Se  Se137  1  0.24280623  0.91096000  0.04484882  1
  Se  Se138  1  0.24495199  0.90837387  0.54816446  1
  Se  Se139  1  0.59538004  0.25986415  0.06497732  1
  Se  Se140  1  0.59577041  0.25848244  0.55911008  1
  Se  Se141  1  0.58581846  0.58769163  0.04699070  1
  Se  Se142  1  0.58943642  0.58286421  0.56008088  1
  Se  Se143  1  0.59109454  0.92448163  0.05782941  1
  Se  Se144  1  0.59320781  0.91388747  0.56218052  1
  Se  Se145  1  0.91581533  0.25245854  0.05358284  1
  Se  Se146  1  0.91851596  0.24922855  0.55351511  1
  Se  Se147  1  0.91635463  0.57904283  0.05147402  1
  Se  Se148  1  0.91794462  0.58945213  0.55934751  1
  Se  Se149  1  0.91954195  0.91951317  0.05195710  1
  Se  Se150  1  0.92398221  0.92699829  0.56254310  1
  Se  Se151  1  0.08886497  0.25630168  0.44906171  1
  Se  Se152  1  0.08135675  0.24857759  0.94621900  1
  Se  Se153  1  0.07595413  0.59020145  0.43722612  1
  Se  Se154  1  0.08576035  0.57853707  0.94735549  1
  Se  Se155  1  0.07022932  0.92006181  0.45236670  1
  Se  Se156  1  0.08462353  0.91345014  0.94373366  1
  Se  Se157  1  0.41688866  0.25818293  0.44391987  1
  Se  Se158  1  0.41007474  0.25163140  0.93996334  1
  Se  Se159  1  0.40706724  0.59564027  0.43793244  1
  Se  Se160  1  0.41515079  0.58108428  0.94905071  1
  Se  Se161  1  0.40658913  0.93145814  0.44022304  1
  Se  Se162  1  0.41512291  0.91844960  0.94093550  1
  Se  Se163  1  0.75895971  0.24089836  0.44288427  1
  Se  Se164  1  0.75021702  0.24750084  0.94763608  1
  Se  Se165  1  0.75562195  0.57782287  0.45031016  1
  Se  Se166  1  0.75737089  0.58213827  0.94809191  1
  Se  Se167  1  0.74540692  0.91621402  0.44253910  1
  Se  Se168  1  0.75536187  0.91836806  0.94536005  1
  Se  Se169  1  0.25953625  0.09372962  0.45060109  1
  Se  Se170  1  0.24271265  0.08348775  0.94309866  1
  Se  Se171  1  0.25917244  0.41283781  0.44264129  1
  Se  Se172  1  0.24682931  0.41430185  0.94540237  1
  Se  Se173  1  0.24092162  0.75572720  0.44025426  1
  Se  Se174  1  0.24635205  0.74799698  0.94597082  1
  Se  Se175  1  0.59070376  0.08015232  0.44101162  1
  Se  Se176  1  0.58742661  0.08278155  0.94386552  1
  Se  Se177  1  0.59834125  0.40496803  0.44006949  1
  Se  Se178  1  0.58157813  0.42043469  0.94936747  1
  Se  Se179  1  0.59354221  0.73995410  0.44060886  1
  Se  Se180  1  0.59660454  0.74987930  0.93800459  1
  Se  Se181  1  0.92412150  0.07300929  0.45072059  1
  Se  Se182  1  0.91490977  0.08791634  0.94619968  1
  Se  Se183  1  0.92017965  0.41607810  0.44461608  1
  Se  Se184  1  0.91554877  0.41845147  0.94858982  1
  Se  Se185  1  0.91975104  0.74170137  0.43846765  1
  Se  Se186  1  0.91982680  0.74901710  0.94642630  1
  Se  Se187  1  0.25281228  0.25461462  0.29720287  1
  Se  Se188  1  0.24385416  0.24915622  0.80343406  1
  Se  Se189  1  0.25396376  0.58802506  0.29823450  1
  Se  Se190  1  0.24014682  0.57303467  0.81408179  1
  Se  Se191  1  0.23595060  0.92132646  0.31212546  1
  Se  Se192  1  0.25138334  0.91904115  0.79984691  1
  Se  Se193  1  0.58984522  0.25670795  0.29983984  1
  Se  Se194  1  0.57315146  0.24204736  0.81410049  1
  Se  Se195  1  0.57518725  0.57438430  0.31270468  1
  Se  Se196  1  0.58345974  0.58149469  0.80435346  1
  Se  Se197  1  0.57128517  0.90683397  0.29498786  1
  Se  Se198  1  0.58212865  0.92125794  0.80272936  1
  Se  Se199  1  0.91741287  0.23578149  0.31011340  1
  Se  Se200  1  0.90567392  0.24718637  0.80035118  1
  Se  Se201  1  0.91560817  0.58620859  0.29746945  1
  Se  Se202  1  0.91927129  0.58636845  0.80835355  1
  Se  Se203  1  0.90808898  0.90948591  0.31245653  1
  Se  Se204  1  0.91357731  0.91188784  0.81173329  1
  Se  Se205  1  0.09424848  0.08762380  0.31576717  1
  Se  Se206  1  0.07931659  0.08739603  0.81007776  1
  Se  Se207  1  0.09543093  0.42858611  0.30867597  1
  Se  Se208  1  0.07455916  0.41040131  0.80723232  1
  Se  Se209  1  0.07961771  0.75028857  0.30005550  1
  Se  Se210  1  0.08255552  0.74815168  0.79981896  1
  Se  Se211  1  0.42833795  0.09490727  0.31090816  1
  Se  Se212  1  0.40933804  0.07853761  0.80167311  1
  Se  Se213  1  0.41444516  0.41318359  0.30032497  1
  Se  Se214  1  0.41221522  0.41347742  0.80261151  1
  Se  Se215  1  0.41143892  0.76066802  0.29685571  1
  Se  Se216  1  0.42530521  0.75533780  0.81649969  1
  Se  Se217  1  0.73330839  0.06243203  0.30464488  1
  Se  Se218  1  0.74472357  0.07325363  0.79909522  1
  Se  Se219  1  0.75754963  0.41319009  0.30191087  1
  Se  Se220  1  0.75208627  0.42006415  0.81663353  1
  Se  Se221  1  0.75417045  0.75549297  0.30749075  1
  Se  Se222  1  0.73814905  0.73690947  0.80695456  1
  Se  Se223  1  0.24230584  0.08330997  0.18931532  1
  Se  Se224  1  0.24053192  0.08056911  0.69467860  1
  Se  Se225  1  0.25123334  0.41249169  0.19266047  1
  Se  Se226  1  0.24856409  0.41210907  0.70306674  1
  Se  Se227  1  0.24843728  0.75121063  0.19624316  1
  Se  Se228  1  0.24673452  0.74687214  0.69201887  1
  Se  Se229  1  0.58871341  0.08385490  0.19692669  1
  Se  Se230  1  0.57806193  0.08731606  0.69706775  1
  Se  Se231  1  0.58960616  0.41965831  0.19561044  1
  Se  Se232  1  0.57691415  0.42473277  0.68822748  1
  Se  Se233  1  0.57459244  0.75492569  0.18723193  1
  Se  Se234  1  0.58621873  0.74611885  0.70286627  1
  Se  Se235  1  0.90872691  0.09017009  0.19424936  1
  Se  Se236  1  0.91046907  0.09210307  0.68896149  1
  Se  Se237  1  0.91810133  0.42107200  0.18645082  1
  Se  Se238  1  0.91369733  0.41655784  0.70259678  1
  Se  Se239  1  0.91997125  0.74869567  0.19547958  1
  Se  Se240  1  0.90788337  0.76956246  0.69975265  1
  Se  Se241  1  0.08505181  0.24269569  0.18904176  1
  Se  Se242  1  0.07422355  0.25028972  0.69824931  1
  Se  Se243  1  0.08162051  0.58642688  0.19635898  1
  Se  Se244  1  0.08051565  0.58195741  0.70234535  1
  Se  Se245  1  0.08520841  0.91529235  0.19011391  1
  Se  Se246  1  0.09438598  0.91205457  0.68482174  1
  Se  Se247  1  0.41846799  0.25069577  0.19519106  1
  Se  Se248  1  0.40849569  0.25176290  0.70001611  1
  Se  Se249  1  0.41503296  0.58049719  0.19431764  1
  Se  Se250  1  0.42298267  0.57988043  0.68890295  1
  Se  Se251  1  0.42005115  0.91313801  0.18567893  1
  Se  Se252  1  0.41527513  0.91130829  0.69817896  1
  Se  Se253  1  0.75519657  0.25768304  0.20238124  1
  Se  Se254  1  0.75348345  0.24927935  0.69051410  1
  Se  Se255  1  0.75481176  0.57995064  0.18497373  1
  Se  Se256  1  0.75017814  0.58279445  0.70260316  1
  Se  Se257  1  0.75153620  0.91702115  0.19219669  1
  Se  Se258  1  0.74392535  0.93219760  0.70659493  1
