# generated using pymatgen
data_In86Cu29Se144
_symmetry_space_group_name_H-M   'P 1'
_cell_length_a   17.58949823
_cell_length_b   17.59507565
_cell_length_c   23.44661874
_cell_angle_alpha   90.00176835
_cell_angle_beta   89.95601654
_cell_angle_gamma   90.02259698
_symmetry_Int_Tables_number   1
_chemical_formula_structural   In86Cu29Se144
_chemical_formula_sum   'In86 Cu29 Se144'
_cell_volume   7256.45737448
_cell_formula_units_Z   1
loop_
 _symmetry_equiv_pos_site_id
 _symmetry_equiv_pos_as_xyz
  1  'x, y, z'
loop_
 _atom_site_type_symbol
 _atom_site_label
 _atom_site_symmetry_multiplicity
 _atom_site_fract_x
 _atom_site_fract_y
 _atom_site_fract_z
 _atom_site_occupancy
  In  In0  1  0.01863796  0.15033298  0.13438808  1
  In  In1  1  -0.00133872  0.17632758  0.60649303  1
  In  In2  1  0.02657074  0.48351849  0.14983549  1
  In  In3  1  0.01310376  0.49639643  0.62034253  1
  In  In4  1  0.00126218  0.83547048  0.13563464  1
  In  In5  1  -0.01321333  0.83010990  0.61950113  1
  In  In6  1  0.33289273  0.16782482  0.12950578  1
  In  In7  1  0.32400630  0.15503865  0.61209631  1
  In  In8  1  0.31183822  0.50439117  0.13927176  1
  In  In9  1  0.32812663  0.51243396  0.61976606  1
  In  In10  1  0.33437325  0.84533932  0.14216471  1
  In  In11  1  0.34011346  0.82883454  0.62916715  1
  In  In12  1  0.66507541  0.18185119  0.12707826  1
  In  In13  1  0.66593173  0.16761438  0.61629609  1
  In  In14  1  0.66631426  0.50201209  0.13307567  1
  In  In15  1  0.67019064  0.50032589  0.63700151  1
  In  In16  1  0.64917710  0.82752904  0.13328138  1
  In  In17  1  0.65639428  0.82356444  0.61832102  1
  In  In18  1  0.18580116  0.01479021  0.37143735  1
  In  In19  1  0.17782556  -0.00213255  0.87716718  1
  In  In20  1  0.16732307  0.33133571  0.37266566  1
  In  In21  1  0.16634825  0.33357266  0.88982176  1
  In  In22  1  0.16176760  0.65810091  0.36373102  1
  In  In23  1  0.16310729  0.66406893  0.86882446  1
  In  In24  1  0.48498919  0.00250166  0.38949147  1
  In  In25  1  0.49901592  0.01031915  0.87451081  1
  In  In26  1  0.48639190  0.32315332  0.36562599  1
  In  In27  1  0.50123710  0.32059397  0.87429967  1
  In  In28  1  0.50394109  0.67412014  0.36837337  1
  In  In29  1  0.49869176  0.67122903  0.86420566  1
  In  In30  1  0.83838187  -0.00298386  0.37932502  1
  In  In31  1  0.82820847  0.01088156  0.87379455  1
  In  In32  1  0.83134557  0.32479825  0.36825427  1
  In  In33  1  0.83531320  0.34469471  0.86996247  1
  In  In34  1  0.83751974  0.66925366  0.37476748  1
  In  In35  1  0.83784089  0.66201501  0.86489958  1
  In  In36  1  0.00661923  0.17011943  0.37341581  1
  In  In37  1  0.00286024  0.17616986  0.88120679  1
  In  In38  1  0.01443810  0.49992161  0.36403956  1
  In  In39  1  0.00751831  0.50625687  0.87810779  1
  In  In40  1  -0.01084812  0.82976688  0.37111495  1
  In  In41  1  0.01053927  0.82441328  0.87209944  1
  In  In42  1  0.33095456  0.16131446  0.38023548  1
  In  In43  1  0.34066558  0.16756511  0.88243907  1
  In  In44  1  0.32100794  0.49534453  0.36142578  1
  In  In45  1  0.32037192  0.50372410  0.87771110  1
  In  In46  1  0.34752827  0.84129741  0.36562916  1
  In  In47  1  0.33505988  0.83470782  0.86244028  1
  In  In48  1  0.65602146  0.17266640  0.37951013  1
  In  In49  1  0.65552871  0.16065791  0.86935001  1
  In  In50  1  0.66934847  0.49925527  0.36995361  1
  In  In51  1  0.67669539  0.50172630  0.85927199  1
  In  In52  1  0.66989058  0.82629655  0.38725568  1
  In  In53  1  0.67387992  0.83064978  0.87151428  1
  In  In54  1  0.16114231  0.01220960  0.13514913  1
  In  In55  1  0.16865212  0.01258217  0.62221295  1
  In  In56  1  0.17051713  0.33027601  0.13285606  1
  In  In57  1  0.15888678  0.33561709  0.60694376  1
  In  In58  1  0.17437735  0.65939099  0.13673389  1
  In  In59  1  0.17306854  0.66092004  0.62341238  1
  In  In60  1  0.47755501  0.00513741  0.13414374  1
  In  In61  1  0.47876941  -0.01868728  0.60224639  1
  In  In62  1  0.50538439  0.32648723  0.13275205  1
  In  In63  1  0.51057038  0.33222445  0.62235018  1
  In  In64  1  0.49725440  0.67661403  0.14312032  1
  In  In65  1  0.49159995  0.67990438  0.63589419  1
  In  In66  1  0.84300321  0.00536579  0.12890245  1
  In  In67  1  0.83668093  0.00357555  0.61145276  1
  In  In68  1  0.83295774  0.34388421  0.13454115  1
  In  In69  1  0.83479689  0.32401933  0.61879145  1
  In  In70  1  0.83929032  0.65901813  0.13162351  1
  In  In71  1  0.82310944  0.67118324  0.62974440  1
  In  In72  1  0.49245128  0.49019158  0.00251450  1
  In  In73  1  0.00167551  -0.00485356  0.75094312  1
  In  In74  1  0.17218305  0.83829420  0.49151973  1
  In  In75  1  0.83823056  0.17196567  0.00175278  1
  In  In76  1  0.83476519  0.82798120  0.00997919  1
  In  In77  1  0.49377043  0.83810937  0.00835614  1
  In  In78  1  -0.00328360  0.33695669  0.74145034  1
  In  In79  1  0.83962340  0.49961958  -0.00233046  1
  In  In80  1  0.16615971  0.83722891  -0.00062251  1
  In  In81  1  0.64949828  -0.01183787  0.73907793  1
  In  In82  1  0.33668416  0.33721461  0.75131468  1
  In  In83  1  0.49682225  0.50243000  0.50059097  1
  In  In84  1  0.66463382  -0.00169025  0.26218694  1
  In  In85  1  0.84321180  0.49710294  0.49387033  1
  Cu  Cu86  1  0.82950338  0.16767186  0.73757119  1
  Cu  Cu87  1  0.50108676  0.49643929  0.25239405  1
  Cu  Cu88  1  0.49649650  0.16407987  0.74831249  1
  Cu  Cu89  1  0.16779459  0.50202805  0.74739633  1
  Cu  Cu90  1  0.67149273  0.00191953  0.49646838  1
  Cu  Cu91  1  0.49730733  0.16691646  0.25623269  1
  Cu  Cu92  1  0.00301348  0.00521814  0.49374082  1
  Cu  Cu93  1  0.32699305  0.66361043  0.00581311  1
  Cu  Cu94  1  0.16391528  0.83679007  0.25805427  1
  Cu  Cu95  1  0.66081211  0.32839796  -0.00123823  1
  Cu  Cu96  1  0.83083985  0.82797647  0.74456483  1
  Cu  Cu97  1  0.66684749  0.33351129  0.49529265  1
  Cu  Cu98  1  0.00934068  0.66031111  0.00055997  1
  Cu  Cu99  1  0.32962714  0.00984189  0.00334025  1
  Cu  Cu100  1  0.66049827  0.00740315  -0.00212526  1
  Cu  Cu101  1  0.50135694  0.50374825  0.74586914  1
  Cu  Cu102  1  0.17369703  0.16691254  0.74662843  1
  Cu  Cu103  1  0.83319224  0.50204341  0.25600954  1
  Cu  Cu104  1  0.32846505  0.33160570  0.00796363  1
  Cu  Cu105  1  0.33046457  0.66536153  0.49762140  1
  Cu  Cu106  1  0.17507026  0.16675182  0.25417666  1
  Cu  Cu107  1  0.33158730  0.33057304  0.49033267  1
  Cu  Cu108  1  0.01083686  0.32715504  0.01443460  1
  Cu  Cu109  1  0.84118292  0.17101633  0.24837476  1
  Cu  Cu110  1  0.65656859  0.66129049  0.00078324  1
  Cu  Cu111  1  0.82515994  0.83453298  0.25792915  1
  Cu  Cu112  1  0.66290880  0.67085024  0.50678026  1
  Cu  Cu113  1  0.16726964  0.82711194  0.74687686  1
  Cu  Cu114  1  0.00224986  0.66609291  0.49152359  1
  Se  Se115  1  0.08581380  0.07758853  0.05458971  1
  Se  Se116  1  0.08621774  0.08522434  0.54905923  1
  Se  Se117  1  0.08968552  0.41871119  0.06311204  1
  Se  Se118  1  0.07626035  0.41841694  0.54197099  1
  Se  Se119  1  0.07975131  0.74765679  0.06151798  1
  Se  Se120  1  0.08180189  0.74754713  0.55384310  1
  Se  Se121  1  0.41729841  0.08866165  0.05617776  1
  Se  Se122  1  0.43188935  0.10030514  0.55002084  1
  Se  Se123  1  0.40402122  0.41202910  0.07116069  1
  Se  Se124  1  0.40601113  0.40793641  0.55860371  1
  Se  Se125  1  0.40439176  0.74443054  0.06595249  1
  Se  Se126  1  0.41326080  0.74376874  0.55489510  1
  Se  Se127  1  0.74422098  0.08035796  0.06060332  1
  Se  Se128  1  0.75328973  0.08953545  0.54769218  1
  Se  Se129  1  0.74156288  0.41140993  0.05590580  1
  Se  Se130  1  0.74160601  0.41813445  0.55487820  1
  Se  Se131  1  0.73652043  0.73914127  0.06292682  1
  Se  Se132  1  0.75489202  0.75285751  0.55299945  1
  Se  Se133  1  0.24660067  0.24663938  0.06040077  1
  Se  Se134  1  0.24864611  0.24942312  0.54764850  1
  Se  Se135  1  0.24396370  0.58109015  0.05815397  1
  Se  Se136  1  0.24315869  0.58072467  0.54548203  1
  Se  Se137  1  0.25688951  0.92250382  0.06295635  1
  Se  Se138  1  0.25567472  0.92005228  0.56052531  1
  Se  Se139  1  0.57753160  0.24880761  0.05323657  1
  Se  Se140  1  0.58177134  0.25090827  0.54760178  1
  Se  Se141  1  0.57737627  0.58627181  0.06341332  1
  Se  Se142  1  0.58548260  0.58665813  0.56573591  1
  Se  Se143  1  0.58638684  0.93047559  0.06423495  1
  Se  Se144  1  0.58849813  0.91507027  0.54774583  1
  Se  Se145  1  0.92234447  0.25371321  0.07087603  1
  Se  Se146  1  0.91522581  0.25932852  0.54239388  1
  Se  Se147  1  0.92910128  0.58159676  0.06200028  1
  Se  Se148  1  0.92206872  0.59229959  0.55805248  1
  Se  Se149  1  0.92837142  0.92377232  0.05761735  1
  Se  Se150  1  0.92156931  0.91885077  0.54638233  1
  Se  Se151  1  0.09625020  0.24217781  0.44297143  1
  Se  Se152  1  0.08755337  0.24372144  0.95553520  1
  Se  Se153  1  0.08541604  0.58260066  0.44078158  1
  Se  Se154  1  0.09504973  0.58153005  0.94670174  1
  Se  Se155  1  0.07979028  0.92513120  0.43165082  1
  Se  Se156  1  0.07219675  0.92543580  0.93991589  1
  Se  Se157  1  0.42083583  0.24690188  0.44558415  1
  Se  Se158  1  0.41636871  0.25687159  0.95086465  1
  Se  Se159  1  0.40936917  0.58489824  0.43517843  1
  Se  Se160  1  0.41346556  0.59293127  0.94346663  1
  Se  Se161  1  0.41378619  0.90350033  0.45164662  1
  Se  Se162  1  0.40593463  0.92375091  0.94277085  1
  Se  Se163  1  0.75072508  0.25047825  0.44312792  1
  Se  Se164  1  0.74589007  0.25459579  0.93695330  1
  Se  Se165  1  0.74085702  0.58909343  0.44568322  1
  Se  Se166  1  0.74301057  0.58890211  0.94197606  1
  Se  Se167  1  0.75608018  0.91498373  0.44848944  1
  Se  Se168  1  0.74464409  0.92372436  0.94586490  1
  Se  Se169  1  0.26012824  0.07492481  0.45377602  1
  Se  Se170  1  0.24717233  0.08893572  0.94650652  1
  Se  Se171  1  0.25109390  0.41903131  0.44074349  1
  Se  Se172  1  0.25240324  0.41942785  0.95260301  1
  Se  Se173  1  0.25444587  0.74275499  0.43243876  1
  Se  Se174  1  0.25780088  0.74761820  0.94034088  1
  Se  Se175  1  0.58243917  0.08335221  0.44791646  1
  Se  Se176  1  0.57716139  0.09085213  0.94709107  1
  Se  Se177  1  0.58238508  0.41198343  0.43723516  1
  Se  Se178  1  0.59136690  0.41615562  0.93708380  1
  Se  Se179  1  0.57590636  0.74550791  0.45009228  1
  Se  Se180  1  0.58376927  0.74925342  0.94367324  1
  Se  Se181  1  0.91811361  0.08922899  0.44228057  1
  Se  Se182  1  0.92466857  0.07445187  0.94410899  1
  Se  Se183  1  0.92770580  0.41015252  0.43077033  1
  Se  Se184  1  0.93332775  0.40133787  0.94637575  1
  Se  Se185  1  0.91407279  0.75163156  0.44757629  1
  Se  Se186  1  0.92352349  0.73923874  0.94373766  1
  Se  Se187  1  0.25840437  0.24872642  0.30816076  1
  Se  Se188  1  0.24350655  0.24998021  0.81147946  1
  Se  Se189  1  0.25989953  0.59643475  0.29579007  1
  Se  Se190  1  0.25166274  0.58431202  0.80119615  1
  Se  Se191  1  0.25475206  0.92071019  0.30247329  1
  Se  Se192  1  0.24425411  0.91713967  0.79985988  1
  Se  Se193  1  0.58645559  0.25222208  0.30172189  1
  Se  Se194  1  0.58220804  0.24789799  0.79889036  1
  Se  Se195  1  0.58384827  0.58147514  0.30441458  1
  Se  Se196  1  0.58475902  0.58619641  0.80052352  1
  Se  Se197  1  0.57722382  0.91249306  0.32311393  1
  Se  Se198  1  0.56981807  0.90503534  0.81176513  1
  Se  Se199  1  0.92583230  0.25309726  0.30123967  1
  Se  Se200  1  0.91062823  0.23965409  0.80387915  1
  Se  Se201  1  0.91832054  0.58463055  0.30709241  1
  Se  Se202  1  0.91325749  0.56354212  0.80801079  1
  Se  Se203  1  0.91329047  0.92046166  0.30263088  1
  Se  Se204  1  0.90504244  0.90752124  0.81097935  1
  Se  Se205  1  0.08855274  0.08318580  0.30500705  1
  Se  Se206  1  0.08872243  0.09287511  0.80850475  1
  Se  Se207  1  0.10592867  0.42453351  0.29673238  1
  Se  Se208  1  0.09371257  0.41515507  0.80755953  1
  Se  Se209  1  0.07703654  0.75110454  0.30406426  1
  Se  Se210  1  0.08071095  0.74407455  0.79735851  1
  Se  Se211  1  0.41770223  0.08067212  0.30938755  1
  Se  Se212  1  0.41228562  0.08696967  0.80566378  1
  Se  Se213  1  0.41206841  0.41265761  0.29845676  1
  Se  Se214  1  0.42536427  0.42775884  0.81373219  1
  Se  Se215  1  0.40555390  0.73680931  0.30135645  1
  Se  Se216  1  0.40938035  0.74430651  0.79815752  1
  Se  Se217  1  0.75801649  0.09523916  0.31123963  1
  Se  Se218  1  0.74844780  0.08421961  0.79599593  1
  Se  Se219  1  0.74918254  0.41336577  0.30297986  1
  Se  Se220  1  0.74897303  0.40643752  0.79665212  1
  Se  Se221  1  0.74556286  0.74881625  0.31051255  1
  Se  Se222  1  0.74983548  0.74684004  0.80204080  1
  Se  Se223  1  0.25827274  0.08024278  0.20105623  1
  Se  Se224  1  0.25580333  0.08254730  0.69521279  1
  Se  Se225  1  0.22623208  0.42672887  0.20833823  1
  Se  Se226  1  0.24184998  0.41667413  0.68649137  1
  Se  Se227  1  0.24678073  0.75669091  0.20037504  1
  Se  Se228  1  0.25120977  0.74533529  0.69304003  1
  Se  Se229  1  0.58088628  0.08868983  0.19461496  1
  Se  Se230  1  0.56995479  0.08614305  0.68174098  1
  Se  Se231  1  0.58670221  0.41406015  0.19838074  1
  Se  Se232  1  0.58093606  0.41326235  0.69764281  1
  Se  Se233  1  0.59147254  0.74358084  0.21021424  1
  Se  Se234  1  0.58901284  0.75161513  0.69851663  1
  Se  Se235  1  0.92224282  0.07985381  0.20198591  1
  Se  Se236  1  0.91886993  0.08845625  0.68601270  1
  Se  Se237  1  0.91867477  0.41659373  0.20578258  1
  Se  Se238  1  0.90686430  0.42648059  0.68395714  1
  Se  Se239  1  0.90742084  0.75646157  0.19734838  1
  Se  Se240  1  0.91997078  0.74676780  0.69527615  1
  Se  Se241  1  0.08650654  0.24598775  0.20082222  1
  Se  Se242  1  0.09064913  0.24301748  0.68639911  1
  Se  Se243  1  0.05988628  0.61120874  0.19533143  1
  Se  Se244  1  0.08417909  0.58291932  0.69267028  1
  Se  Se245  1  0.08346213  0.92085197  0.20127457  1
  Se  Se246  1  0.08875212  0.90862143  0.68564417  1
  Se  Se247  1  0.41554583  0.24982895  0.19970042  1
  Se  Se248  1  0.41738705  0.24578692  0.68708672  1
  Se  Se249  1  0.41725100  0.57579393  0.19619578  1
  Se  Se250  1  0.41191229  0.58067627  0.69426289  1
  Se  Se251  1  0.44572215  0.89697502  0.20217032  1
  Se  Se252  1  0.41996382  0.92149011  0.69141647  1
  Se  Se253  1  0.75219723  0.25233926  0.19789904  1
  Se  Se254  1  0.74517674  0.25092136  0.68819608  1
  Se  Se255  1  0.75031979  0.58436678  0.19978781  1
  Se  Se256  1  0.75150404  0.58560859  0.70078747  1
  Se  Se257  1  0.75159733  0.91397625  0.19101648  1
  Se  Se258  1  0.75855865  0.91391513  0.68459358  1
