# generated using pymatgen
data_In86Cu29Se144
_symmetry_space_group_name_H-M   'P 1'
_cell_length_a   17.57068462
_cell_length_b   17.57172902
_cell_length_c   23.42452528
_cell_angle_alpha   90.02010923
_cell_angle_beta   89.96160042
_cell_angle_gamma   89.99831608
_symmetry_Int_Tables_number   1
_chemical_formula_structural   In86Cu29Se144
_chemical_formula_sum   'In86 Cu29 Se144'
_cell_volume   7232.25707057
_cell_formula_units_Z   1
loop_
 _symmetry_equiv_pos_site_id
 _symmetry_equiv_pos_as_xyz
  1  'x, y, z'
loop_
 _atom_site_type_symbol
 _atom_site_label
 _atom_site_symmetry_multiplicity
 _atom_site_fract_x
 _atom_site_fract_y
 _atom_site_fract_z
 _atom_site_occupancy
  In  In0  1  -0.01778905  0.18222512  0.14898447  1
  In  In1  1  0.00244734  0.16365549  0.63141785  1
  In  In2  1  -0.00395119  0.50092838  0.12243729  1
  In  In3  1  -0.01007440  0.49902594  0.62440956  1
  In  In4  1  0.00666977  0.81332397  0.15235861  1
  In  In5  1  -0.00122345  0.83628464  0.61539156  1
  In  In6  1  0.33070937  0.14722440  0.12797507  1
  In  In7  1  0.34004347  0.17467474  0.62303435  1
  In  In8  1  0.33954430  0.50698056  0.11640142  1
  In  In9  1  0.33116783  0.48514446  0.62466974  1
  In  In10  1  0.33522702  0.83851296  0.12729849  1
  In  In11  1  0.32585062  0.84404900  0.61970495  1
  In  In12  1  0.68220902  0.17806439  0.12010111  1
  In  In13  1  0.66479707  0.17946915  0.61902495  1
  In  In14  1  0.66234085  0.49415472  0.12934798  1
  In  In15  1  0.67310310  0.51301900  0.61157833  1
  In  In16  1  0.65385742  0.83066702  0.12866351  1
  In  In17  1  0.66690331  0.81531839  0.62159443  1
  In  In18  1  0.14308820  -0.02050794  0.34138841  1
  In  In19  1  0.15291871  0.00051963  0.88065029  1
  In  In20  1  0.15433034  0.33806112  0.36897508  1
  In  In21  1  0.17299989  0.33645394  0.87437931  1
  In  In22  1  0.15837090  0.68868913  0.36948208  1
  In  In23  1  0.16471020  0.66920802  0.88908436  1
  In  In24  1  0.51145110  0.01348512  0.37483858  1
  In  In25  1  0.49826312  0.00060035  0.88555676  1
  In  In26  1  0.50663737  0.32779635  0.37408251  1
  In  In27  1  0.49560779  0.33871036  0.88284416  1
  In  In28  1  0.51131489  0.65068135  0.37885097  1
  In  In29  1  0.51226448  0.65500710  0.88328269  1
  In  In30  1  0.83341392  -0.01795972  0.36685473  1
  In  In31  1  0.85125039  -0.00095035  0.88043007  1
  In  In32  1  0.84206677  0.33837670  0.36704696  1
  In  In33  1  0.84250848  0.32758838  0.88366784  1
  In  In34  1  0.83180930  0.66252769  0.36775789  1
  In  In35  1  0.81967424  0.66345356  0.87514021  1
  In  In36  1  -0.01268157  0.15536046  0.34723134  1
  In  In37  1  -0.00195146  0.15971779  0.87810124  1
  In  In38  1  -0.01589894  0.49088152  0.36676192  1
  In  In39  1  0.00943493  0.49113180  0.88812381  1
  In  In40  1  -0.00638084  0.83301303  0.36179577  1
  In  In41  1  0.00214507  0.84656813  0.88044677  1
  In  In42  1  0.34598399  0.16037727  0.37087403  1
  In  In43  1  0.33027514  0.17963381  0.87777763  1
  In  In44  1  0.34101760  0.50604821  0.37371206  1
  In  In45  1  0.34423867  0.49191130  0.88397167  1
  In  In46  1  0.31831478  0.83651265  0.37154813  1
  In  In47  1  0.32970123  0.83584574  0.88448460  1
  In  In48  1  0.65041994  0.15719919  0.37483060  1
  In  In49  1  0.66749850  0.16971773  0.88633289  1
  In  In50  1  0.67042174  0.50538295  0.37070852  1
  In  In51  1  0.66283792  0.50451401  0.88059958  1
  In  In52  1  0.69170480  0.82754673  0.37549058  1
  In  In53  1  0.67226531  0.81540858  0.87596302  1
  In  In54  1  0.16557817  -0.00684665  0.14131731  1
  In  In55  1  0.15871989  -0.01046436  0.62035258  1
  In  In56  1  0.15064470  0.33239681  0.12855504  1
  In  In57  1  0.16618678  0.33299617  0.63427265  1
  In  In58  1  0.16303423  0.66483489  0.12150550  1
  In  In59  1  0.15127398  0.67286434  0.61837554  1
  In  In60  1  0.49606109  -0.00876368  0.12053708  1
  In  In61  1  0.48680398  0.00537578  0.61914727  1
  In  In62  1  0.51901003  0.34596135  0.11641499  1
  In  In63  1  0.49663192  0.33275661  0.61990459  1
  In  In64  1  0.50415705  0.66677277  0.12642232  1
  In  In65  1  0.51562835  0.66541332  0.62341251  1
  In  In66  1  0.83965958  0.01205166  0.12850122  1
  In  In67  1  0.84845222  0.00333381  0.62110131  1
  In  In68  1  0.82602769  0.33244475  0.13018005  1
  In  In69  1  0.83118835  0.34305195  0.62609937  1
  In  In70  1  0.84001064  0.65427713  0.13839726  1
  In  In71  1  0.82135057  0.65834325  0.60804160  1
  In  In72  1  0.33487946  0.66880212  0.24551223  1
  In  In73  1  0.66640656  0.00118097  0.25227197  1
  In  In74  1  0.33862729  0.33704501  0.24086881  1
  In  In75  1  0.16625974  0.50655405  0.49774273  1
  In  In76  1  0.16780055  0.16598770  0.48235256  1
  In  In77  1  -0.00270800  0.66312172  0.74827111  1
  In  In78  1  0.83348113  0.83529250  0.00544701  1
  In  In79  1  0.33473823  0.66469404  0.75335846  1
  In  In80  1  0.82427959  0.16241120  0.49403880  1
  In  In81  1  0.66957783  -0.00056558  0.74475851  1
  In  In82  1  0.50953382  0.83385189  0.49469982  1
  In  In83  1  0.16370293  0.16241768  0.00953295  1
  In  In84  1  0.66781874  0.33670969  0.74713319  1
  In  In85  1  0.32785561  0.00429545  0.74306580  1
  Cu  Cu86  1  0.00302528  -0.00144555  0.00968596  1
  Cu  Cu87  1  0.49812971  0.82943604  0.25049373  1
  Cu  Cu88  1  0.33588941  0.67230516  0.49344050  1
  Cu  Cu89  1  0.83533737  0.49798597  0.74617610  1
  Cu  Cu90  1  0.84317030  0.15962779  0.75632437  1
  Cu  Cu91  1  -0.00806657  0.33368574  0.49677706  1
  Cu  Cu92  1  0.15836818  0.83721634  0.74665617  1
  Cu  Cu93  1  0.16009539  0.16903506  0.75565671  1
  Cu  Cu94  1  0.50249216  0.16751074  0.24615408  1
  Cu  Cu95  1  0.50765766  0.82619032  0.75365757  1
  Cu  Cu96  1  0.33624879  0.33287783  0.00148586  1
  Cu  Cu97  1  0.66225905  0.34122119  0.49571185  1
  Cu  Cu98  1  0.83860121  0.82900712  0.75255011  1
  Cu  Cu99  1  -0.00349357  0.67520975  0.49089837  1
  Cu  Cu100  1  0.49326720  0.17499612  0.74876044  1
  Cu  Cu101  1  0.33438498  -0.00557540  0.00699979  1
  Cu  Cu102  1  0.66556500  0.66209764  0.00416433  1
  Cu  Cu103  1  -0.00567611  0.33331387  0.00841316  1
  Cu  Cu104  1  0.67263721  0.33451099  0.00223088  1
  Cu  Cu105  1  0.32743228  0.00114802  0.49712701  1
  Cu  Cu106  1  0.34011328  0.33040934  0.49645096  1
  Cu  Cu107  1  0.16924221  0.49258157  0.75850660  1
  Cu  Cu108  1  0.00276302  -0.00666071  0.48948889  1
  Cu  Cu109  1  0.50194045  0.49846634  0.75685267  1
  Cu  Cu110  1  0.33235347  0.67216857  0.00446096  1
  Cu  Cu111  1  0.82981233  0.49899382  0.24692712  1
  Cu  Cu112  1  0.66514176  0.00040540  0.00639849  1
  Cu  Cu113  1  0.15727356  0.50757547  0.24726686  1
  Cu  Cu114  1  -0.00401972  0.67064041  0.01014851  1
  Se  Se115  1  0.07392509  0.08215747  0.07423975  1
  Se  Se116  1  0.07669616  0.08080280  0.55014997  1
  Se  Se117  1  0.08320650  0.41808830  0.05413829  1
  Se  Se118  1  0.07938773  0.40808337  0.55588028  1
  Se  Se119  1  0.07442436  0.75741526  0.06283646  1
  Se  Se120  1  0.08266344  0.75582775  0.54441270  1
  Se  Se121  1  0.41877228  0.08300321  0.05313184  1
  Se  Se122  1  0.40810349  0.08766131  0.54905924  1
  Se  Se123  1  0.42124367  0.41834408  0.05185051  1
  Se  Se124  1  0.41692635  0.41884411  0.55022653  1
  Se  Se125  1  0.41666322  0.75055028  0.06133910  1
  Se  Se126  1  0.41338623  0.74957937  0.55944316  1
  Se  Se127  1  0.75535497  0.08138191  0.05368289  1
  Se  Se128  1  0.74033535  0.07524379  0.56089927  1
  Se  Se129  1  0.75156096  0.41879245  0.05823193  1
  Se  Se130  1  0.75161683  0.41492805  0.55156675  1
  Se  Se131  1  0.74628295  0.74242047  0.06409624  1
  Se  Se132  1  0.75673844  0.76035092  0.54623949  1
  Se  Se133  1  0.25672248  0.25633109  0.06537239  1
  Se  Se134  1  0.24798597  0.25716641  0.55325709  1
  Se  Se135  1  0.24732941  0.58465353  0.05231908  1
  Se  Se136  1  0.25854296  0.59427122  0.56080915  1
  Se  Se137  1  0.24509737  0.92130099  0.06293778  1
  Se  Se138  1  0.24237553  0.91624910  0.54690002  1
  Se  Se139  1  0.58781861  0.24713239  0.05116209  1
  Se  Se140  1  0.58081809  0.25422259  0.54888701  1
  Se  Se141  1  0.58159384  0.57887600  0.05766421  1
  Se  Se142  1  0.57651725  0.58225710  0.54696753  1
  Se  Se143  1  0.58260155  0.91056713  0.05217773  1
  Se  Se144  1  0.58772919  0.92294077  0.56415509  1
  Se  Se145  1  0.91577267  0.24758501  0.06328048  1
  Se  Se146  1  0.91785558  0.24886249  0.55852088  1
  Se  Se147  1  0.90930665  0.58511824  0.05571455  1
  Se  Se148  1  0.92569450  0.58574686  0.55021716  1
  Se  Se149  1  0.92661586  0.91369081  0.06945105  1
  Se  Se150  1  0.91546787  0.91796317  0.54578791  1
  Se  Se151  1  0.06352726  0.25204125  0.43330680  1
  Se  Se152  1  0.07918153  0.25501489  0.94667352  1
  Se  Se153  1  0.07606041  0.58818179  0.43305099  1
  Se  Se154  1  0.07974665  0.58685305  0.95453425  1
  Se  Se155  1  0.08310510  0.91535667  0.43002459  1
  Se  Se156  1  0.08628124  0.91525562  0.95589238  1
  Se  Se157  1  0.42033513  0.24586648  0.44243190  1
  Se  Se158  1  0.41868808  0.24684280  0.94970365  1
  Se  Se159  1  0.41803754  0.58182059  0.44900167  1
  Se  Se160  1  0.41520966  0.58737057  0.94942891  1
  Se  Se161  1  0.41250732  0.92131751  0.43830237  1
  Se  Se162  1  0.41815808  0.91300613  0.95151505  1
  Se  Se163  1  0.74130815  0.25840050  0.43504817  1
  Se  Se164  1  0.75671085  0.24743638  0.95165747  1
  Se  Se165  1  0.76112789  0.57644048  0.44060068  1
  Se  Se166  1  0.75126495  0.58074815  0.95062273  1
  Se  Se167  1  0.73669161  0.93650299  0.44076606  1
  Se  Se168  1  0.74374960  0.92291854  0.94001843  1
  Se  Se169  1  0.25117653  0.06840375  0.42725132  1
  Se  Se170  1  0.25631520  0.07620689  0.94393617  1
  Se  Se171  1  0.25516294  0.41005020  0.43872514  1
  Se  Se172  1  0.25029826  0.41500211  0.94847787  1
  Se  Se173  1  0.24633121  0.75250896  0.44564411  1
  Se  Se174  1  0.24615520  0.75659574  0.95379109  1
  Se  Se175  1  0.58033718  0.08531479  0.45488637  1
  Se  Se176  1  0.58266891  0.08444624  0.95087244  1
  Se  Se177  1  0.58152059  0.42214646  0.43898984  1
  Se  Se178  1  0.58612446  0.41595011  0.94813594  1
  Se  Se179  1  0.60099699  0.74141066  0.44109830  1
  Se  Se180  1  0.58531515  0.74962120  0.95011886  1
  Se  Se181  1  0.92285472  0.08022175  0.43418509  1
  Se  Se182  1  0.92134734  0.08257544  0.95472397  1
  Se  Se183  1  0.90943310  0.41929444  0.44634925  1
  Se  Se184  1  0.91379512  0.41865056  0.95337021  1
  Se  Se185  1  0.91359179  0.75392055  0.43456619  1
  Se  Se186  1  0.92064859  0.74387429  0.93997928  1
  Se  Se187  1  0.25645328  0.25607538  0.31187524  1
  Se  Se188  1  0.25007855  0.25059984  0.80291730  1
  Se  Se189  1  0.24016778  0.58087720  0.30950604  1
  Se  Se190  1  0.24355585  0.57944602  0.81622863  1
  Se  Se191  1  0.25883126  0.91691629  0.29218572  1
  Se  Se192  1  0.24268196  0.91304736  0.80757518  1
  Se  Se193  1  0.58580451  0.24729859  0.30110174  1
  Se  Se194  1  0.58085996  0.24559490  0.80951419  1
  Se  Se195  1  0.58806116  0.58749103  0.29969560  1
  Se  Se196  1  0.58841116  0.58363954  0.80418420  1
  Se  Se197  1  0.58092712  0.90492523  0.31335697  1
  Se  Se198  1  0.58150155  0.91411098  0.81187582  1
  Se  Se199  1  0.91566195  0.25773352  0.29209918  1
  Se  Se200  1  0.91998560  0.24836472  0.80977214  1
  Se  Se201  1  0.91740505  0.58351446  0.29679813  1
  Se  Se202  1  0.91301723  0.57396390  0.81250368  1
  Se  Se203  1  0.93606782  0.94052219  0.29343594  1
  Se  Se204  1  0.91910276  0.91504949  0.80439892  1
  Se  Se205  1  0.11315828  0.11319198  0.30149874  1
  Se  Se206  1  0.08059209  0.07981068  0.80578250  1
  Se  Se207  1  0.07674934  0.41788282  0.29758116  1
  Se  Se208  1  0.07927795  0.41372002  0.80919795  1
  Se  Se209  1  0.07591305  0.74947001  0.29233408  1
  Se  Se210  1  0.08714769  0.75322200  0.81033766  1
  Se  Se211  1  0.42510579  0.07867520  0.29879807  1
  Se  Se212  1  0.41980714  0.08735789  0.80834501  1
  Se  Se213  1  0.42585023  0.42335102  0.30538488  1
  Se  Se214  1  0.41726083  0.41411345  0.80652983  1
  Se  Se215  1  0.42228268  0.75046431  0.31559875  1
  Se  Se216  1  0.42216172  0.75454727  0.81510933  1
  Se  Se217  1  0.75710751  0.09169200  0.31079948  1
  Se  Se218  1  0.75479199  0.08529073  0.81358120  1
  Se  Se219  1  0.74922974  0.41536763  0.30249004  1
  Se  Se220  1  0.75762907  0.42010879  0.81129373  1
  Se  Se221  1  0.77126764  0.76355713  0.29692052  1
  Se  Se222  1  0.75009348  0.74463957  0.79843548  1
  Se  Se223  1  0.25186099  0.08031590  0.20417936  1
  Se  Se224  1  0.23516379  0.09483973  0.68513252  1
  Se  Se225  1  0.24249513  0.43105824  0.18745516  1
  Se  Se226  1  0.25275883  0.41385490  0.70128654  1
  Se  Se227  1  0.23905869  0.75793035  0.19319803  1
  Se  Se228  1  0.24162586  0.75498243  0.69078852  1
  Se  Se229  1  0.58249012  0.08679325  0.18410910  1
  Se  Se230  1  0.57351860  0.09392739  0.68962906  1
  Se  Se231  1  0.59136471  0.40324186  0.20012744  1
  Se  Se232  1  0.58021398  0.42708930  0.68750393  1
  Se  Se233  1  0.58313754  0.74452177  0.20170225  1
  Se  Se234  1  0.58899645  0.74371872  0.69959264  1
  Se  Se235  1  0.92072728  0.07347289  0.20888996  1
  Se  Se236  1  0.92224883  0.07696852  0.69920904  1
  Se  Se237  1  0.91640674  0.41797550  0.19314427  1
  Se  Se238  1  0.92099108  0.41189664  0.69804387  1
  Se  Se239  1  0.88832505  0.76157275  0.20575488  1
  Se  Se240  1  0.91074226  0.74960437  0.68496314  1
  Se  Se241  1  0.09703476  0.24050566  0.20296928  1
  Se  Se242  1  0.07828593  0.25244872  0.69933631  1
  Se  Se243  1  0.07608704  0.58884413  0.19153899  1
  Se  Se244  1  0.09452038  0.57134720  0.69239575  1
  Se  Se245  1  0.06489658  0.92748692  0.20749985  1
  Se  Se246  1  0.07402205  0.91648375  0.69232156  1
  Se  Se247  1  0.42589781  0.24444300  0.18139085  1
  Se  Se248  1  0.41283543  0.25938362  0.69527137  1
  Se  Se249  1  0.42559295  0.57103946  0.19550718  1
  Se  Se250  1  0.42251745  0.57621264  0.69121354  1
  Se  Se251  1  0.41980637  0.91695167  0.19826054  1
  Se  Se252  1  0.42559046  0.90544612  0.69427442  1
  Se  Se253  1  0.75503409  0.24221063  0.20111859  1
  Se  Se254  1  0.76209529  0.23830221  0.69506335  1
  Se  Se255  1  0.74010676  0.58221285  0.19927776  1
  Se  Se256  1  0.75565549  0.58025719  0.68921397  1
  Se  Se257  1  0.75229772  0.91437289  0.18793238  1
  Se  Se258  1  0.76088844  0.90857475  0.68805696  1
