# generated using pymatgen
data_In86Cu29Se144
_symmetry_space_group_name_H-M   'P 1'
_cell_length_a   17.57077211
_cell_length_b   17.56928740
_cell_length_c   23.42233605
_cell_angle_alpha   89.97921992
_cell_angle_beta   89.97653955
_cell_angle_gamma   89.99384486
_symmetry_Int_Tables_number   1
_chemical_formula_structural   In86Cu29Se144
_chemical_formula_sum   'In86 Cu29 Se144'
_cell_volume   7230.61325943
_cell_formula_units_Z   1
loop_
 _symmetry_equiv_pos_site_id
 _symmetry_equiv_pos_as_xyz
  1  'x, y, z'
loop_
 _atom_site_type_symbol
 _atom_site_label
 _atom_site_symmetry_multiplicity
 _atom_site_fract_x
 _atom_site_fract_y
 _atom_site_fract_z
 _atom_site_occupancy
  In  In0  1  -0.01077151  0.17474310  0.12361709  1
  In  In1  1  0.00289301  0.18165128  0.63969218  1
  In  In2  1  -0.00249536  0.50985115  0.12268774  1
  In  In3  1  -0.01265745  0.49021708  0.61708204  1
  In  In4  1  0.01066414  0.82370564  0.11857592  1
  In  In5  1  0.01570197  0.84675573  0.62725494  1
  In  In6  1  0.34237891  0.16329140  0.14164866  1
  In  In7  1  0.32498846  0.15670803  0.62024647  1
  In  In8  1  0.34798458  0.49332861  0.13708580  1
  In  In9  1  0.34054477  0.50758091  0.59553094  1
  In  In10  1  0.33428039  0.82956673  0.12771977  1
  In  In11  1  0.33708979  0.83662702  0.61688901  1
  In  In12  1  0.67879495  0.16499551  0.12385405  1
  In  In13  1  0.67824758  0.17777714  0.61808659  1
  In  In14  1  0.66730328  0.50439962  0.13011676  1
  In  In15  1  0.66470037  0.49573488  0.62455007  1
  In  In16  1  0.65048166  0.83755087  0.12651108  1
  In  In17  1  0.64966760  0.82908034  0.62514852  1
  In  In18  1  0.18722457  -0.03891118  0.39763768  1
  In  In19  1  0.15318231  -0.01394917  0.85504298  1
  In  In20  1  0.18861605  0.33088388  0.38378114  1
  In  In21  1  0.16023990  0.34465129  0.86650925  1
  In  In22  1  0.19410342  0.65013893  0.40273780  1
  In  In23  1  0.18182228  0.67334584  0.87225536  1
  In  In24  1  0.48226996  0.01129806  0.38543829  1
  In  In25  1  0.48479162  -0.00645895  0.87034715  1
  In  In26  1  0.50419713  0.33260835  0.37599800  1
  In  In27  1  0.50997879  0.33359583  0.87290141  1
  In  In28  1  0.49761754  0.66402988  0.38116580  1
  In  In29  1  0.50657442  0.65678182  0.88273404  1
  In  In30  1  0.84245688  0.00748229  0.38413256  1
  In  In31  1  0.84887956  0.00431276  0.87283734  1
  In  In32  1  0.81801814  0.34220497  0.38082840  1
  In  In33  1  0.83054813  0.33570588  0.87770418  1
  In  In34  1  0.81938095  0.65495061  0.36691406  1
  In  In35  1  0.81352220  0.66719382  0.87206339  1
  In  In36  1  -0.00662960  0.15320491  0.38419301  1
  In  In37  1  -0.00485468  0.15812214  0.86637737  1
  In  In38  1  -0.00177524  0.50157457  0.38403436  1
  In  In39  1  -0.00326504  0.48398762  0.86842122  1
  In  In40  1  0.02513965  0.83342877  0.38530781  1
  In  In41  1  0.00230267  0.84586374  0.86915620  1
  In  In42  1  0.36701650  0.18724761  0.35388495  1
  In  In43  1  0.34387946  0.15251896  0.87067059  1
  In  In44  1  0.34532240  0.50235145  0.38472104  1
  In  In45  1  0.33537050  0.50930400  0.87604409  1
  In  In46  1  0.33407634  0.83110926  0.37541993  1
  In  In47  1  0.32900264  0.83658615  0.88422448  1
  In  In48  1  0.64707460  0.18362515  0.38823272  1
  In  In49  1  0.66516462  0.18761256  0.87232427  1
  In  In50  1  0.66755409  0.49369974  0.37393591  1
  In  In51  1  0.66411688  0.50000033  0.87672879  1
  In  In52  1  0.66163791  0.81268369  0.37058282  1
  In  In53  1  0.66605414  0.81538816  0.87240528  1
  In  In54  1  0.18041711  -0.00384005  0.12749079  1
  In  In55  1  0.17504256  0.00064143  0.64214892  1
  In  In56  1  0.17612853  0.34165741  0.13109228  1
  In  In57  1  0.15662988  0.32804535  0.61988857  1
  In  In58  1  0.16273921  0.67763663  0.12557662  1
  In  In59  1  0.17890414  0.67886917  0.60960750  1
  In  In60  1  0.49977038  -0.01222540  0.12599352  1
  In  In61  1  0.48716232  -0.00742005  0.61471877  1
  In  In62  1  0.49185551  0.34302457  0.13575505  1
  In  In63  1  0.50671684  0.34526087  0.61126321  1
  In  In64  1  0.50172838  0.66586556  0.13158761  1
  In  In65  1  0.49961051  0.67099285  0.61379693  1
  In  In66  1  0.82321534  0.01033887  0.12028335  1
  In  In67  1  0.84053877  0.01821902  0.62351367  1
  In  In68  1  0.82284070  0.33272891  0.12353777  1
  In  In69  1  0.83061612  0.33378338  0.62764356  1
  In  In70  1  0.82852060  0.65110680  0.12177350  1
  In  In71  1  0.82968872  0.64918794  0.62662707  1
  In  In72  1  0.50554859  0.16666278  0.00027106  1
  In  In73  1  0.00140404  0.66455102  0.74364511  1
  In  In74  1  0.16603211  0.16459000  -0.00612404  1
  In  In75  1  0.16602304  0.50469567  0.00188004  1
  In  In76  1  0.83566790  0.83620102  -0.00578131  1
  In  In77  1  0.33792772  0.67009473  0.73652322  1
  In  In78  1  0.65868242  0.00429668  0.25267542  1
  In  In79  1  0.00545423  -0.00085053  0.26295526  1
  In  In80  1  -0.00026551  0.66538052  0.25275124  1
  In  In81  1  0.66505877  0.00001832  0.74276859  1
  In  In82  1  0.00464270  0.33407855  0.25124561  1
  In  In83  1  0.32503642  0.32862322  0.73852720  1
  In  In84  1  0.16672603  0.15799342  0.50151260  1
  In  In85  1  0.82896053  0.82739368  0.49342896  1
  Cu  Cu86  1  0.33626096  0.33370127  0.00863549  1
  Cu  Cu87  1  0.67119320  0.33488846  0.49959463  1
  Cu  Cu88  1  0.83394048  0.83250827  0.25264489  1
  Cu  Cu89  1  0.49375172  0.83187016  0.25250296  1
  Cu  Cu90  1  0.66132944  -0.00503921  0.50430561  1
  Cu  Cu91  1  0.17342938  0.16215287  0.25797853  1
  Cu  Cu92  1  0.17830813  0.83018272  0.25385029  1
  Cu  Cu93  1  0.66493040  0.65560524  0.49633729  1
  Cu  Cu94  1  0.83255320  0.17419193  0.74976313  1
  Cu  Cu95  1  0.50392348  0.49430182  0.74755489  1
  Cu  Cu96  1  0.83087984  0.83067702  0.75003679  1
  Cu  Cu97  1  0.66578002  0.00433674  -0.00172497  1
  Cu  Cu98  1  0.49452702  0.82399796  0.74479654  1
  Cu  Cu99  1  0.82542650  0.49240554  0.74950150  1
  Cu  Cu100  1  0.33212045  0.00413696  0.49804817  1
  Cu  Cu101  1  0.00712652  0.00285358  -0.00740047  1
  Cu  Cu102  1  0.66526994  0.34443318  0.00085220  1
  Cu  Cu103  1  0.00289410  0.66553281  -0.00312227  1
  Cu  Cu104  1  0.18061147  0.50321793  0.26253253  1
  Cu  Cu105  1  0.16275211  0.49880319  0.73604305  1
  Cu  Cu106  1  0.66201858  0.66564238  0.00252888  1
  Cu  Cu107  1  -0.00472393  0.66964155  0.50639709  1
  Cu  Cu108  1  0.50346817  0.50480257  0.25738199  1
  Cu  Cu109  1  -0.00549181  0.33070101  0.50484025  1
  Cu  Cu110  1  0.49992692  0.16592737  0.74438274  1
  Cu  Cu111  1  0.33355466  -0.01137034  0.00139594  1
  Cu  Cu112  1  -0.01304390  0.33249531  -0.00158488  1
  Cu  Cu113  1  0.34278796  0.66658525  0.00523871  1
  Cu  Cu114  1  0.82852111  0.17089720  0.25387164  1
  Se  Se115  1  0.07852228  0.07835767  0.06312406  1
  Se  Se116  1  0.08116999  0.08299531  0.57327986  1
  Se  Se117  1  0.07513162  0.40623980  0.05864834  1
  Se  Se118  1  0.08204686  0.41691605  0.55106462  1
  Se  Se119  1  0.08994619  0.74933949  0.04448278  1
  Se  Se120  1  0.07879620  0.75856912  0.55247348  1
  Se  Se121  1  0.40866603  0.07908695  0.05820787  1
  Se  Se122  1  0.41670500  0.08908361  0.54908045  1
  Se  Se123  1  0.41977442  0.41979381  0.05693077  1
  Se  Se124  1  0.41752931  0.41036106  0.53849800  1
  Se  Se125  1  0.42298096  0.75138330  0.05994071  1
  Se  Se126  1  0.39494817  0.73284269  0.55107960  1
  Se  Se127  1  0.75193384  0.08973648  0.04460184  1
  Se  Se128  1  0.74778107  0.08015585  0.55161012  1
  Se  Se129  1  0.74971205  0.42470451  0.05632375  1
  Se  Se130  1  0.75312861  0.41764394  0.55572140  1
  Se  Se131  1  0.74525455  0.75190086  0.05881022  1
  Se  Se132  1  0.74182603  0.74026552  0.55870182  1
  Se  Se133  1  0.25583525  0.24843124  0.06247620  1
  Se  Se134  1  0.25649430  0.25792331  0.55300894  1
  Se  Se135  1  0.25856380  0.58623649  0.06515410  1
  Se  Se136  1  0.24376275  0.58857868  0.53855920  1
  Se  Se137  1  0.24784479  0.90844408  0.05548806  1
  Se  Se138  1  0.24852004  0.92969790  0.55976648  1
  Se  Se139  1  0.58818346  0.25979510  0.06221759  1
  Se  Se140  1  0.58613959  0.24900933  0.54975962  1
  Se  Se141  1  0.58152413  0.58365674  0.05972898  1
  Se  Se142  1  0.58128716  0.57651108  0.55367316  1
  Se  Se143  1  0.58328556  0.92005670  0.04969868  1
  Se  Se144  1  0.57601429  0.90822047  0.55072616  1
  Se  Se145  1  0.90610133  0.24909757  0.05318599  1
  Se  Se146  1  0.91768429  0.24762147  0.56288258  1
  Se  Se147  1  0.91760583  0.58400363  0.04818290  1
  Se  Se148  1  0.90939658  0.58043709  0.54984870  1
  Se  Se149  1  0.92563458  0.92552089  0.05854191  1
  Se  Se150  1  0.91251549  0.91456948  0.55961792  1
  Se  Se151  1  0.07766652  0.25554705  0.44163029  1
  Se  Se152  1  0.07623928  0.26085678  0.93902555  1
  Se  Se153  1  0.07841862  0.58562645  0.45245925  1
  Se  Se154  1  0.07969623  0.58733985  0.93142695  1
  Se  Se155  1  0.05628016  0.95072721  0.44622162  1
  Se  Se156  1  0.08870706  0.91709996  0.94160219  1
  Se  Se157  1  0.42008847  0.24775219  0.44390383  1
  Se  Se158  1  0.40987094  0.25491097  0.94171913  1
  Se  Se159  1  0.40690049  0.60138506  0.45547693  1
  Se  Se160  1  0.41803680  0.57743125  0.95085607  1
  Se  Se161  1  0.41373039  0.91170679  0.44958891  1
  Se  Se162  1  0.42433743  0.91124953  0.95002848  1
  Se  Se163  1  0.75414767  0.24478707  0.44987157  1
  Se  Se164  1  0.74579411  0.25506052  0.94899229  1
  Se  Se165  1  0.75315862  0.57603423  0.44521130  1
  Se  Se166  1  0.74644879  0.58435306  0.94766893  1
  Se  Se167  1  0.73656771  0.91952108  0.43567070  1
  Se  Se168  1  0.74293267  0.92444669  0.93307292  1
  Se  Se169  1  0.25979654  0.08519992  0.43249819  1
  Se  Se170  1  0.25660712  0.07036186  0.93973756  1
  Se  Se171  1  0.24596451  0.43034592  0.44927040  1
  Se  Se172  1  0.25567641  0.40915533  0.94362214  1
  Se  Se173  1  0.21634381  0.78815216  0.43834095  1
  Se  Se174  1  0.25373824  0.74443213  0.95171442  1
  Se  Se175  1  0.57996800  0.08077074  0.45040305  1
  Se  Se176  1  0.58767755  0.07846174  0.93154691  1
  Se  Se177  1  0.58509999  0.41679623  0.44689659  1
  Se  Se178  1  0.57654172  0.42017569  0.94665010  1
  Se  Se179  1  0.58382707  0.74814324  0.45037888  1
  Se  Se180  1  0.58142764  0.75138740  0.94899747  1
  Se  Se181  1  0.91121627  0.08705339  0.45995678  1
  Se  Se182  1  0.91937242  0.08832408  0.94711767  1
  Se  Se183  1  0.91437251  0.41324297  0.44726775  1
  Se  Se184  1  0.91177613  0.42381716  0.94627630  1
  Se  Se185  1  0.92148238  0.73911511  0.43299157  1
  Se  Se186  1  0.92295737  0.74322868  0.93285127  1
  Se  Se187  1  0.25402491  0.25576012  0.30240692  1
  Se  Se188  1  0.25018576  0.24614022  0.81429344  1
  Se  Se189  1  0.25986759  0.58910485  0.31533589  1
  Se  Se190  1  0.24441589  0.57495057  0.79810769  1
  Se  Se191  1  0.25588014  0.92088885  0.30446409  1
  Se  Se192  1  0.26572975  0.91748498  0.80731883  1
  Se  Se193  1  0.58527616  0.25058703  0.30435216  1
  Se  Se194  1  0.57980234  0.25252686  0.79660363  1
  Se  Se195  1  0.58558522  0.58763210  0.31161731  1
  Se  Se196  1  0.57957767  0.58022604  0.80527205  1
  Se  Se197  1  0.57389818  0.91187180  0.31414614  1
  Se  Se198  1  0.57788499  0.90589644  0.80447506  1
  Se  Se199  1  0.91545715  0.24493409  0.31304109  1
  Se  Se200  1  0.91471296  0.25486151  0.80740845  1
  Se  Se201  1  0.91110609  0.56642533  0.30346068  1
  Se  Se202  1  0.90716986  0.57918437  0.80653505  1
  Se  Se203  1  0.91276589  0.90336327  0.31704671  1
  Se  Se204  1  0.91451846  0.91774775  0.79784733  1
  Se  Se205  1  0.09793788  0.08535888  0.32115976  1
  Se  Se206  1  0.09272090  0.09582903  0.80018298  1
  Se  Se207  1  0.09337639  0.42166215  0.31513608  1
  Se  Se208  1  0.08042481  0.41789733  0.79129068  1
  Se  Se209  1  0.09666761  0.74722561  0.31101198  1
  Se  Se210  1  0.09061342  0.75322261  0.80514706  1
  Se  Se211  1  0.42206193  0.07403786  0.29772142  1
  Se  Se212  1  0.41898483  0.07769857  0.79364715  1
  Se  Se213  1  0.41960100  0.42087886  0.31014072  1
  Se  Se214  1  0.41465795  0.41899820  0.80541063  1
  Se  Se215  1  0.41618708  0.74588042  0.30825493  1
  Se  Se216  1  0.41991680  0.74660679  0.81197680  1
  Se  Se217  1  0.75318945  0.08698885  0.31456095  1
  Se  Se218  1  0.75143211  0.08891534  0.80856837  1
  Se  Se219  1  0.74587462  0.41074410  0.30190722  1
  Se  Se220  1  0.74353233  0.41333148  0.80795388  1
  Se  Se221  1  0.74764732  0.74405659  0.29652146  1
  Se  Se222  1  0.74312445  0.74474743  0.79403123  1
  Se  Se223  1  0.25158445  0.07754267  0.20149171  1
  Se  Se224  1  0.25681501  0.09260905  0.70343061  1
  Se  Se225  1  0.25580292  0.41630442  0.20384500  1
  Se  Se226  1  0.25254901  0.43013163  0.67569438  1
  Se  Se227  1  0.25317235  0.74325644  0.19721369  1
  Se  Se228  1  0.24013201  0.76354599  0.69082869  1
  Se  Se229  1  0.57515754  0.09229113  0.18673304  1
  Se  Se230  1  0.57756673  0.08706574  0.68033018  1
  Se  Se231  1  0.58351139  0.42173214  0.19947002  1
  Se  Se232  1  0.58355095  0.40887949  0.69354944  1
  Se  Se233  1  0.58369729  0.75281568  0.20078880  1
  Se  Se234  1  0.57805309  0.73869657  0.69458023  1
  Se  Se235  1  0.91066029  0.08596832  0.19736556  1
  Se  Se236  1  0.91764050  0.08796324  0.70133401  1
  Se  Se237  1  0.91524018  0.42104379  0.18953096  1
  Se  Se238  1  0.91611142  0.41650674  0.69689424  1
  Se  Se239  1  0.91222562  0.75689442  0.18772004  1
  Se  Se240  1  0.91023840  0.75534315  0.68449882  1
  Se  Se241  1  0.09420272  0.23698711  0.19226427  1
  Se  Se242  1  0.09768960  0.25599070  0.70365107  1
  Se  Se243  1  0.09689496  0.57246774  0.19550411  1
  Se  Se244  1  0.08959686  0.58387487  0.67577955  1
  Se  Se245  1  0.08826348  0.90639380  0.19626747  1
  Se  Se246  1  0.08179116  0.92189828  0.70604398  1
  Se  Se247  1  0.41535542  0.25658632  0.20388421  1
  Se  Se248  1  0.42442724  0.24746612  0.68107119  1
  Se  Se249  1  0.41812988  0.58766948  0.20374482  1
  Se  Se250  1  0.42178363  0.56829492  0.68367992  1
  Se  Se251  1  0.41359122  0.91651219  0.19762544  1
  Se  Se252  1  0.41695654  0.91223356  0.69212261  1
  Se  Se253  1  0.74723634  0.25132308  0.19786996  1
  Se  Se254  1  0.74494555  0.25405608  0.69859796  1
  Se  Se255  1  0.74939939  0.58847161  0.19896231  1
  Se  Se256  1  0.74317209  0.57909168  0.69855440  1
  Se  Se257  1  0.75598890  0.91455834  0.19183819  1
  Se  Se258  1  0.75581572  0.90992525  0.68308943  1
