# generated using pymatgen
data_In86Cu29Se144
_symmetry_space_group_name_H-M   'P 1'
_cell_length_a   17.57613728
_cell_length_b   17.57497461
_cell_length_c   23.43933969
_cell_angle_alpha   89.97101264
_cell_angle_beta   90.03382952
_cell_angle_gamma   90.00710501
_symmetry_Int_Tables_number   1
_chemical_formula_structural   In86Cu29Se144
_chemical_formula_sum   'In86 Cu29 Se144'
_cell_volume   7240.41368847
_cell_formula_units_Z   1
loop_
 _symmetry_equiv_pos_site_id
 _symmetry_equiv_pos_as_xyz
  1  'x, y, z'
loop_
 _atom_site_type_symbol
 _atom_site_label
 _atom_site_symmetry_multiplicity
 _atom_site_fract_x
 _atom_site_fract_y
 _atom_site_fract_z
 _atom_site_occupancy
  In  In0  1  -0.00999147  0.15810857  0.11745461  1
  In  In1  1  0.01624709  0.16649219  0.62384262  1
  In  In2  1  -0.00330156  0.51294154  0.11683191  1
  In  In3  1  0.00643091  0.49980830  0.64994051  1
  In  In4  1  0.00912522  0.83629145  0.10919767  1
  In  In5  1  0.00214919  0.82255613  0.63095816  1
  In  In6  1  0.32684769  0.16375795  0.13056832  1
  In  In7  1  0.33254128  0.17494858  0.60747065  1
  In  In8  1  0.33546982  0.48553882  0.12747633  1
  In  In9  1  0.34294966  0.49986209  0.62374226  1
  In  In10  1  0.34433494  0.84654497  0.12150644  1
  In  In11  1  0.33411212  0.83088862  0.62135139  1
  In  In12  1  0.66680948  0.15451432  0.12563695  1
  In  In13  1  0.65130689  0.16531611  0.62271784  1
  In  In14  1  0.67314142  0.51307379  0.11646180  1
  In  In15  1  0.65715402  0.50799801  0.62616038  1
  In  In16  1  0.66294410  0.83028531  0.12396356  1
  In  In17  1  0.65769495  0.84018069  0.64206767  1
  In  In18  1  0.17134582  -0.00191514  0.37182717  1
  In  In19  1  0.17070247  0.00136764  0.88548442  1
  In  In20  1  0.16486429  0.31887857  0.37487197  1
  In  In21  1  0.15276029  0.34126835  0.87417047  1
  In  In22  1  0.18014860  0.66986406  0.37612124  1
  In  In23  1  0.17822180  0.67164126  0.86490603  1
  In  In24  1  0.49992801  -0.00279107  0.37551598  1
  In  In25  1  0.50296723  -0.02060175  0.87501671  1
  In  In26  1  0.48018537  0.35021039  0.39400113  1
  In  In27  1  0.51435853  0.34015943  0.87383706  1
  In  In28  1  0.50369146  0.66554919  0.37884932  1
  In  In29  1  0.49715937  0.67061838  0.87056009  1
  In  In30  1  0.82347193  -0.00673330  0.36188512  1
  In  In31  1  0.82821160  0.00159811  0.88196890  1
  In  In32  1  0.82732016  0.33265687  0.37260715  1
  In  In33  1  0.84292291  0.32524983  0.88284196  1
  In  In34  1  0.83074151  0.68301034  0.37186001  1
  In  In35  1  0.83508377  0.66755040  0.88231892  1
  In  In36  1  0.01467318  0.16056794  0.37578906  1
  In  In37  1  -0.00054940  0.17012625  0.87997769  1
  In  In38  1  0.00039904  0.48904874  0.37591571  1
  In  In39  1  0.00096733  0.48930424  0.86898013  1
  In  In40  1  -0.00284876  0.84519543  0.37275757  1
  In  In41  1  0.01356494  0.81581861  0.89662256  1
  In  In42  1  0.33505930  0.16732040  0.37625631  1
  In  In43  1  0.33323652  0.15354284  0.87947087  1
  In  In44  1  0.34479958  0.50896826  0.36904845  1
  In  In45  1  0.32534543  0.52187579  0.87131083  1
  In  In46  1  0.33044793  0.83773092  0.37787267  1
  In  In47  1  0.34550177  0.81720038  0.88458097  1
  In  In48  1  0.65829180  0.15514425  0.37415136  1
  In  In49  1  0.67870044  0.16511355  0.87668397  1
  In  In50  1  0.64803978  0.49895189  0.37438407  1
  In  In51  1  0.65371519  0.51445185  0.88328517  1
  In  In52  1  0.65107947  0.82274775  0.35726748  1
  In  In53  1  0.66471539  0.83168021  0.87481468  1
  In  In54  1  0.16289810  -0.00362955  0.12600392  1
  In  In55  1  0.17745597  0.00709318  0.61579247  1
  In  In56  1  0.18977568  0.33109047  0.12902151  1
  In  In57  1  0.16980790  0.32606287  0.62531280  1
  In  In58  1  0.15536136  0.67301636  0.11820369  1
  In  In59  1  0.16112362  0.67300259  0.63689019  1
  In  In60  1  0.51433410  -0.02121836  0.14687635  1
  In  In61  1  0.50100475  -0.00333336  0.61987746  1
  In  In62  1  0.48632486  0.33197518  0.12780930  1
  In  In63  1  0.49565732  0.33379074  0.59825591  1
  In  In64  1  0.51164385  0.68428729  0.11908378  1
  In  In65  1  0.50263913  0.66957953  0.62322625  1
  In  In66  1  0.83295529  -0.00118982  0.12104690  1
  In  In67  1  0.83004625  -0.01478635  0.63041056  1
  In  In68  1  0.83913961  0.33976383  0.11473666  1
  In  In69  1  0.83405631  0.34578256  0.63004398  1
  In  In70  1  0.82923727  0.66035737  0.10843324  1
  In  In71  1  0.83063689  0.66480636  0.64057656  1
  In  In72  1  0.33659337  -0.00664785  0.74136964  1
  In  In73  1  0.00717779  0.32922005  0.24914133  1
  In  In74  1  0.83242090  0.83258469  0.50615124  1
  In  In75  1  0.82267694  0.50791141  0.51593284  1
  In  In76  1  -0.00505677  -0.00437970  0.75292932  1
  In  In77  1  -0.00177081  0.66832260  0.23646188  1
  In  In78  1  0.49654408  0.16305453  0.01121207  1
  In  In79  1  0.34042391  0.67204277  0.24961905  1
  In  In80  1  0.82603241  0.16512069  0.49040875  1
  In  In81  1  0.66040418  0.32803207  0.25282957  1
  In  In82  1  0.16792383  0.49989759  -0.00083463  1
  In  In83  1  0.33095206  0.33649924  0.74012044  1
  In  In84  1  0.17289208  0.49634085  0.50259727  1
  In  In85  1  0.66860777  0.33732179  0.74616910  1
  Cu  Cu86  1  0.16335888  0.83526206  0.24691550  1
  Cu  Cu87  1  0.32938914  -0.00347420  0.00579572  1
  Cu  Cu88  1  0.01236870  0.00198588  0.49572687  1
  Cu  Cu89  1  0.16925726  0.83681231  0.75484830  1
  Cu  Cu90  1  0.48935909  0.16658789  0.25437807  1
  Cu  Cu91  1  0.00538218  0.32947854  -0.00116535  1
  Cu  Cu92  1  0.00970598  0.66567131  0.50979183  1
  Cu  Cu93  1  0.49523965  0.50454542  0.74838914  1
  Cu  Cu94  1  0.83118456  0.51265360  0.24274625  1
  Cu  Cu95  1  0.33563347  0.66942519  -0.00326413  1
  Cu  Cu96  1  0.50145344  0.15959673  0.74002472  1
  Cu  Cu97  1  0.66336000  -0.00220901  0.00420051  1
  Cu  Cu98  1  0.66197818  0.66644254  0.49985679  1
  Cu  Cu99  1  0.83549624  0.16138702  0.24324800  1
  Cu  Cu100  1  0.50387356  0.50384835  0.25108762  1
  Cu  Cu101  1  0.33415252  -0.00143136  0.49430037  1
  Cu  Cu102  1  0.16831523  0.15616005  0.25083323  1
  Cu  Cu103  1  0.83572830  0.16555314  0.75838187  1
  Cu  Cu104  1  -0.00131327  0.00415655  0.00015693  1
  Cu  Cu105  1  0.83076198  0.49728732  0.76022361  1
  Cu  Cu106  1  0.82656531  0.83725572  0.24181227  1
  Cu  Cu107  1  0.33736191  0.67352840  0.49965366  1
  Cu  Cu108  1  0.66295329  -0.00775364  0.49978853  1
  Cu  Cu109  1  0.33894402  0.33236978  0.00264492  1
  Cu  Cu110  1  0.66100100  0.67185853  -0.00376339  1
  Cu  Cu111  1  0.16505194  0.17500140  0.75068244  1
  Cu  Cu112  1  -0.00563318  0.33368669  0.50477315  1
  Cu  Cu113  1  0.83139560  0.82909500  0.76241777  1
  Cu  Cu114  1  0.66993137  0.34118783  -0.00146919  1
  Se  Se115  1  0.08593683  0.08346239  0.05453191  1
  Se  Se116  1  0.09077052  0.08917728  0.54889300  1
  Se  Se117  1  0.08357198  0.40663416  0.06385275  1
  Se  Se118  1  0.06994484  0.41888786  0.56357290  1
  Se  Se119  1  0.07062103  0.73469048  0.04351628  1
  Se  Se120  1  0.09034373  0.75422667  0.55855757  1
  Se  Se121  1  0.41447753  0.06745790  0.06942731  1
  Se  Se122  1  0.41674401  0.07892114  0.55221496  1
  Se  Se123  1  0.42144925  0.41890446  0.05190540  1
  Se  Se124  1  0.39824361  0.41560994  0.54528617  1
  Se  Se125  1  0.41549292  0.75462987  0.05235792  1
  Se  Se126  1  0.42307624  0.75465259  0.55271070  1
  Se  Se127  1  0.74972599  0.08455413  0.05147450  1
  Se  Se128  1  0.74795344  0.07089731  0.55820217  1
  Se  Se129  1  0.75465014  0.42496026  0.05069132  1
  Se  Se130  1  0.73241834  0.40449218  0.56058407  1
  Se  Se131  1  0.74493860  0.75458275  0.05008368  1
  Se  Se132  1  0.74568956  0.73909281  0.56364903  1
  Se  Se133  1  0.25619097  0.24693688  0.05319193  1
  Se  Se134  1  0.24428376  0.25952351  0.54673870  1
  Se  Se135  1  0.25986913  0.58848668  0.06115498  1
  Se  Se136  1  0.25369570  0.59637558  0.56108465  1
  Se  Se137  1  0.24340143  0.91074398  0.05567319  1
  Se  Se138  1  0.25313815  0.91558381  0.55170623  1
  Se  Se139  1  0.59241316  0.26019499  0.06230892  1
  Se  Se140  1  0.58329739  0.24105513  0.54596844  1
  Se  Se141  1  0.57887779  0.58730015  0.05139643  1
  Se  Se142  1  0.57788327  0.58074422  0.55047389  1
  Se  Se143  1  0.57689879  0.91842641  0.05784038  1
  Se  Se144  1  0.58801916  0.90655028  0.55786751  1
  Se  Se145  1  0.91556584  0.24894393  0.04948888  1
  Se  Se146  1  0.91299509  0.24986870  0.56087180  1
  Se  Se147  1  0.92178283  0.58602477  0.04237816  1
  Se  Se148  1  0.92722324  0.58871206  0.56902906  1
  Se  Se149  1  0.91395362  0.91825255  0.04960763  1
  Se  Se150  1  0.93184151  0.92514071  0.55897839  1
  Se  Se151  1  0.07600288  0.25282448  0.44881768  1
  Se  Se152  1  0.09104911  0.24818991  0.94637467  1
  Se  Se153  1  0.07858525  0.58734912  0.44139291  1
  Se  Se154  1  0.08614867  0.58492547  0.93234982  1
  Se  Se155  1  0.08841378  0.91281919  0.44237364  1
  Se  Se156  1  0.08743513  0.91960726  0.95292261  1
  Se  Se157  1  0.42140393  0.23894743  0.44866843  1
  Se  Se158  1  0.41862386  0.25392073  0.93936152  1
  Se  Se159  1  0.41627858  0.58602245  0.44640569  1
  Se  Se160  1  0.41694980  0.58504750  0.94287277  1
  Se  Se161  1  0.42009101  0.91284167  0.44646697  1
  Se  Se162  1  0.41365927  0.91732754  0.94938026  1
  Se  Se163  1  0.73314756  0.26077244  0.43963596  1
  Se  Se164  1  0.74924531  0.25044057  0.94909974  1
  Se  Se165  1  0.74749726  0.59157169  0.43920761  1
  Se  Se166  1  0.74826298  0.58396646  0.95007301  1
  Se  Se167  1  0.74491916  0.91447499  0.43917504  1
  Se  Se168  1  0.74380891  0.91615243  0.94697731  1
  Se  Se169  1  0.24827404  0.08238584  0.44310652  1
  Se  Se170  1  0.25051013  0.08672112  0.95500522  1
  Se  Se171  1  0.25441289  0.41584197  0.43226292  1
  Se  Se172  1  0.26095258  0.41107501  0.93809040  1
  Se  Se173  1  0.24894818  0.75418334  0.44894088  1
  Se  Se174  1  0.24392306  0.74854591  0.94710994  1
  Se  Se175  1  0.58110897  0.07938402  0.44914418  1
  Se  Se176  1  0.58376092  0.07993724  0.94232425  1
  Se  Se177  1  0.58368015  0.42134771  0.45162833  1
  Se  Se178  1  0.57895358  0.42126144  0.95111990  1
  Se  Se179  1  0.58745824  0.75488098  0.44353931  1
  Se  Se180  1  0.57552632  0.75336673  0.94323412  1
  Se  Se181  1  0.91929178  0.06970581  0.43664753  1
  Se  Se182  1  0.91518517  0.08688532  0.94610970  1
  Se  Se183  1  0.91045143  0.41422662  0.44878603  1
  Se  Se184  1  0.92339811  0.41619752  0.94710935  1
  Se  Se185  1  0.92811134  0.74313073  0.44679251  1
  Se  Se186  1  0.89905027  0.76433689  0.95156313  1
  Se  Se187  1  0.24795175  0.24389990  0.30336010  1
  Se  Se188  1  0.25206319  0.24653303  0.81117404  1
  Se  Se189  1  0.24325312  0.57849267  0.30175609  1
  Se  Se190  1  0.24919699  0.58552885  0.79262246  1
  Se  Se191  1  0.25003121  0.91169194  0.30232906  1
  Se  Se192  1  0.25109823  0.91539266  0.81375497  1
  Se  Se193  1  0.56677669  0.24919381  0.31559578  1
  Se  Se194  1  0.57942504  0.23922122  0.80391801  1
  Se  Se195  1  0.58504191  0.59031267  0.30251928  1
  Se  Se196  1  0.58120149  0.58345937  0.80272613  1
  Se  Se197  1  0.60058575  0.94001009  0.30559939  1
  Se  Se198  1  0.58781454  0.91515666  0.80202815  1
  Se  Se199  1  0.91080060  0.24082482  0.30842703  1
  Se  Se200  1  0.92094481  0.25016733  0.80637820  1
  Se  Se201  1  0.91445545  0.58095956  0.30968531  1
  Se  Se202  1  0.91392722  0.58241107  0.81103061  1
  Se  Se203  1  0.91427923  0.91373764  0.29744470  1
  Se  Se204  1  0.91712625  0.90729287  0.82006723  1
  Se  Se205  1  0.08054901  0.07508423  0.30174759  1
  Se  Se206  1  0.09232787  0.08573732  0.80840132  1
  Se  Se207  1  0.09546008  0.42338888  0.30626572  1
  Se  Se208  1  0.08791108  0.41855507  0.79666067  1
  Se  Se209  1  0.08594967  0.75091970  0.30680165  1
  Se  Se210  1  0.08157009  0.75852237  0.80804034  1
  Se  Se211  1  0.41169758  0.07801081  0.30733394  1
  Se  Se212  1  0.42432114  0.08500385  0.80569236  1
  Se  Se213  1  0.42329991  0.41760520  0.30410303  1
  Se  Se214  1  0.41961177  0.41978029  0.80846295  1
  Se  Se215  1  0.42761657  0.76128572  0.30963484  1
  Se  Se216  1  0.40872864  0.74788897  0.80223357  1
  Se  Se217  1  0.74662206  0.08914027  0.30021479  1
  Se  Se218  1  0.75061001  0.07923950  0.80481062  1
  Se  Se219  1  0.75489947  0.42867637  0.30415367  1
  Se  Se220  1  0.74841023  0.41743312  0.81945820  1
  Se  Se221  1  0.74943748  0.74809364  0.29511581  1
  Se  Se222  1  0.74710136  0.74135212  0.80974965  1
  Se  Se223  1  0.25044221  0.07260933  0.19676301  1
  Se  Se224  1  0.24993252  0.09904758  0.69019538  1
  Se  Se225  1  0.25661123  0.41477877  0.20274095  1
  Se  Se226  1  0.23775161  0.43145922  0.68912764  1
  Se  Se227  1  0.24318523  0.75374024  0.18748830  1
  Se  Se228  1  0.25234496  0.75862651  0.69702311  1
  Se  Se229  1  0.57952055  0.09163402  0.20026807  1
  Se  Se230  1  0.58648760  0.07292966  0.69325545  1
  Se  Se231  1  0.58205749  0.42329798  0.18791403  1
  Se  Se232  1  0.56520720  0.41408518  0.68740902  1
  Se  Se233  1  0.57885743  0.75798300  0.19814330  1
  Se  Se234  1  0.60530288  0.72305036  0.69285554  1
  Se  Se235  1  0.91901782  0.07736988  0.19305861  1
  Se  Se236  1  0.91171092  0.09025051  0.68922856  1
  Se  Se237  1  0.91472877  0.42590198  0.19208986  1
  Se  Se238  1  0.91355481  0.41254485  0.70712130  1
  Se  Se239  1  0.90729699  0.75835296  0.17992783  1
  Se  Se240  1  0.91527827  0.75343743  0.70311377  1
  Se  Se241  1  0.09143185  0.23810888  0.18718862  1
  Se  Se242  1  0.08022323  0.25584131  0.69766938  1
  Se  Se243  1  0.09525050  0.57104729  0.19063489  1
  Se  Se244  1  0.06949191  0.60544517  0.70671286  1
  Se  Se245  1  0.07515545  0.91104781  0.19166993  1
  Se  Se246  1  0.09538128  0.91943732  0.69051855  1
  Se  Se247  1  0.40966553  0.24991173  0.19824869  1
  Se  Se248  1  0.42581259  0.24589389  0.68304878  1
  Se  Se249  1  0.42627720  0.58151837  0.18651424  1
  Se  Se250  1  0.41559340  0.58828611  0.69296202  1
  Se  Se251  1  0.40654983  0.91723583  0.20515201  1
  Se  Se252  1  0.43214168  0.90052319  0.69293238  1
  Se  Se253  1  0.75910210  0.25049737  0.18825002  1
  Se  Se254  1  0.75672233  0.23883109  0.68989409  1
  Se  Se255  1  0.74969334  0.59470833  0.18956106  1
  Se  Se256  1  0.74743972  0.57130234  0.69986933  1
  Se  Se257  1  0.74413845  0.92256168  0.18984463  1
  Se  Se258  1  0.75261184  0.91549953  0.70707914  1
