# generated using pymatgen
data_In86Cu29Se144
_symmetry_space_group_name_H-M   'P 1'
_cell_length_a   17.58732908
_cell_length_b   17.59091514
_cell_length_c   23.45467685
_cell_angle_alpha   90.01500997
_cell_angle_beta   90.02289281
_cell_angle_gamma   89.97668599
_symmetry_Int_Tables_number   1
_chemical_formula_structural   In86Cu29Se144
_chemical_formula_sum   'In86 Cu29 Se144'
_cell_volume   7256.34113548
_cell_formula_units_Z   1
loop_
 _symmetry_equiv_pos_site_id
 _symmetry_equiv_pos_as_xyz
  1  'x, y, z'
loop_
 _atom_site_type_symbol
 _atom_site_label
 _atom_site_symmetry_multiplicity
 _atom_site_fract_x
 _atom_site_fract_y
 _atom_site_fract_z
 _atom_site_occupancy
  In  In0  1  0.02019846  0.19583430  0.10606822  1
  In  In1  1  -0.00146556  0.16708165  0.61405812  1
  In  In2  1  0.01177076  0.49452292  0.12509970  1
  In  In3  1  0.01110752  0.49661543  0.62640268  1
  In  In4  1  -0.00813580  0.82095557  0.11442216  1
  In  In5  1  -0.00879133  0.83166746  0.62565493  1
  In  In6  1  0.33471016  0.16952396  0.12667566  1
  In  In7  1  0.33877940  0.18132000  0.61729108  1
  In  In8  1  0.32371181  0.50945926  0.13003387  1
  In  In9  1  0.32556539  0.50735830  0.63384548  1
  In  In10  1  0.32281324  0.84237977  0.12961707  1
  In  In11  1  0.32337537  0.82159678  0.62788950  1
  In  In12  1  0.67654308  0.17557860  0.12152285  1
  In  In13  1  0.66290266  0.16493055  0.61411041  1
  In  In14  1  0.66624048  0.50208007  0.13421410  1
  In  In15  1  0.67703314  0.50601984  0.62905203  1
  In  In16  1  0.66948496  0.82144787  0.12573206  1
  In  In17  1  0.67124159  0.82572183  0.62475458  1
  In  In18  1  0.18047988  0.00036299  0.36997621  1
  In  In19  1  0.15759636  0.00394903  0.88309527  1
  In  In20  1  0.16434606  0.33337576  0.37073798  1
  In  In21  1  0.17453837  0.32353310  0.88648826  1
  In  In22  1  0.15288297  0.65493895  0.36716924  1
  In  In23  1  0.16968899  0.65922527  0.88104698  1
  In  In24  1  0.49852245  0.01475274  0.37893717  1
  In  In25  1  0.50607565  0.00735397  0.87799165  1
  In  In26  1  0.49075911  0.32366275  0.36676896  1
  In  In27  1  0.49016666  0.32987307  0.87298532  1
  In  In28  1  0.49661088  0.66550501  0.37023503  1
  In  In29  1  0.49376213  0.64839591  0.85632894  1
  In  In30  1  0.82382583  0.00003310  0.38742486  1
  In  In31  1  0.83340003  -0.00763357  0.88143918  1
  In  In32  1  0.82808432  0.32936546  0.36451815  1
  In  In33  1  0.82880145  0.33075317  0.87941804  1
  In  In34  1  0.84790169  0.67877450  0.37045695  1
  In  In35  1  0.84950027  0.67206263  0.86240847  1
  In  In36  1  -0.00971417  0.17495252  0.37375492  1
  In  In37  1  0.00110724  0.17045024  0.88858437  1
  In  In38  1  0.01383423  0.51119611  0.36964656  1
  In  In39  1  0.00093210  0.51753704  0.88362191  1
  In  In40  1  -0.00772926  0.81538054  0.37233949  1
  In  In41  1  0.02103884  0.79959972  0.90227167  1
  In  In42  1  0.33082880  0.16872765  0.37218645  1
  In  In43  1  0.32958370  0.17213135  0.87848643  1
  In  In44  1  0.32032233  0.48955608  0.36739771  1
  In  In45  1  0.32880932  0.48809502  0.87060415  1
  In  In46  1  0.32674166  0.82941622  0.36407721  1
  In  In47  1  0.33509052  0.81766988  0.87630724  1
  In  In48  1  0.65906069  0.16972296  0.37953559  1
  In  In49  1  0.66577417  0.16782874  0.88331535  1
  In  In50  1  0.66822490  0.50210416  0.36647125  1
  In  In51  1  0.66385853  0.50468722  0.87026424  1
  In  In52  1  0.68482414  0.83707071  0.37770869  1
  In  In53  1  0.67836414  0.82282691  0.87944202  1
  In  In54  1  0.17079601  0.01103292  0.12168061  1
  In  In55  1  0.15493452  0.00418230  0.62224171  1
  In  In56  1  0.16862707  0.33991626  0.12543742  1
  In  In57  1  0.17353706  0.34335703  0.61777454  1
  In  In58  1  0.16221884  0.66808666  0.12077401  1
  In  In59  1  0.17064450  0.65783265  0.63186582  1
  In  In60  1  0.48292057  0.00477249  0.12891855  1
  In  In61  1  0.49325845  0.01209873  0.62139822  1
  In  In62  1  0.50759013  0.32850027  0.13208924  1
  In  In63  1  0.49157969  0.31829022  0.62589292  1
  In  In64  1  0.50091529  0.66530774  0.13149920  1
  In  In65  1  0.50153239  0.65948611  0.63583195  1
  In  In66  1  0.83691020  0.00340665  0.12269396  1
  In  In67  1  0.82746388  -0.00073248  0.61034354  1
  In  In68  1  0.84507990  0.32809978  0.13395359  1
  In  In69  1  0.84067921  0.32976619  0.61998063  1
  In  In70  1  0.83191270  0.66875723  0.12682905  1
  In  In71  1  0.83061270  0.67016091  0.63180482  1
  In  In72  1  0.84165504  0.49597665  0.00275547  1
  In  In73  1  0.16522307  0.83540579  0.49802222  1
  In  In74  1  0.50365112  0.83957071  0.50721107  1
  In  In75  1  0.66322233  -0.00232356  0.74208021  1
  In  In76  1  0.00158580  0.00102463  0.24614353  1
  In  In77  1  0.00160829  0.33970362  0.75173734  1
  In  In78  1  0.66014733  0.34091940  0.75311962  1
  In  In79  1  0.66167803  0.00012752  0.26124864  1
  In  In80  1  0.49714964  0.49658587  0.50572769  1
  In  In81  1  -0.00318611  -0.00395013  0.75207559  1
  In  In82  1  0.49783347  0.49315459  -0.00857540  1
  In  In83  1  0.32977552  -0.00000241  0.75223513  1
  In  In84  1  0.50177322  0.83519600  -0.00169169  1
  In  In85  1  0.84009643  0.50127002  0.50132463  1
  Cu  Cu86  1  0.49715811  0.82905423  0.24679199  1
  Cu  Cu87  1  0.32517830  0.65730932  0.50215600  1
  Cu  Cu88  1  0.50130627  0.83120389  0.74930453  1
  Cu  Cu89  1  0.00056833  0.33124993  0.49412898  1
  Cu  Cu90  1  -0.00686101  -0.00222663  0.00456570  1
  Cu  Cu91  1  0.49873570  0.16772674  0.25208504  1
  Cu  Cu92  1  0.66444658  0.00337895  0.00245858  1
  Cu  Cu93  1  0.17095005  0.17176915  0.24393557  1
  Cu  Cu94  1  0.16723884  0.49902174  0.75399800  1
  Cu  Cu95  1  0.67730932  0.67407749  0.49962626  1
  Cu  Cu96  1  0.33420400  0.33278039  0.00350044  1
  Cu  Cu97  1  0.83415149  0.83036733  0.25027219  1
  Cu  Cu98  1  0.84120818  0.82539239  0.75636170  1
  Cu  Cu99  1  0.16610567  0.82876543  0.24500588  1
  Cu  Cu100  1  0.16936489  0.50075159  0.24717026  1
  Cu  Cu101  1  0.32487238  0.66730568  0.00392306  1
  Cu  Cu102  1  0.49707934  0.49979021  0.25097937  1
  Cu  Cu103  1  0.83905737  0.17282277  0.24489422  1
  Cu  Cu104  1  0.67158887  0.32324543  0.00615372  1
  Cu  Cu105  1  0.66039255  0.32824375  0.49409776  1
  Cu  Cu106  1  0.32520733  0.33068496  0.49135478  1
  Cu  Cu107  1  0.82849803  0.16498308  0.74786233  1
  Cu  Cu108  1  0.00355904  0.00511034  0.49514164  1
  Cu  Cu109  1  0.83524753  0.50459525  0.24884865  1
  Cu  Cu110  1  0.17150230  0.17662931  0.75206378  1
  Cu  Cu111  1  0.32959835  0.00894578  0.00283512  1
  Cu  Cu112  1  0.16666514  0.81911983  0.75695509  1
  Cu  Cu113  1  0.33464547  0.00805235  0.49605774  1
  Cu  Cu114  1  0.66811717  0.66643306  -0.00037161  1
  Se  Se115  1  0.08142670  0.08289321  0.05159261  1
  Se  Se116  1  0.08770782  0.08778162  0.54736519  1
  Se  Se117  1  0.07618811  0.40419581  0.05310595  1
  Se  Se118  1  0.07988750  0.41529220  0.55005608  1
  Se  Se119  1  0.09002565  0.75573867  0.04935966  1
  Se  Se120  1  0.08385469  0.74629509  0.56261475  1
  Se  Se121  1  0.41753290  0.08891597  0.05351362  1
  Se  Se122  1  0.41704858  0.09155648  0.54911987  1
  Se  Se123  1  0.41447562  0.41450616  0.06313324  1
  Se  Se124  1  0.40127500  0.40777622  0.55910828  1
  Se  Se125  1  0.41211876  0.74640953  0.05993051  1
  Se  Se126  1  0.41057690  0.73832617  0.55802822  1
  Se  Se127  1  0.75073703  0.08361994  0.05523604  1
  Se  Se128  1  0.76211637  0.10103206  0.55047653  1
  Se  Se129  1  0.74424840  0.41262362  0.06319071  1
  Se  Se130  1  0.73997052  0.40879309  0.55451427  1
  Se  Se131  1  0.75138052  0.74883476  0.05247897  1
  Se  Se132  1  0.75993453  0.75353423  0.55498982  1
  Se  Se133  1  0.25077706  0.25080459  0.05803017  1
  Se  Se134  1  0.24307342  0.24869935  0.54943940  1
  Se  Se135  1  0.24428584  0.57854318  0.05315438  1
  Se  Se136  1  0.24367678  0.57567344  0.55648811  1
  Se  Se137  1  0.24955372  0.92096879  0.05391043  1
  Se  Se138  1  0.25937680  0.92571150  0.55909902  1
  Se  Se139  1  0.57880841  0.24698510  0.05602407  1
  Se  Se140  1  0.57608221  0.25052920  0.55050191  1
  Se  Se141  1  0.58584902  0.58433101  0.05615528  1
  Se  Se142  1  0.59344056  0.59321038  0.55656429  1
  Se  Se143  1  0.58617394  0.92346732  0.06494714  1
  Se  Se144  1  0.59531370  0.93044346  0.56354784  1
  Se  Se145  1  0.90017049  0.24358664  0.05446754  1
  Se  Se146  1  0.91425068  0.24959245  0.54639174  1
  Se  Se147  1  0.92644861  0.59053963  0.06073612  1
  Se  Se148  1  0.92526270  0.59007209  0.56300454  1
  Se  Se149  1  0.90811352  0.91288060  0.05345428  1
  Se  Se150  1  0.92620567  0.92082722  0.55274607  1
  Se  Se151  1  0.08373375  0.24801481  0.44048390  1
  Se  Se152  1  0.08641896  0.24891032  0.95406535  1
  Se  Se153  1  0.07969730  0.59060437  0.44793510  1
  Se  Se154  1  0.08036051  0.59343115  0.95460383  1
  Se  Se155  1  0.07745694  0.92215007  0.43247457  1
  Se  Se156  1  0.08082221  0.91783911  0.95182047  1
  Se  Se157  1  0.41536291  0.24901139  0.44347355  1
  Se  Se158  1  0.41705802  0.25066128  0.94821524  1
  Se  Se159  1  0.40911501  0.58276391  0.44087594  1
  Se  Se160  1  0.40797813  0.59231790  0.94117225  1
  Se  Se161  1  0.40705036  0.91600003  0.44013474  1
  Se  Se162  1  0.40655819  0.92590674  0.94033190  1
  Se  Se163  1  0.75124533  0.25371739  0.44065106  1
  Se  Se164  1  0.75602803  0.24403078  0.95001009  1
  Se  Se165  1  0.74866009  0.58771292  0.43908454  1
  Se  Se166  1  0.74832190  0.58337648  0.94230493  1
  Se  Se167  1  0.75068860  0.91252965  0.45607140  1
  Se  Se168  1  0.74306099  0.91626160  0.94899956  1
  Se  Se169  1  0.24736420  0.08704063  0.44359286  1
  Se  Se170  1  0.24607553  0.08820894  0.94546710  1
  Se  Se171  1  0.24204452  0.41854894  0.44394073  1
  Se  Se172  1  0.25358738  0.41836112  0.94969846  1
  Se  Se173  1  0.25355213  0.74218331  0.43947910  1
  Se  Se174  1  0.24708106  0.75378952  0.94910575  1
  Se  Se175  1  0.59609751  0.07150088  0.44670660  1
  Se  Se176  1  0.58003241  0.08715085  0.95158085  1
  Se  Se177  1  0.58356466  0.41429574  0.43691059  1
  Se  Se178  1  0.59787992  0.40267503  0.94000732  1
  Se  Se179  1  0.58591803  0.74622197  0.44243796  1
  Se  Se180  1  0.57924289  0.73496919  0.93741880  1
  Se  Se181  1  0.91683661  0.08664252  0.44382495  1
  Se  Se182  1  0.91311805  0.08068424  0.94702814  1
  Se  Se183  1  0.92147995  0.41328996  0.43386468  1
  Se  Se184  1  0.92918568  0.40569989  0.94128246  1
  Se  Se185  1  0.91434561  0.75260840  0.45127470  1
  Se  Se186  1  0.89694481  0.75196564  0.94698842  1
  Se  Se187  1  0.25185815  0.25340256  0.30227909  1
  Se  Se188  1  0.25400772  0.25720659  0.80634725  1
  Se  Se189  1  0.25097584  0.58671021  0.30155246  1
  Se  Se190  1  0.25136854  0.58248626  0.80756680  1
  Se  Se191  1  0.24882029  0.91613032  0.29531109  1
  Se  Se192  1  0.23953944  0.91078226  0.81336771  1
  Se  Se193  1  0.58733145  0.24903091  0.30295160  1
  Se  Se194  1  0.57849512  0.23910822  0.80797471  1
  Se  Se195  1  0.58148438  0.58546272  0.30228171  1
  Se  Se196  1  0.59439038  0.58316759  0.79442770  1
  Se  Se197  1  0.57165881  0.90420730  0.31602583  1
  Se  Se198  1  0.57989703  0.90834661  0.81100046  1
  Se  Se199  1  0.92301784  0.25723655  0.29693822  1
  Se  Se200  1  0.91206602  0.24063854  0.80793109  1
  Se  Se201  1  0.91968621  0.58605007  0.30357962  1
  Se  Se202  1  0.92060932  0.57265996  0.80264739  1
  Se  Se203  1  0.90849972  0.91743409  0.31011567  1
  Se  Se204  1  0.92060971  0.90370509  0.81759252  1
  Se  Se205  1  0.09086563  0.09176762  0.30636596  1
  Se  Se206  1  0.08562665  0.09550824  0.80714984  1
  Se  Se207  1  0.08398613  0.41868434  0.30099573  1
  Se  Se208  1  0.09114417  0.41966428  0.81782656  1
  Se  Se209  1  0.08068211  0.74930983  0.29933709  1
  Se  Se210  1  0.08148174  0.74135858  0.81194688  1
  Se  Se211  1  0.41539736  0.08295843  0.30404217  1
  Se  Se212  1  0.42223916  0.08946063  0.80785398  1
  Se  Se213  1  0.41314340  0.41464953  0.30193172  1
  Se  Se214  1  0.43998367  0.43670171  0.80973393  1
  Se  Se215  1  0.41337385  0.74507913  0.30051475  1
  Se  Se216  1  0.41460568  0.74876335  0.79993246  1
  Se  Se217  1  0.76193314  0.09254066  0.30831289  1
  Se  Se218  1  0.75196890  0.08365320  0.80837648  1
  Se  Se219  1  0.74950728  0.41917471  0.29858937  1
  Se  Se220  1  0.76309674  0.42336909  0.80680656  1
  Se  Se221  1  0.74933612  0.74867128  0.30395947  1
  Se  Se222  1  0.74729082  0.74518297  0.80186016  1
  Se  Se223  1  0.25341533  0.08300560  0.19608403  1
  Se  Se224  1  0.24152313  0.08908495  0.68988331  1
  Se  Se225  1  0.25444557  0.41481082  0.19783312  1
  Se  Se226  1  0.24668749  0.41366870  0.69814864  1
  Se  Se227  1  0.25026493  0.74482766  0.19221571  1
  Se  Se228  1  0.25290189  0.74103309  0.70231108  1
  Se  Se229  1  0.58118408  0.08758400  0.19206421  1
  Se  Se230  1  0.57381825  0.09740310  0.69304121  1
  Se  Se231  1  0.58398837  0.41728817  0.20011833  1
  Se  Se232  1  0.57441389  0.42153410  0.68349679  1
  Se  Se233  1  0.58619668  0.74837029  0.19801244  1
  Se  Se234  1  0.58658979  0.75155870  0.69516083  1
  Se  Se235  1  0.92145611  0.09656789  0.18458189  1
  Se  Se236  1  0.91051913  0.08647785  0.68824238  1
  Se  Se237  1  0.92076389  0.42262695  0.19632119  1
  Se  Se238  1  0.90670909  0.42396801  0.69123468  1
  Se  Se239  1  0.91792171  0.75084983  0.19521743  1
  Se  Se240  1  0.92403208  0.74592688  0.69952776  1
  Se  Se241  1  0.08370527  0.25513838  0.19476549  1
  Se  Se242  1  0.08544248  0.24651274  0.68842603  1
  Se  Se243  1  0.08553524  0.58466517  0.19420347  1
  Se  Se244  1  0.08249990  0.58013460  0.70063677  1
  Se  Se245  1  0.08607837  0.90975384  0.18389035  1
  Se  Se246  1  0.09393541  0.90489984  0.69528395  1
  Se  Se247  1  0.41632337  0.25134238  0.19784019  1
  Se  Se248  1  0.40690283  0.24914491  0.69918397  1
  Se  Se249  1  0.41526268  0.58420088  0.19732387  1
  Se  Se250  1  0.41487837  0.58174920  0.70042788  1
  Se  Se251  1  0.41332790  0.91649107  0.19929120  1
  Se  Se252  1  0.42166811  0.90978378  0.68864404  1
  Se  Se253  1  0.74705135  0.25474340  0.19849515  1
  Se  Se254  1  0.75058233  0.24829637  0.69031744  1
  Se  Se255  1  0.74968794  0.58904072  0.19764915  1
  Se  Se256  1  0.75068569  0.58621332  0.70019894  1
  Se  Se257  1  0.75259086  0.91561616  0.19485074  1
  Se  Se258  1  0.76685960  0.90979396  0.69338786  1
