# generated using pymatgen
data_In86Cu29Se144
_symmetry_space_group_name_H-M   'P 1'
_cell_length_a   17.64079906
_cell_length_b   17.63396288
_cell_length_c   23.50603628
_cell_angle_alpha   90.00635059
_cell_angle_beta   89.99340485
_cell_angle_gamma   89.99132035
_symmetry_Int_Tables_number   1
_chemical_formula_structural   In86Cu29Se144
_chemical_formula_sum   'In86 Cu29 Se144'
_cell_volume   7312.19167267
_cell_formula_units_Z   1
loop_
 _symmetry_equiv_pos_site_id
 _symmetry_equiv_pos_as_xyz
  1  'x, y, z'
loop_
 _atom_site_type_symbol
 _atom_site_label
 _atom_site_symmetry_multiplicity
 _atom_site_fract_x
 _atom_site_fract_y
 _atom_site_fract_z
 _atom_site_occupancy
  In  In0  1  0.01390186  0.16692389  0.12841579  1
  In  In1  1  -0.00233306  0.17050875  0.62626803  1
  In  In2  1  0.00888091  0.48790753  0.13076038  1
  In  In3  1  -0.01092301  0.50414556  0.62965706  1
  In  In4  1  -0.00426333  0.82480483  0.11356830  1
  In  In5  1  0.01106474  0.83789869  0.64463558  1
  In  In6  1  0.32588949  0.17428293  0.12993130  1
  In  In7  1  0.32102933  0.15662339  0.61716485  1
  In  In8  1  0.33415197  0.49953483  0.11830316  1
  In  In9  1  0.33889356  0.50026444  0.62254775  1
  In  In10  1  0.32743616  0.81377211  0.10785977  1
  In  In11  1  0.34115260  0.84027215  0.62313606  1
  In  In12  1  0.65468070  0.15903255  0.13866851  1
  In  In13  1  0.66817779  0.15966206  0.60485401  1
  In  In14  1  0.66971258  0.51198704  0.13073203  1
  In  In15  1  0.66320838  0.49883498  0.61445714  1
  In  In16  1  0.66109587  0.83224034  0.12260378  1
  In  In17  1  0.65247763  0.84639493  0.61763636  1
  In  In18  1  0.17529922  0.00575851  0.37491489  1
  In  In19  1  0.17110107  -0.00168734  0.87444510  1
  In  In20  1  0.16102260  0.31825171  0.36187765  1
  In  In21  1  0.16289547  0.34340872  0.87746953  1
  In  In22  1  0.16274493  0.65891553  0.35599313  1
  In  In23  1  0.15713810  0.68580698  0.89891039  1
  In  In24  1  0.50974157  -0.01583263  0.38686424  1
  In  In25  1  0.48109731  -0.00806971  0.87770590  1
  In  In26  1  0.49299121  0.34203938  0.37715239  1
  In  In27  1  0.48623312  0.34698471  0.87821771  1
  In  In28  1  0.49899654  0.66455513  0.36754888  1
  In  In29  1  0.45054510  0.71226867  0.92381414  1
  In  In30  1  0.83280510  0.01061332  0.38022866  1
  In  In31  1  0.84310465  -0.01457776  0.87988716  1
  In  In32  1  0.84850989  0.32632915  0.38253954  1
  In  In33  1  0.83848643  0.32284592  0.87225185  1
  In  In34  1  0.82758936  0.66418325  0.37151105  1
  In  In35  1  0.84394711  0.67019842  0.87452574  1
  In  In36  1  -0.00123435  0.16790782  0.38203224  1
  In  In37  1  0.02199276  0.17435861  0.85201476  1
  In  In38  1  0.00061458  0.49480026  0.37362408  1
  In  In39  1  0.01009825  0.51495625  0.86745351  1
  In  In40  1  0.01158084  0.82924324  0.37040688  1
  In  In41  1  0.00256778  0.83034654  0.87444921  1
  In  In42  1  0.32896849  0.17740397  0.38178013  1
  In  In43  1  0.31957143  0.14354268  0.86331225  1
  In  In44  1  0.33740556  0.50378630  0.36357457  1
  In  In45  1  0.31217562  0.52802479  0.90782603  1
  In  In46  1  0.34352021  0.83245181  0.36999254  1
  In  In47  1  0.30298374  0.87367245  0.93503389  1
  In  In48  1  0.67016890  0.15078117  0.38288966  1
  In  In49  1  0.65744654  0.17132326  0.86758274  1
  In  In50  1  0.66095539  0.51097357  0.37781106  1
  In  In51  1  0.64539003  0.50706226  0.87870541  1
  In  In52  1  0.65854039  0.81921637  0.36460641  1
  In  In53  1  0.66457975  0.84732668  0.89222228  1
  In  In54  1  0.17609044  0.00248896  0.10746646  1
  In  In55  1  0.14797364  0.02834266  0.65235923  1
  In  In56  1  0.16319314  0.33428339  0.12340710  1
  In  In57  1  0.16398793  0.31612262  0.62961584  1
  In  In58  1  0.17016203  0.65839775  0.11735538  1
  In  In59  1  0.16602208  0.66075475  0.63142036  1
  In  In60  1  0.50967958  -0.00604277  0.12279902  1
  In  In61  1  0.49746593  -0.00463327  0.61173587  1
  In  In62  1  0.48084123  0.32854125  0.13309578  1
  In  In63  1  0.50638668  0.33721291  0.61624476  1
  In  In64  1  0.50468470  0.66386148  0.12250550  1
  In  In65  1  0.49486861  0.66973490  0.61609190  1
  In  In66  1  0.82335649  -0.01251797  0.12017954  1
  In  In67  1  0.83329739  0.00940027  0.62202853  1
  In  In68  1  0.84098057  0.34331024  0.13410346  1
  In  In69  1  0.83546507  0.33530486  0.61647433  1
  In  In70  1  0.82404257  0.67529147  0.13597315  1
  In  In71  1  0.84186561  0.67079739  0.62559767  1
  In  In72  1  0.67359959  0.33888341  0.74010053  1
  In  In73  1  0.83029860  0.83571407  0.50416125  1
  In  In74  1  0.33283498  0.33391956  0.74812780  1
  In  In75  1  0.32198521  0.68373792  0.76741263  1
  In  In76  1  -0.00274026  -0.00333346  0.24445912  1
  In  In77  1  0.48904679  0.16157500  -0.00009729  1
  In  In78  1  0.16851385  0.49556575  0.49712723  1
  In  In79  1  0.67119887  0.66521856  0.75074918  1
  In  In80  1  0.17807768  0.83563536  0.50400478  1
  In  In81  1  0.67238046  0.00414157  0.74534438  1
  In  In82  1  0.83931276  0.49723252  0.00614666  1
  In  In83  1  0.83639841  0.15864969  0.00577457  1
  In  In84  1  0.33559093  -0.00233353  0.24438275  1
  In  In85  1  0.66959279  0.33249229  0.26727915  1
  Cu  Cu86  1  0.84707547  0.50438930  0.25420185  1
  Cu  Cu87  1  -0.00141559  0.66611017  0.50526527  1
  Cu  Cu88  1  0.33795046  0.33916378  0.49948872  1
  Cu  Cu89  1  0.32946054  0.32610580  0.00318500  1
  Cu  Cu90  1  0.66022208  0.66673749  0.49295401  1
  Cu  Cu91  1  0.48972891  0.51101801  0.75203565  1
  Cu  Cu92  1  0.66182714  0.32496429  0.00451803  1
  Cu  Cu93  1  0.32949588  0.00811710  0.50005592  1
  Cu  Cu94  1  0.83636650  0.82911517  0.75235954  1
  Cu  Cu95  1  0.00340418  0.33341521  0.49998617  1
  Cu  Cu96  1  0.00539643  0.33255071  -0.00348549  1
  Cu  Cu97  1  0.83658079  0.16467491  0.74565951  1
  Cu  Cu98  1  0.83494487  0.49198756  0.75191728  1
  Cu  Cu99  1  0.83559977  0.16387163  0.25945583  1
  Cu  Cu100  1  0.50267254  0.49797784  0.24791787  1
  Cu  Cu101  1  0.67489591  0.66573247  0.00510315  1
  Cu  Cu102  1  0.00035096  0.00492405  -0.00582004  1
  Cu  Cu103  1  0.16746987  0.82771444  0.23602192  1
  Cu  Cu104  1  0.17517406  0.50201990  0.24124011  1
  Cu  Cu105  1  0.82978165  0.83561971  0.24489412  1
  Cu  Cu106  1  0.33976990  0.67012176  0.48971304  1
  Cu  Cu107  1  -0.00470711  0.66829434  0.00145396  1
  Cu  Cu108  1  0.50122499  0.16953515  0.74480853  1
  Cu  Cu109  1  0.49924303  0.83876772  0.74874290  1
  Cu  Cu110  1  0.49285815  0.15492839  0.25496567  1
  Cu  Cu111  1  0.67020255  0.33311195  0.49087840  1
  Cu  Cu112  1  0.49793149  0.82440590  0.24506168  1
  Cu  Cu113  1  0.00513139  0.00467579  0.50813591  1
  Cu  Cu114  1  0.15778879  0.50025466  0.75223117  1
  Se  Se115  1  0.08055761  0.08675709  0.05095496  1
  Se  Se116  1  0.08814055  0.08631048  0.56175222  1
  Se  Se117  1  0.08405456  0.41872090  0.05159149  1
  Se  Se118  1  0.07989349  0.41284446  0.56300428  1
  Se  Se119  1  0.08902204  0.74827602  0.04981481  1
  Se  Se120  1  0.07964577  0.74823206  0.56214307  1
  Se  Se121  1  0.40473063  0.07531149  0.06531345  1
  Se  Se122  1  0.41773762  0.08994440  0.55041296  1
  Se  Se123  1  0.41764495  0.40690578  0.05369374  1
  Se  Se124  1  0.42034435  0.42347129  0.55242693  1
  Se  Se125  1  0.43538821  0.75108067  0.04859510  1
  Se  Se126  1  0.41297653  0.75460672  0.54957068  1
  Se  Se127  1  0.73200255  0.08120953  0.06019714  1
  Se  Se128  1  0.74884421  0.06717782  0.54564789  1
  Se  Se129  1  0.74198081  0.40638922  0.06228303  1
  Se  Se130  1  0.74905004  0.41594595  0.55012581  1
  Se  Se131  1  0.75463208  0.75110666  0.05750848  1
  Se  Se132  1  0.73655106  0.74132094  0.56082109  1
  Se  Se133  1  0.24430648  0.24558582  0.05548442  1
  Se  Se134  1  0.25304395  0.25805101  0.55375155  1
  Se  Se135  1  0.26277331  0.58856891  0.04806831  1
  Se  Se136  1  0.25804037  0.59479408  0.55389741  1
  Se  Se137  1  0.24634320  0.90455215  0.04304245  1
  Se  Se138  1  0.24960960  0.93437986  0.56620761  1
  Se  Se139  1  0.58095133  0.24900856  0.06452380  1
  Se  Se140  1  0.58587006  0.25411052  0.54747783  1
  Se  Se141  1  0.59037861  0.57916353  0.05412319  1
  Se  Se142  1  0.57852443  0.58475376  0.55121309  1
  Se  Se143  1  0.58616488  0.91620680  0.05042049  1
  Se  Se144  1  0.58345983  0.92079329  0.54161727  1
  Se  Se145  1  0.92094920  0.26077760  0.05920471  1
  Se  Se146  1  0.91828955  0.24854571  0.55189676  1
  Se  Se147  1  0.92110718  0.58990944  0.06771277  1
  Se  Se148  1  0.91270558  0.58280868  0.55423100  1
  Se  Se149  1  0.92042250  0.92392660  0.05260168  1
  Se  Se150  1  0.93144623  0.91578358  0.56460365  1
  Se  Se151  1  0.08730139  0.25315520  0.44498907  1
  Se  Se152  1  0.08043115  0.24845486  0.93776073  1
  Se  Se153  1  0.08269717  0.59501247  0.44175101  1
  Se  Se154  1  0.07909612  0.58093639  0.95130097  1
  Se  Se155  1  0.07978815  0.92367664  0.44422421  1
  Se  Se156  1  0.08104737  0.91788389  0.94263631  1
  Se  Se157  1  0.42037328  0.25339215  0.44774750  1
  Se  Se158  1  0.40153149  0.24939866  0.93484177  1
  Se  Se159  1  0.41666796  0.58121845  0.43758276  1
  Se  Se160  1  0.44852714  0.56288346  0.92922619  1
  Se  Se161  1  0.40503191  0.91565019  0.44794356  1
  Se  Se162  1  0.44300130  0.90820472  0.96144510  1
  Se  Se163  1  0.75362756  0.24570861  0.44233803  1
  Se  Se164  1  0.74223686  0.25054849  0.94304881  1
  Se  Se165  1  0.75175132  0.58585200  0.44626416  1
  Se  Se166  1  0.75143675  0.58273501  0.94125251  1
  Se  Se167  1  0.74475462  0.91106868  0.43375637  1
  Se  Se168  1  0.75399303  0.92760157  0.95356279  1
  Se  Se169  1  0.24524674  0.08971741  0.44753320  1
  Se  Se170  1  0.25012342  0.08248411  0.94634061  1
  Se  Se171  1  0.25574329  0.41068407  0.43392003  1
  Se  Se172  1  0.24471493  0.41351053  0.95352239  1
  Se  Se173  1  0.24802058  0.74128628  0.43290030  1
  Se  Se174  1  0.28767212  0.72323036  0.93775118  1
  Se  Se175  1  0.57317547  0.08662460  0.44867846  1
  Se  Se176  1  0.58360998  0.08160442  0.93610893  1
  Se  Se177  1  0.58423384  0.41912406  0.44301276  1
  Se  Se178  1  0.58569307  0.40663478  0.94601830  1
  Se  Se179  1  0.57699179  0.74850905  0.44017072  1
  Se  Se180  1  0.59814931  0.73240221  0.93627521  1
  Se  Se181  1  0.92036166  0.08159549  0.45075304  1
  Se  Se182  1  0.92664225  0.09042956  0.93346237  1
  Se  Se183  1  0.92149766  0.42068145  0.44907188  1
  Se  Se184  1  0.92340118  0.41276719  0.93778862  1
  Se  Se185  1  0.92396220  0.74912437  0.44276910  1
  Se  Se186  1  0.91548816  0.75318703  0.94728265  1
  Se  Se187  1  0.25541111  0.24219244  0.30032396  1
  Se  Se188  1  0.24112897  0.24838758  0.80727678  1
  Se  Se189  1  0.25911133  0.58734545  0.29307119  1
  Se  Se190  1  0.23981173  0.57566791  0.81523711  1
  Se  Se191  1  0.24021679  0.90587423  0.30348540  1
  Se  Se192  1  0.27276297  0.90617957  0.83126713  1
  Se  Se193  1  0.57427753  0.23723403  0.31478553  1
  Se  Se194  1  0.57207256  0.25921541  0.80197906  1
  Se  Se195  1  0.58537781  0.58274473  0.29965968  1
  Se  Se196  1  0.57021331  0.59234288  0.80877226  1
  Se  Se197  1  0.57395196  0.91033779  0.30328516  1
  Se  Se198  1  0.58404169  0.91626688  0.80808641  1
  Se  Se199  1  0.92210741  0.24704025  0.30694797  1
  Se  Se200  1  0.91736239  0.25123687  0.79731365  1
  Se  Se201  1  0.92571663  0.59004720  0.30928683  1
  Se  Se202  1  0.91232525  0.58327007  0.80159922  1
  Se  Se203  1  0.90894745  0.91001595  0.31064927  1
  Se  Se204  1  0.91917921  0.91330610  0.80374649  1
  Se  Se205  1  0.08442195  0.08425203  0.30771839  1
  Se  Se206  1  0.08252854  0.06292391  0.79925989  1
  Se  Se207  1  0.09573480  0.42698438  0.30588652  1
  Se  Se208  1  0.07708694  0.41373723  0.80367300  1
  Se  Se209  1  0.08144954  0.75084466  0.29363103  1
  Se  Se210  1  0.08753190  0.73968276  0.81350413  1
  Se  Se211  1  0.41610969  0.07562377  0.31820443  1
  Se  Se212  1  0.42630693  0.08379304  0.80173702  1
  Se  Se213  1  0.41821700  0.41334353  0.29830177  1
  Se  Se214  1  0.40687770  0.43308651  0.80922931  1
  Se  Se215  1  0.41211652  0.74475744  0.29848370  1
  Se  Se216  1  0.42710880  0.76244689  0.81536550  1
  Se  Se217  1  0.74866082  0.07843297  0.30487362  1
  Se  Se218  1  0.76002704  0.08961328  0.81086641  1
  Se  Se219  1  0.76530706  0.42580182  0.31689144  1
  Se  Se220  1  0.74981401  0.42339416  0.81526884  1
  Se  Se221  1  0.75226957  0.74681916  0.29891044  1
  Se  Se222  1  0.75005726  0.76095888  0.81322235  1
  Se  Se223  1  0.23474958  0.08375966  0.19233546  1
  Se  Se224  1  0.26380426  0.08769000  0.70265889  1
  Se  Se225  1  0.25406890  0.41577932  0.18794976  1
  Se  Se226  1  0.24027200  0.42755229  0.68858819  1
  Se  Se227  1  0.25266804  0.74386458  0.18709036  1
  Se  Se228  1  0.24415146  0.76195156  0.68987455  1
  Se  Se229  1  0.57637871  0.07135679  0.20417438  1
  Se  Se230  1  0.58185748  0.09124645  0.68494802  1
  Se  Se231  1  0.58502995  0.41214394  0.19319491  1
  Se  Se232  1  0.57186562  0.43237101  0.69336815  1
  Se  Se233  1  0.58706294  0.74457294  0.19350331  1
  Se  Se234  1  0.57742926  0.75663725  0.68994273  1
  Se  Se235  1  0.90488327  0.08844366  0.18685144  1
  Se  Se236  1  0.91808248  0.07924657  0.69408879  1
  Se  Se237  1  0.92580859  0.41393601  0.20557282  1
  Se  Se238  1  0.91184779  0.40984732  0.69343905  1
  Se  Se239  1  0.92051579  0.75689323  0.19435326  1
  Se  Se240  1  0.91958231  0.74622613  0.69906071  1
  Se  Se241  1  0.07728439  0.26041152  0.19565054  1
  Se  Se242  1  0.08000556  0.24524788  0.69961474  1
  Se  Se243  1  0.08663805  0.58387940  0.19138162  1
  Se  Se244  1  0.07737936  0.58345907  0.69670112  1
  Se  Se245  1  0.09120593  0.91552842  0.17996527  1
  Se  Se246  1  0.09541103  0.91621128  0.71045870  1
  Se  Se247  1  0.41152577  0.24137750  0.20496196  1
  Se  Se248  1  0.42242219  0.24957679  0.68396981  1
  Se  Se249  1  0.42218534  0.57693754  0.18856480  1
  Se  Se250  1  0.41037033  0.59371279  0.69373540  1
  Se  Se251  1  0.41598995  0.90163168  0.18290980  1
  Se  Se252  1  0.42334859  0.92326114  0.69156354  1
  Se  Se253  1  0.75500363  0.24540851  0.19735220  1
  Se  Se254  1  0.75083057  0.23560505  0.68430150  1
  Se  Se255  1  0.75497181  0.58057124  0.20375166  1
  Se  Se256  1  0.75541322  0.57097118  0.68945061  1
  Se  Se257  1  0.74287523  0.91629366  0.19485039  1
  Se  Se258  1  0.75714400  0.90456925  0.68830617  1
