# generated using pymatgen
data_In86Cu29Se144
_symmetry_space_group_name_H-M   'P 1'
_cell_length_a   17.58155492
_cell_length_b   17.57877077
_cell_length_c   23.44084317
_cell_angle_alpha   89.97931149
_cell_angle_beta   89.99270740
_cell_angle_gamma   90.01295646
_symmetry_Int_Tables_number   1
_chemical_formula_structural   In86Cu29Se144
_chemical_formula_sum   'In86 Cu29 Se144'
_cell_volume   7244.67605651
_cell_formula_units_Z   1
loop_
 _symmetry_equiv_pos_site_id
 _symmetry_equiv_pos_as_xyz
  1  'x, y, z'
loop_
 _atom_site_type_symbol
 _atom_site_label
 _atom_site_symmetry_multiplicity
 _atom_site_fract_x
 _atom_site_fract_y
 _atom_site_fract_z
 _atom_site_occupancy
  In  In0  1  0.02001112  0.16913425  0.12705308  1
  In  In1  1  0.00967068  0.18331831  0.62011235  1
  In  In2  1  0.00143381  0.49579109  0.12700480  1
  In  In3  1  -0.01594797  0.49126753  0.61315415  1
  In  In4  1  -0.01477936  0.82722026  0.12344738  1
  In  In5  1  0.01175507  0.83124870  0.62247229  1
  In  In6  1  0.33047422  0.16178783  0.12436149  1
  In  In7  1  0.32131422  0.16058384  0.60509087  1
  In  In8  1  0.33604714  0.50922523  0.12099202  1
  In  In9  1  0.32718456  0.50818006  0.61385681  1
  In  In10  1  0.34173734  0.83215256  0.13236660  1
  In  In11  1  0.36421176  0.83597797  0.61069035  1
  In  In12  1  0.65733099  0.18282827  0.11698444  1
  In  In13  1  0.67001093  0.16814824  0.62693542  1
  In  In14  1  0.67185787  0.49563206  0.11172308  1
  In  In15  1  0.67681834  0.48465959  0.64044808  1
  In  In16  1  0.66472087  0.83219356  0.11279328  1
  In  In17  1  0.65558175  0.84664484  0.64063653  1
  In  In18  1  0.18460771  0.00200974  0.37722407  1
  In  In19  1  0.18640543  -0.00052874  0.87126713  1
  In  In20  1  0.16274118  0.34214028  0.38310436  1
  In  In21  1  0.15994886  0.33572051  0.88064849  1
  In  In22  1  0.15569152  0.65863011  0.36148978  1
  In  In23  1  0.15631087  0.65604927  0.87791519  1
  In  In24  1  0.46417440  0.02281155  0.40461207  1
  In  In25  1  0.49901732  -0.00010706  0.87353528  1
  In  In26  1  0.48529605  0.32739223  0.37987929  1
  In  In27  1  0.51534417  0.31986735  0.89018704  1
  In  In28  1  0.49783015  0.68136194  0.37777892  1
  In  In29  1  0.51152882  0.65464982  0.88346719  1
  In  In30  1  0.84217184  0.00855602  0.38087057  1
  In  In31  1  0.81753652  0.00401914  0.87132764  1
  In  In32  1  0.84279787  0.32575087  0.38228666  1
  In  In33  1  0.84478276  0.33036113  0.86573797  1
  In  In34  1  0.83872808  0.65031713  0.38141827  1
  In  In35  1  0.82001457  0.66902640  0.88158952  1
  In  In36  1  -0.00429409  0.17481980  0.38234329  1
  In  In37  1  -0.00563663  0.18224019  0.87310906  1
  In  In38  1  0.00401197  0.49804813  0.37492908  1
  In  In39  1  0.00085481  0.48761294  0.88224591  1
  In  In40  1  0.01056605  0.83286239  0.37114536  1
  In  In41  1  0.00112197  0.81461613  0.87824832  1
  In  In42  1  0.33234832  0.17283735  0.38943809  1
  In  In43  1  0.34278696  0.16055757  0.87916868  1
  In  In44  1  0.30384449  0.49879171  0.38263552  1
  In  In45  1  0.33343916  0.49862057  0.88389045  1
  In  In46  1  0.33908492  0.84271254  0.36661686  1
  In  In47  1  0.33871338  0.85046758  0.86948729  1
  In  In48  1  0.66195988  0.16939678  0.38495291  1
  In  In49  1  0.66406280  0.15426597  0.86033861  1
  In  In50  1  0.67155825  0.51166382  0.37923131  1
  In  In51  1  0.66753508  0.49617297  0.87538898  1
  In  In52  1  0.64755905  0.82871458  0.37880814  1
  In  In53  1  0.66409908  0.83335132  0.87456599  1
  In  In54  1  0.17513504  0.02048457  0.12652081  1
  In  In55  1  0.17172635  0.01299668  0.62088869  1
  In  In56  1  0.15354927  0.31926849  0.12510167  1
  In  In57  1  0.16214319  0.32967103  0.61743389  1
  In  In58  1  0.17388651  0.65954756  0.13215757  1
  In  In59  1  0.17573957  0.65849614  0.61222768  1
  In  In60  1  0.49466606  -0.00355619  0.11939199  1
  In  In61  1  0.49763640  0.00736555  0.62489319  1
  In  In62  1  0.50093306  0.33349627  0.10934852  1
  In  In63  1  0.51926999  0.32928704  0.63083718  1
  In  In64  1  0.49688154  0.66648642  0.12179828  1
  In  In65  1  0.49973275  0.67756488  0.62372478  1
  In  In66  1  0.84332073  -0.00640668  0.11869584  1
  In  In67  1  0.81801349  0.00061477  0.63095311  1
  In  In68  1  0.83501255  0.35183251  0.12033187  1
  In  In69  1  0.83238292  0.33444381  0.62983123  1
  In  In70  1  0.83339677  0.66343523  0.12114118  1
  In  In71  1  0.83196056  0.65112233  0.62445895  1
  In  In72  1  0.32626810  0.33125634  0.25393443  1
  In  In73  1  0.16869229  0.82904281  0.49617048  1
  In  In74  1  -0.00805465  0.01405917  0.75388581  1
  In  In75  1  0.82934108  0.83738983  0.50052001  1
  In  In76  1  0.34180279  0.33081029  0.74697452  1
  In  In77  1  0.66223859  -0.00193423  0.24810363  1
  In  In78  1  0.66897539  0.33717163  0.24050111  1
  In  In79  1  0.16913747  0.82918297  0.00234045  1
  In  In80  1  -0.00017117  0.66382873  0.74357545  1
  In  In81  1  0.33423446  0.67010752  0.74168594  1
  In  In82  1  0.82956164  0.16272600  -0.00592460  1
  In  In83  1  0.00876449  -0.00466158  0.24986112  1
  In  In84  1  0.50476214  0.49541932  0.50115249  1
  In  In85  1  0.66530163  0.66991682  0.24401360  1
  Cu  Cu86  1  0.49356320  0.16599660  0.25622057  1
  Cu  Cu87  1  0.17613050  0.84045466  0.74375197  1
  Cu  Cu88  1  0.66943271  0.66675277  0.50709188  1
  Cu  Cu89  1  0.66962869  0.66704878  -0.00381326  1
  Cu  Cu90  1  0.50445206  0.50198078  0.75740379  1
  Cu  Cu91  1  0.17352531  0.17134163  0.74280442  1
  Cu  Cu92  1  0.82917291  0.83119940  0.75578737  1
  Cu  Cu93  1  0.16924808  0.83176125  0.24841991  1
  Cu  Cu94  1  0.16177083  0.49419962  0.75115902  1
  Cu  Cu95  1  0.83091909  0.82082726  0.24891296  1
  Cu  Cu96  1  0.84316935  0.49524741  0.25349003  1
  Cu  Cu97  1  0.65808003  -0.00340830  0.50993668  1
  Cu  Cu98  1  0.83561925  0.50057637  0.75237385  1
  Cu  Cu99  1  0.00398318  -0.00564645  0.00280668  1
  Cu  Cu100  1  0.48971700  0.84689228  0.25308358  1
  Cu  Cu101  1  -0.00103982  0.33176669  0.00139920  1
  Cu  Cu102  1  0.32315098  0.33739128  0.00244326  1
  Cu  Cu103  1  0.84025543  0.16979898  0.25508079  1
  Cu  Cu104  1  -0.00277031  0.34395688  0.50087222  1
  Cu  Cu105  1  0.50067852  0.16092942  0.75077648  1
  Cu  Cu106  1  0.33286986  0.67537581  0.00461499  1
  Cu  Cu107  1  -0.00783810  0.65236561  0.00122182  1
  Cu  Cu108  1  0.33863611  0.00640420  -0.00115237  1
  Cu  Cu109  1  0.67564245  0.33412435  0.50773739  1
  Cu  Cu110  1  0.49023045  0.50419387  0.24624138  1
  Cu  Cu111  1  0.66189058  -0.00058599  -0.00826865  1
  Cu  Cu112  1  -0.00035314  0.01252879  0.50481605  1
  Cu  Cu113  1  0.16187395  0.49728173  0.24919879  1
  Cu  Cu114  1  0.50258422  0.83359010  0.75074194  1
  Se  Se115  1  0.08525437  0.08240317  0.05162873  1
  Se  Se116  1  0.08887095  0.09414561  0.55306295  1
  Se  Se117  1  0.08311702  0.41285236  0.05663905  1
  Se  Se118  1  0.08732234  0.42381422  0.55177785  1
  Se  Se119  1  0.07493377  0.73796165  0.05814976  1
  Se  Se120  1  0.07214389  0.73617121  0.55039166  1
  Se  Se121  1  0.42041084  0.09050856  0.05358906  1
  Se  Se122  1  0.41306683  0.07412321  0.54880025  1
  Se  Se123  1  0.41102735  0.42136869  0.05147994  1
  Se  Se124  1  0.41977909  0.40789940  0.56556803  1
  Se  Se125  1  0.41824791  0.75768451  0.05543982  1
  Se  Se126  1  0.39319015  0.71482997  0.55387359  1
  Se  Se127  1  0.73944795  0.07441840  0.05993556  1
  Se  Se128  1  0.74798898  0.08062161  0.55524053  1
  Se  Se129  1  0.72860212  0.38769287  0.05130762  1
  Se  Se130  1  0.75430284  0.42304728  0.55837527  1
  Se  Se131  1  0.75394600  0.74869019  0.05195529  1
  Se  Se132  1  0.74321437  0.75344090  0.56761676  1
  Se  Se133  1  0.24813610  0.24839649  0.05790224  1
  Se  Se134  1  0.25978670  0.26979370  0.54720551  1
  Se  Se135  1  0.24763526  0.58857868  0.05232021  1
  Se  Se136  1  0.24586921  0.57616970  0.53859653  1
  Se  Se137  1  0.25695070  0.92463048  0.05910321  1
  Se  Se138  1  0.25595433  0.91788139  0.55778741  1
  Se  Se139  1  0.57914350  0.24937894  0.04059520  1
  Se  Se140  1  0.58801985  0.24888369  0.55371892  1
  Se  Se141  1  0.58603798  0.58869291  0.05504839  1
  Se  Se142  1  0.59241276  0.58122802  0.56712279  1
  Se  Se143  1  0.58022338  0.91838746  0.05002362  1
  Se  Se144  1  0.57709013  0.91011906  0.56051777  1
  Se  Se145  1  0.91911487  0.24714665  0.06100338  1
  Se  Se146  1  0.91591271  0.25882658  0.55555080  1
  Se  Se147  1  0.91028199  0.57006091  0.05690012  1
  Se  Se148  1  0.92099674  0.59436210  0.55021667  1
  Se  Se149  1  0.91534288  0.90892722  0.04648080  1
  Se  Se150  1  0.92361652  0.92576769  0.56259826  1
  Se  Se151  1  0.07993258  0.25601988  0.45041161  1
  Se  Se152  1  0.08112938  0.24621963  0.94858978  1
  Se  Se153  1  0.09866723  0.57253501  0.43965817  1
  Se  Se154  1  0.08259076  0.57440134  0.95015765  1
  Se  Se155  1  0.07500854  0.92863606  0.44333662  1
  Se  Se156  1  0.08314009  0.91908275  0.93658615  1
  Se  Se157  1  0.43387731  0.23725244  0.45500176  1
  Se  Se158  1  0.40812148  0.25476736  0.94871480  1
  Se  Se159  1  0.41694504  0.57797772  0.43444212  1
  Se  Se160  1  0.41201385  0.58872177  0.94893715  1
  Se  Se161  1  0.42559834  0.89423498  0.44724653  1
  Se  Se162  1  0.41830800  0.91781303  0.94680405  1
  Se  Se163  1  0.75260438  0.24873525  0.44867598  1
  Se  Se164  1  0.74596377  0.24826435  0.92944463  1
  Se  Se165  1  0.75163433  0.58209487  0.45520462  1
  Se  Se166  1  0.75085243  0.57488275  0.94921939  1
  Se  Se167  1  0.73696883  0.92655817  0.43952561  1
  Se  Se168  1  0.75021669  0.91592102  0.94400736  1
  Se  Se169  1  0.25333823  0.07928092  0.45337111  1
  Se  Se170  1  0.24947602  0.08530660  0.94707215  1
  Se  Se171  1  0.27506721  0.38591794  0.44901587  1
  Se  Se172  1  0.24158200  0.42089122  0.94814902  1
  Se  Se173  1  0.24896912  0.74689049  0.42609990  1
  Se  Se174  1  0.25657565  0.74579055  0.93369014  1
  Se  Se175  1  0.58309233  0.08341459  0.45227233  1
  Se  Se176  1  0.58351179  0.08665805  0.93921777  1
  Se  Se177  1  0.59585859  0.40551535  0.43843021  1
  Se  Se178  1  0.56273517  0.43935284  0.94156291  1
  Se  Se179  1  0.58123268  0.74644425  0.45579300  1
  Se  Se180  1  0.58363538  0.75247637  0.94701130  1
  Se  Se181  1  0.91192224  0.09305733  0.45327952  1
  Se  Se182  1  0.92549118  0.07225419  0.93727112  1
  Se  Se183  1  0.91284988  0.42435516  0.44544775  1
  Se  Se184  1  0.91028414  0.40868961  0.94756051  1
  Se  Se185  1  0.92203323  0.75103505  0.44052470  1
  Se  Se186  1  0.91530731  0.74245944  0.94856626  1
  Se  Se187  1  0.24037612  0.24315785  0.31547742  1
  Se  Se188  1  0.24859768  0.24817331  0.81052272  1
  Se  Se189  1  0.25124900  0.57871531  0.29862315  1
  Se  Se190  1  0.24543534  0.57785751  0.80553537  1
  Se  Se191  1  0.24928700  0.91997714  0.29905196  1
  Se  Se192  1  0.26014155  0.92437675  0.79360741  1
  Se  Se193  1  0.58031623  0.24998363  0.30719707  1
  Se  Se194  1  0.57738156  0.25061821  0.80393573  1
  Se  Se195  1  0.57618848  0.57979990  0.30666134  1
  Se  Se196  1  0.59010666  0.58716432  0.80509679  1
  Se  Se197  1  0.56995362  0.92363380  0.31494329  1
  Se  Se198  1  0.58416752  0.91830417  0.80506924  1
  Se  Se199  1  0.92202270  0.25420279  0.30540925  1
  Se  Se200  1  0.92000878  0.24670504  0.79380598  1
  Se  Se201  1  0.92093831  0.58457586  0.30495348  1
  Se  Se202  1  0.91601392  0.58132543  0.81320822  1
  Se  Se203  1  0.90602938  0.90966486  0.30739030  1
  Se  Se204  1  0.91703913  0.90656834  0.81268376  1
  Se  Se205  1  0.08553673  0.08482501  0.31647315  1
  Se  Se206  1  0.09601644  0.09332742  0.80954205  1
  Se  Se207  1  0.08370691  0.41241847  0.30485798  1
  Se  Se208  1  0.08020302  0.41328879  0.80626837  1
  Se  Se209  1  0.07796942  0.75113089  0.29520625  1
  Se  Se210  1  0.09778673  0.75544795  0.80128697  1
  Se  Se211  1  0.41120924  0.09004380  0.31441547  1
  Se  Se212  1  0.41367100  0.08028321  0.80311973  1
  Se  Se213  1  0.41694626  0.42610575  0.31150668  1
  Se  Se214  1  0.42231402  0.41995300  0.81394226  1
  Se  Se215  1  0.41675210  0.74886316  0.30073193  1
  Se  Se216  1  0.42268872  0.75016105  0.81021935  1
  Se  Se217  1  0.75412103  0.09004028  0.30885556  1
  Se  Se218  1  0.76263890  0.08929585  0.79402364  1
  Se  Se219  1  0.75348084  0.42071581  0.31051423  1
  Se  Se220  1  0.75317306  0.41683783  0.80583190  1
  Se  Se221  1  0.75103175  0.75147251  0.31582477  1
  Se  Se222  1  0.74576638  0.74611127  0.80589797  1
  Se  Se223  1  0.25111926  0.09286331  0.20169933  1
  Se  Se224  1  0.25736296  0.08914614  0.69110265  1
  Se  Se225  1  0.24430204  0.42052695  0.18711547  1
  Se  Se226  1  0.24899636  0.42321784  0.69002000  1
  Se  Se227  1  0.25485714  0.74864224  0.19676651  1
  Se  Se228  1  0.24689278  0.75952390  0.67915361  1
  Se  Se229  1  0.57675921  0.09599326  0.19088506  1
  Se  Se230  1  0.58597529  0.08148127  0.69468765  1
  Se  Se231  1  0.57166194  0.42720055  0.18666159  1
  Se  Se232  1  0.58522450  0.41175840  0.70827021  1
  Se  Se233  1  0.57460721  0.76862186  0.19282834  1
  Se  Se234  1  0.58281587  0.74398918  0.70038275  1
  Se  Se235  1  0.91299855  0.08487660  0.19165395  1
  Se  Se236  1  0.91314422  0.09610403  0.68358927  1
  Se  Se237  1  0.92094138  0.41004197  0.19800651  1
  Se  Se238  1  0.91978409  0.42051629  0.69636394  1
  Se  Se239  1  0.91449431  0.74000469  0.19572371  1
  Se  Se240  1  0.90915071  0.76111641  0.68861104  1
  Se  Se241  1  0.08371621  0.24713499  0.20553048  1
  Se  Se242  1  0.08790915  0.25782316  0.69680776  1
  Se  Se243  1  0.07983168  0.58338586  0.19599135  1
  Se  Se244  1  0.09126974  0.57570757  0.68524717  1
  Se  Se245  1  0.09195640  0.90794695  0.18135275  1
  Se  Se246  1  0.08624560  0.92198608  0.69322642  1
  Se  Se247  1  0.42604915  0.25323962  0.19133693  1
  Se  Se248  1  0.42195718  0.23594567  0.68529186  1
  Se  Se249  1  0.41201114  0.59205082  0.19434405  1
  Se  Se250  1  0.42410224  0.57083853  0.69003411  1
  Se  Se251  1  0.41112520  0.93191426  0.19735837  1
  Se  Se252  1  0.41990085  0.91417791  0.69369277  1
  Se  Se253  1  0.76156197  0.24112164  0.18729781  1
  Se  Se254  1  0.73252688  0.26787764  0.69387961  1
  Se  Se255  1  0.75388356  0.56862996  0.19337038  1
  Se  Se256  1  0.75095412  0.58532764  0.70211186  1
  Se  Se257  1  0.75692556  0.90686403  0.19000983  1
  Se  Se258  1  0.74768456  0.92121002  0.70739114  1
