# generated using pymatgen
data_In86Cu29Se144
_symmetry_space_group_name_H-M   'P 1'
_cell_length_a   17.58210991
_cell_length_b   17.58386687
_cell_length_c   23.44184894
_cell_angle_alpha   90.00405725
_cell_angle_beta   89.96789370
_cell_angle_gamma   90.00881013
_symmetry_Int_Tables_number   1
_chemical_formula_structural   In86Cu29Se144
_chemical_formula_sum   'In86 Cu29 Se144'
_cell_volume   7247.31546946
_cell_formula_units_Z   1
loop_
 _symmetry_equiv_pos_site_id
 _symmetry_equiv_pos_as_xyz
  1  'x, y, z'
loop_
 _atom_site_type_symbol
 _atom_site_label
 _atom_site_symmetry_multiplicity
 _atom_site_fract_x
 _atom_site_fract_y
 _atom_site_fract_z
 _atom_site_occupancy
  In  In0  1  0.00719983  0.17109292  0.11384647  1
  In  In1  1  0.01037241  0.15411343  0.63879370  1
  In  In2  1  0.00824774  0.48928939  0.12148953  1
  In  In3  1  0.00539525  0.48691610  0.62817909  1
  In  In4  1  -0.00224216  0.84880968  0.12126517  1
  In  In5  1  0.01499543  0.83072901  0.62961929  1
  In  In6  1  0.32998717  0.16339502  0.12576601  1
  In  In7  1  0.32055156  0.14765430  0.60810118  1
  In  In8  1  0.33398749  0.49123558  0.12093546  1
  In  In9  1  0.34143491  0.50805867  0.61715413  1
  In  In10  1  0.34707953  0.82471844  0.12966036  1
  In  In11  1  0.32710244  0.83111288  0.62871998  1
  In  In12  1  0.66415570  0.16909813  0.13180792  1
  In  In13  1  0.65299978  0.16540407  0.62354870  1
  In  In14  1  0.64183889  0.51423567  0.14270582  1
  In  In15  1  0.65570542  0.50258698  0.61894272  1
  In  In16  1  0.66410933  0.83744187  0.12396924  1
  In  In17  1  0.66031803  0.84069603  0.61750252  1
  In  In18  1  0.19326061  -0.01287584  0.39599516  1
  In  In19  1  0.17545698  0.00805209  0.86748626  1
  In  In20  1  0.18058223  0.31908192  0.38377507  1
  In  In21  1  0.16955426  0.34094469  0.88045332  1
  In  In22  1  0.16941319  0.66941722  0.38358476  1
  In  In23  1  0.17337837  0.65315745  0.87487602  1
  In  In24  1  0.49445988  0.00029176  0.37452105  1
  In  In25  1  0.49740513  0.00184420  0.88288242  1
  In  In26  1  0.49073591  0.33423082  0.36545356  1
  In  In27  1  0.48622061  0.33365118  0.89693650  1
  In  In28  1  0.51452349  0.65948948  0.38315129  1
  In  In29  1  0.49310219  0.67704463  0.87772613  1
  In  In30  1  0.82391613  0.01269813  0.36834361  1
  In  In31  1  0.83979714  -0.00153468  0.87960712  1
  In  In32  1  0.82577014  0.33653433  0.36766253  1
  In  In33  1  0.83083787  0.32004869  0.87870480  1
  In  In34  1  0.81655057  0.67612136  0.37360176  1
  In  In35  1  0.83463265  0.68147148  0.87998321  1
  In  In36  1  0.00850978  0.17421854  0.37691147  1
  In  In37  1  0.00250413  0.16642442  0.87368965  1
  In  In38  1  0.00673031  0.50110653  0.37877781  1
  In  In39  1  0.02162354  0.50278573  0.87373772  1
  In  In40  1  0.00957911  0.84304583  0.38098121  1
  In  In41  1  -0.01749229  0.84110854  0.87370096  1
  In  In42  1  0.33259106  0.16621028  0.37302635  1
  In  In43  1  0.34360522  0.15671470  0.88608483  1
  In  In44  1  0.34768923  0.48756097  0.37733532  1
  In  In45  1  0.32970715  0.50254161  0.88102650  1
  In  In46  1  0.33393726  0.84768413  0.38375282  1
  In  In47  1  0.34311109  0.84210661  0.86773779  1
  In  In48  1  0.65303039  0.14759433  0.34956005  1
  In  In49  1  0.65848997  0.17557302  0.88898810  1
  In  In50  1  0.64394839  0.49243436  0.35564494  1
  In  In51  1  0.65886784  0.48589050  0.88006947  1
  In  In52  1  0.64971502  0.82393338  0.36419957  1
  In  In53  1  0.66628233  0.83745680  0.88357639  1
  In  In54  1  0.16294197  0.01125774  0.12779618  1
  In  In55  1  0.17271537  -0.00385415  0.62830847  1
  In  In56  1  0.18354324  0.33919555  0.10877189  1
  In  In57  1  0.16240992  0.32442139  0.62174281  1
  In  In58  1  0.18397455  0.65992174  0.12689999  1
  In  In59  1  0.18055252  0.68040830  0.61762123  1
  In  In60  1  0.49812136  -0.00128253  0.12671588  1
  In  In61  1  0.45549019  -0.03303219  0.58453436  1
  In  In62  1  0.49367464  0.33484064  0.12616865  1
  In  In63  1  0.48853728  0.32484705  0.61366660  1
  In  In64  1  0.50251968  0.67414735  0.12159329  1
  In  In65  1  0.49288014  0.65228047  0.61438122  1
  In  In66  1  0.82857169  0.00222272  0.12125841  1
  In  In67  1  0.83128431  0.00907065  0.63006212  1
  In  In68  1  0.82500953  0.31712302  0.12290164  1
  In  In69  1  0.84040598  0.34242330  0.62904818  1
  In  In70  1  0.81713643  0.66873757  0.12405763  1
  In  In71  1  0.83399087  0.67654544  0.62697485  1
  In  In72  1  0.16677780  0.83447600  -0.00035447  1
  In  In73  1  -0.00176200  0.32956236  0.24628995  1
  In  In74  1  0.01094354  0.66954295  0.75177259  1
  In  In75  1  0.83346543  0.16947568  0.49679948  1
  In  In76  1  0.66596885  0.32466929  0.75572708  1
  In  In77  1  0.83216943  0.83167166  0.50337355  1
  In  In78  1  0.66563245  0.66756123  0.75221545  1
  In  In79  1  0.00478012  0.00333807  0.24984687  1
  In  In80  1  -0.00380710  0.66841328  0.26067109  1
  In  In81  1  0.82854840  0.49963245  0.49271877  1
  In  In82  1  0.34030222  0.66655852  0.25665220  1
  In  In83  1  0.33235092  0.32757075  0.75187103  1
  In  In84  1  0.66700712  0.00265548  0.74906123  1
  In  In85  1  0.83101620  0.50037770  0.00335832  1
  Cu  Cu86  1  0.49298202  0.15774265  0.75294135  1
  Cu  Cu87  1  0.33786834  0.33940362  0.49469936  1
  Cu  Cu88  1  0.00914042  0.32899181  0.50583224  1
  Cu  Cu89  1  0.49412300  0.83335854  0.74412057  1
  Cu  Cu90  1  0.49265171  0.16532937  0.24650313  1
  Cu  Cu91  1  0.17036817  0.49381084  0.24822037  1
  Cu  Cu92  1  0.16745626  0.16414114  0.74816505  1
  Cu  Cu93  1  0.17090630  0.83796706  0.75080958  1
  Cu  Cu94  1  0.66271150  0.67087840  0.00526136  1
  Cu  Cu95  1  0.00406285  0.66865621  -0.00465264  1
  Cu  Cu96  1  0.33709196  -0.00450318  0.00181527  1
  Cu  Cu97  1  0.66325128  0.00555401  0.00610130  1
  Cu  Cu98  1  0.33391853  0.67173852  0.49797366  1
  Cu  Cu99  1  0.65897952  0.33257474  0.48808382  1
  Cu  Cu100  1  0.01108181  0.00317272  0.50648860  1
  Cu  Cu101  1  0.17389639  0.16650079  0.25169111  1
  Cu  Cu102  1  0.84414940  0.50241116  0.74948313  1
  Cu  Cu103  1  0.49690417  0.49714099  0.74418200  1
  Cu  Cu104  1  0.83777754  0.16545827  0.75588611  1
  Cu  Cu105  1  0.66111635  0.33588001  0.01101378  1
  Cu  Cu106  1  0.82132034  0.50010633  0.24770028  1
  Cu  Cu107  1  0.17576953  0.49847197  0.75189625  1
  Cu  Cu108  1  0.00313582  0.66065872  0.50313772  1
  Cu  Cu109  1  0.00476871  0.33458991  -0.00333166  1
  Cu  Cu110  1  0.50193618  0.84051798  0.25116052  1
  Cu  Cu111  1  -0.00671760  0.00459260  -0.00253376  1
  Cu  Cu112  1  0.33856147  0.66220880  0.00123154  1
  Cu  Cu113  1  0.66040128  -0.00123923  0.48752543  1
  Cu  Cu114  1  0.82867361  0.83721131  0.24541535  1
  Se  Se115  1  0.08521333  0.07944204  0.04875793  1
  Se  Se116  1  0.09023526  0.08689169  0.56143212  1
  Se  Se117  1  0.08913821  0.42015612  0.04666198  1
  Se  Se118  1  0.08965862  0.41978876  0.55355913  1
  Se  Se119  1  0.08097158  0.74270314  0.06390306  1
  Se  Se120  1  0.08307468  0.75165150  0.55240555  1
  Se  Se121  1  0.41613327  0.08109352  0.05676192  1
  Se  Se122  1  0.44344899  0.10735154  0.55668495  1
  Se  Se123  1  0.40910679  0.40573461  0.05117060  1
  Se  Se124  1  0.42199836  0.42291186  0.54868078  1
  Se  Se125  1  0.41850742  0.75240375  0.05029500  1
  Se  Se126  1  0.41323001  0.75095390  0.55786362  1
  Se  Se127  1  0.74691138  0.09083548  0.05702122  1
  Se  Se128  1  0.73911834  0.07424844  0.55330944  1
  Se  Se129  1  0.74065511  0.42115018  0.06878741  1
  Se  Se130  1  0.74190670  0.40326206  0.55450913  1
  Se  Se131  1  0.74943766  0.75630038  0.05207174  1
  Se  Se132  1  0.73754138  0.73593487  0.55421511  1
  Se  Se133  1  0.22665114  0.21903197  0.05715254  1
  Se  Se134  1  0.25693071  0.25837606  0.55282835  1
  Se  Se135  1  0.25259915  0.57927390  0.05187461  1
  Se  Se136  1  0.25050533  0.58552212  0.55092303  1
  Se  Se137  1  0.25584910  0.91781439  0.06437503  1
  Se  Se138  1  0.26303313  0.92675292  0.55806704  1
  Se  Se139  1  0.57989856  0.24747373  0.06063738  1
  Se  Se140  1  0.58511493  0.25065796  0.55007346  1
  Se  Se141  1  0.58199103  0.58284944  0.05527742  1
  Se  Se142  1  0.58392303  0.58059832  0.54593419  1
  Se  Se143  1  0.57968809  0.91730990  0.05449533  1
  Se  Se144  1  0.58240314  0.91208371  0.54190303  1
  Se  Se145  1  0.91880773  0.25569885  0.05069286  1
  Se  Se146  1  0.92390184  0.25094886  0.56395607  1
  Se  Se147  1  0.92465620  0.59204443  0.06161752  1
  Se  Se148  1  0.91870221  0.58453244  0.56145962  1
  Se  Se149  1  0.91179152  0.91976297  0.05047470  1
  Se  Se150  1  0.92263883  0.92458590  0.56261817  1
  Se  Se151  1  0.08944661  0.24415094  0.45231906  1
  Se  Se152  1  0.08550922  0.25023535  0.94232440  1
  Se  Se153  1  0.08719757  0.58021103  0.44875664  1
  Se  Se154  1  0.09085804  0.58260569  0.95062870  1
  Se  Se155  1  0.09004326  0.91386397  0.45552216  1
  Se  Se156  1  0.07774320  0.92402602  0.93835043  1
  Se  Se157  1  0.41722726  0.25260881  0.44041802  1
  Se  Se158  1  0.41487925  0.23957951  0.95971473  1
  Se  Se159  1  0.41402714  0.58687586  0.44346848  1
  Se  Se160  1  0.42246014  0.58228074  0.94474401  1
  Se  Se161  1  0.41364328  0.93243195  0.45372830  1
  Se  Se162  1  0.41825563  0.91005767  0.94839306  1
  Se  Se163  1  0.74006793  0.24861742  0.43277484  1
  Se  Se164  1  0.74646894  0.25640108  0.95523552  1
  Se  Se165  1  0.73518050  0.58124524  0.43366018  1
  Se  Se166  1  0.74038186  0.59111279  0.94018439  1
  Se  Se167  1  0.74868058  0.91791648  0.43504905  1
  Se  Se168  1  0.74706370  0.92587046  0.94768022  1
  Se  Se169  1  0.23930436  0.10653535  0.44752992  1
  Se  Se170  1  0.24995582  0.07481077  0.94848991  1
  Se  Se171  1  0.24904084  0.42190181  0.44498062  1
  Se  Se172  1  0.26799651  0.40346896  0.94718370  1
  Se  Se173  1  0.25030642  0.75740068  0.44809134  1
  Se  Se174  1  0.25880363  0.74528104  0.94025503  1
  Se  Se175  1  0.58417838  0.08960512  0.43664633  1
  Se  Se176  1  0.57713658  0.08622420  0.95186496  1
  Se  Se177  1  0.57724629  0.41659629  0.43609310  1
  Se  Se178  1  0.57873566  0.41898653  0.95627180  1
  Se  Se179  1  0.58132176  0.76002795  0.44718178  1
  Se  Se180  1  0.58145455  0.75188234  0.94696183  1
  Se  Se181  1  0.92645250  0.07283581  0.44215409  1
  Se  Se182  1  0.91302882  0.09255558  0.94512722  1
  Se  Se183  1  0.92507460  0.40124157  0.44237765  1
  Se  Se184  1  0.92282546  0.41734375  0.93772946  1
  Se  Se185  1  0.92347935  0.74006021  0.44095257  1
  Se  Se186  1  0.91799653  0.75615862  0.95136211  1
  Se  Se187  1  0.25485157  0.25563930  0.30180878  1
  Se  Se188  1  0.24682908  0.23776469  0.81409263  1
  Se  Se189  1  0.24284794  0.57640230  0.31148009  1
  Se  Se190  1  0.25981219  0.58230992  0.80250695  1
  Se  Se191  1  0.25288651  0.92183098  0.30955583  1
  Se  Se192  1  0.25685424  0.92191789  0.80085008  1
  Se  Se193  1  0.57729861  0.25180557  0.29633443  1
  Se  Se194  1  0.56501786  0.24536137  0.81368721  1
  Se  Se195  1  0.57920450  0.59758243  0.29660389  1
  Se  Se196  1  0.57680823  0.57256866  0.80892351  1
  Se  Se197  1  0.58495371  0.92758640  0.30264499  1
  Se  Se198  1  0.57629947  0.90877038  0.80713304  1
  Se  Se199  1  0.90997042  0.23827259  0.30683299  1
  Se  Se200  1  0.91859248  0.25373357  0.80578921  1
  Se  Se201  1  0.90229658  0.57164827  0.31338555  1
  Se  Se202  1  0.91492597  0.58345258  0.81412579  1
  Se  Se203  1  0.91090497  0.90944444  0.30957844  1
  Se  Se204  1  0.91107407  0.92347079  0.80150996  1
  Se  Se205  1  0.09523692  0.08657252  0.31341054  1
  Se  Se206  1  0.08149806  0.08220637  0.80222807  1
  Se  Se207  1  0.08943140  0.41494089  0.31015261  1
  Se  Se208  1  0.09095829  0.41459764  0.80243551  1
  Se  Se209  1  0.09337323  0.76007544  0.30967002  1
  Se  Se210  1  0.09383344  0.76065993  0.81704546  1
  Se  Se211  1  0.41265019  0.08190221  0.30356424  1
  Se  Se212  1  0.41328598  0.07499825  0.80902839  1
  Se  Se213  1  0.41719953  0.42320701  0.29531656  1
  Se  Se214  1  0.42580784  0.41579735  0.81042505  1
  Se  Se215  1  0.42469640  0.76133665  0.31590085  1
  Se  Se216  1  0.41545106  0.74771536  0.79973034  1
  Se  Se217  1  0.75988311  0.08744567  0.28891273  1
  Se  Se218  1  0.74588618  0.09679970  0.81452618  1
  Se  Se219  1  0.74159114  0.41096196  0.29725682  1
  Se  Se220  1  0.75932118  0.42389987  0.80841302  1
  Se  Se221  1  0.74494637  0.75204162  0.29684309  1
  Se  Se222  1  0.75500933  0.76313803  0.80671302  1
  Se  Se223  1  0.25254719  0.07749558  0.19957029  1
  Se  Se224  1  0.25515537  0.08475059  0.69535711  1
  Se  Se225  1  0.24947209  0.41218026  0.19194911  1
  Se  Se226  1  0.25124457  0.41982498  0.68698470  1
  Se  Se227  1  0.24511340  0.75618299  0.19832067  1
  Se  Se228  1  0.24977665  0.74684111  0.70112458  1
  Se  Se229  1  0.57968588  0.08121181  0.19663748  1
  Se  Se230  1  0.56973922  0.08021017  0.68926535  1
  Se  Se231  1  0.58473000  0.40357696  0.19792386  1
  Se  Se232  1  0.57754021  0.41204042  0.68982434  1
  Se  Se233  1  0.58034856  0.75536423  0.19409288  1
  Se  Se234  1  0.57740690  0.75263360  0.68699550  1
  Se  Se235  1  0.92040955  0.09122375  0.18588208  1
  Se  Se236  1  0.91643734  0.07818103  0.70318192  1
  Se  Se237  1  0.90682648  0.42458313  0.18917285  1
  Se  Se238  1  0.92513962  0.41242113  0.70278785  1
  Se  Se239  1  0.91383414  0.75582910  0.19001509  1
  Se  Se240  1  0.91341488  0.75938774  0.69802359  1
  Se  Se241  1  0.09473861  0.24579436  0.18882571  1
  Se  Se242  1  0.08490863  0.25357811  0.69997502  1
  Se  Se243  1  0.08624465  0.57804479  0.19537798  1
  Se  Se244  1  0.09605708  0.57935978  0.68920079  1
  Se  Se245  1  0.09386129  0.90650694  0.19464165  1
  Se  Se246  1  0.08474959  0.91983089  0.69966378  1
  Se  Se247  1  0.40917143  0.24932519  0.19427776  1
  Se  Se248  1  0.41752924  0.23798913  0.68919352  1
  Se  Se249  1  0.42038952  0.58035192  0.18807064  1
  Se  Se250  1  0.41576454  0.58474299  0.69472855  1
  Se  Se251  1  0.41360083  0.91830367  0.19844575  1
  Se  Se252  1  0.41938054  0.92146819  0.68740636  1
  Se  Se253  1  0.75290655  0.24659641  0.20063722  1
  Se  Se254  1  0.75759328  0.23980503  0.68988654  1
  Se  Se255  1  0.74363091  0.59212562  0.19951178  1
  Se  Se256  1  0.75695301  0.57353569  0.69027771  1
  Se  Se257  1  0.74798145  0.92159182  0.19246231  1
  Se  Se258  1  0.75467824  0.90602687  0.69035510  1
