# generated using pymatgen
data_In86Cu29Se144
_symmetry_space_group_name_H-M   'P 1'
_cell_length_a   17.60182215
_cell_length_b   17.59721616
_cell_length_c   23.45736977
_cell_angle_alpha   90.01584018
_cell_angle_beta   90.01600827
_cell_angle_gamma   89.98721334
_symmetry_Int_Tables_number   1
_chemical_formula_structural   In86Cu29Se144
_chemical_formula_sum   'In86 Cu29 Se144'
_cell_volume   7265.75696435
_cell_formula_units_Z   1
loop_
 _symmetry_equiv_pos_site_id
 _symmetry_equiv_pos_as_xyz
  1  'x, y, z'
loop_
 _atom_site_type_symbol
 _atom_site_label
 _atom_site_symmetry_multiplicity
 _atom_site_fract_x
 _atom_site_fract_y
 _atom_site_fract_z
 _atom_site_occupancy
  In  In0  1  -0.01972303  0.13714150  0.09769426  1
  In  In1  1  -0.01757222  0.16542732  0.62759398  1
  In  In2  1  -0.00418396  0.52033181  0.12772231  1
  In  In3  1  0.01339260  0.49458652  0.62706736  1
  In  In4  1  -0.00332418  0.84117109  0.10825299  1
  In  In5  1  -0.00247229  0.83727915  0.63645928  1
  In  In6  1  0.29947423  0.12873169  0.08301706  1
  In  In7  1  0.34545754  0.15267081  0.63859298  1
  In  In8  1  0.33994427  0.49054383  0.12364782  1
  In  In9  1  0.32188140  0.50174221  0.62797464  1
  In  In10  1  0.34031167  0.85423741  0.11082454  1
  In  In11  1  0.34668043  0.83619139  0.62670096  1
  In  In12  1  0.66095964  0.16666936  0.11651869  1
  In  In13  1  0.67044278  0.16354733  0.62958670  1
  In  In14  1  0.68886660  0.52781949  0.09757613  1
  In  In15  1  0.65634196  0.49622080  0.62642160  1
  In  In16  1  0.67159596  0.82958933  0.12007150  1
  In  In17  1  0.66984731  0.84532535  0.62374455  1
  In  In18  1  0.15936843  -0.00602452  0.36400777  1
  In  In19  1  0.16949433  0.00040338  0.88102259  1
  In  In20  1  0.18225721  0.33038134  0.38064397  1
  In  In21  1  0.16880201  0.31766779  0.87369743  1
  In  In22  1  0.15013645  0.66997756  0.37393659  1
  In  In23  1  0.16514482  0.68524759  0.87712494  1
  In  In24  1  0.49317233  0.00572223  0.37771959  1
  In  In25  1  0.50173554  -0.00160961  0.87803876  1
  In  In26  1  0.49169389  0.32718945  0.37889220  1
  In  In27  1  0.50079492  0.33009648  0.86782855  1
  In  In28  1  0.51856641  0.67596796  0.36727601  1
  In  In29  1  0.50139362  0.67867947  0.89233524  1
  In  In30  1  0.83820677  -0.00489799  0.37589482  1
  In  In31  1  0.83443809  0.00194557  0.88236343  1
  In  In32  1  0.82428676  0.33256994  0.37640764  1
  In  In33  1  0.82714092  0.33612381  0.87853960  1
  In  In34  1  0.82871608  0.67157993  0.36722214  1
  In  In35  1  0.83318340  0.65863631  0.88262178  1
  In  In36  1  0.00249018  0.15046650  0.37165694  1
  In  In37  1  0.01202898  0.14774522  0.89427341  1
  In  In38  1  -0.00847318  0.51514011  0.37511702  1
  In  In39  1  -0.01835321  0.50070681  0.87541982  1
  In  In40  1  -0.01046877  0.83418156  0.35941784  1
  In  In41  1  0.00196277  0.83872345  0.87980534  1
  In  In42  1  0.33620980  0.16580515  0.37602800  1
  In  In43  1  0.33529573  0.16164490  0.87254711  1
  In  In44  1  0.33817390  0.48381687  0.37848665  1
  In  In45  1  0.34797645  0.50451487  0.87353096  1
  In  In46  1  0.32968547  0.84882360  0.37011265  1
  In  In47  1  0.31731580  0.86018869  0.90399889  1
  In  In48  1  0.66642486  0.16158354  0.38580996  1
  In  In49  1  0.66597835  0.16596269  0.87537820  1
  In  In50  1  0.66317648  0.50827089  0.37088865  1
  In  In51  1  0.67339147  0.49485573  0.87857109  1
  In  In52  1  0.66340849  0.82921921  0.37719625  1
  In  In53  1  0.65143048  0.83881040  0.89071721  1
  In  In54  1  0.16181756  -0.00699749  0.11262268  1
  In  In55  1  0.16605326  0.00107657  0.63514220  1
  In  In56  1  0.17477777  0.32613550  0.12754701  1
  In  In57  1  0.16264852  0.34619703  0.62904055  1
  In  In58  1  0.14188513  0.67639446  0.12981744  1
  In  In59  1  0.16765415  0.65589499  0.62791645  1
  In  In60  1  0.49180858  0.00120114  0.11518110  1
  In  In61  1  0.49858809  -0.00147536  0.62924761  1
  In  In62  1  0.49761314  0.33187371  0.11948612  1
  In  In63  1  0.51565495  0.31911830  0.64189009  1
  In  In64  1  0.52227889  0.68309437  0.10856683  1
  In  In65  1  0.49957477  0.67320776  0.61941146  1
  In  In66  1  0.83171716  -0.00102533  0.11752454  1
  In  In67  1  0.81879217  0.01330186  0.64432630  1
  In  In68  1  0.82804344  0.33062779  0.11825492  1
  In  In69  1  0.84116524  0.30731304  0.62712015  1
  In  In70  1  0.83614682  0.67441198  0.11156069  1
  In  In71  1  0.83480276  0.68369713  0.62938228  1
  In  In72  1  0.33867855  0.32687085  0.25196111  1
  In  In73  1  0.00600391  0.32948337  0.24851183  1
  In  In74  1  -0.00291581  0.32641846  0.75332895  1
  In  In75  1  0.16727543  0.49781535  0.00843988  1
  In  In76  1  0.16623228  0.83242656  0.49348537  1
  In  In77  1  0.16568837  0.17096863  0.50608776  1
  In  In78  1  0.65926231  0.33609204  0.25706671  1
  In  In79  1  0.49753425  0.49511573  0.50115490  1
  In  In80  1  0.67568619  -0.01013207  0.24217646  1
  In  In81  1  0.66798488  0.66860746  0.75694468  1
  In  In82  1  0.82525686  0.83978461  0.49553888  1
  In  In83  1  0.33519553  0.67377157  0.75293992  1
  In  In84  1  0.32892212  0.66751741  0.24384974  1
  In  In85  1  0.83743364  0.49735225  0.49644564  1
  Cu  Cu86  1  0.51471710  0.50807275  0.24100910  1
  Cu  Cu87  1  0.50464488  0.16095365  0.75528658  1
  Cu  Cu88  1  0.66778014  0.00534369  -0.00151911  1
  Cu  Cu89  1  0.33324497  0.00134133  0.50102555  1
  Cu  Cu90  1  0.16670978  0.83970649  0.75974963  1
  Cu  Cu91  1  0.49932411  0.83903304  0.75716437  1
  Cu  Cu92  1  0.00238884  0.66567241  0.50033564  1
  Cu  Cu93  1  0.50126329  0.49866230  0.75396838  1
  Cu  Cu94  1  -0.00017799  0.66623898  -0.00336343  1
  Cu  Cu95  1  0.16889602  0.15900061  0.75643484  1
  Cu  Cu96  1  0.16364367  0.84020608  0.24135001  1
  Cu  Cu97  1  0.16306485  0.50330336  0.75167739  1
  Cu  Cu98  1  0.83204669  0.50069922  0.75552103  1
  Cu  Cu99  1  0.33883729  0.33320937  -0.00904264  1
  Cu  Cu100  1  0.48686456  0.15908981  0.24862774  1
  Cu  Cu101  1  0.33442359  0.66444175  0.00641513  1
  Cu  Cu102  1  0.16385147  0.50334540  0.25793522  1
  Cu  Cu103  1  0.67132129  0.32675328  0.50657324  1
  Cu  Cu104  1  0.49969668  0.83609240  0.23621617  1
  Cu  Cu105  1  0.83610829  0.16215653  0.75802056  1
  Cu  Cu106  1  -0.00483240  0.33768546  0.00037500  1
  Cu  Cu107  1  0.16425184  0.15145413  0.23611692  1
  Cu  Cu108  1  -0.01135537  0.00032179  0.49940027  1
  Cu  Cu109  1  0.83604718  0.51441136  0.23999084  1
  Cu  Cu110  1  0.33398155  0.33425009  0.50881360  1
  Cu  Cu111  1  0.83628203  0.83811892  0.75861381  1
  Cu  Cu112  1  0.33551966  0.66037942  0.49916093  1
  Cu  Cu113  1  0.83517551  0.16284060  0.24209642  1
  Cu  Cu114  1  0.65995104  0.33082085  -0.00456300  1
  Se  Se115  1  0.10678499  0.10393122  0.04996052  1
  Se  Se116  1  0.07551686  0.07257559  0.56005354  1
  Se  Se117  1  0.07265672  0.40998146  0.06777750  1
  Se  Se118  1  0.08168588  0.41241766  0.55324344  1
  Se  Se119  1  0.08555690  0.75138307  0.04538808  1
  Se  Se120  1  0.07914908  0.74815125  0.56119163  1
  Se  Se121  1  0.43370049  0.10053189  0.04663947  1
  Se  Se122  1  0.41545363  0.08168985  0.55768657  1
  Se  Se123  1  0.41651238  0.41609008  0.04875084  1
  Se  Se124  1  0.41721409  0.40952102  0.57050401  1
  Se  Se125  1  0.41796192  0.75432417  0.05228812  1
  Se  Se126  1  0.41189998  0.74886029  0.55187126  1
  Se  Se127  1  0.75069163  0.08833696  0.05225967  1
  Se  Se128  1  0.75952819  0.08581703  0.56200844  1
  Se  Se129  1  0.74813782  0.41099329  0.04766610  1
  Se  Se130  1  0.74965764  0.41117679  0.56347918  1
  Se  Se131  1  0.73667804  0.74165650  0.04442548  1
  Se  Se132  1  0.74076971  0.74386883  0.55560611  1
  Se  Se133  1  0.25079012  0.26115771  0.04817005  1
  Se  Se134  1  0.25806453  0.25163912  0.57038036  1
  Se  Se135  1  0.25143913  0.59247304  0.06977866  1
  Se  Se136  1  0.24967115  0.58332841  0.55329935  1
  Se  Se137  1  0.25168461  0.92180189  0.04002954  1
  Se  Se138  1  0.25084719  0.92048350  0.55879262  1
  Se  Se139  1  0.57764461  0.24901293  0.04978307  1
  Se  Se140  1  0.58506176  0.24862617  0.56086744  1
  Se  Se141  1  0.55656988  0.55762582  0.05837358  1
  Se  Se142  1  0.59136362  0.59023163  0.55328863  1
  Se  Se143  1  0.59003059  0.92137743  0.05731075  1
  Se  Se144  1  0.56754837  0.90392273  0.56097270  1
  Se  Se145  1  0.91084754  0.25021748  0.04904602  1
  Se  Se146  1  0.93384879  0.25815398  0.55170987  1
  Se  Se147  1  0.91672713  0.57929644  0.04695017  1
  Se  Se148  1  0.92006516  0.59096303  0.56257553  1
  Se  Se149  1  0.92688185  0.93921359  0.04333950  1
  Se  Se150  1  0.91632156  0.91928723  0.56289409  1
  Se  Se151  1  0.07973510  0.25098317  0.43677166  1
  Se  Se152  1  0.08149512  0.25677279  0.94863849  1
  Se  Se153  1  0.08357502  0.58161662  0.44707521  1
  Se  Se154  1  0.08263549  0.58231401  0.93970903  1
  Se  Se155  1  0.06766911  0.91998991  0.43900162  1
  Se  Se156  1  0.09769299  0.90567184  0.94706175  1
  Se  Se157  1  0.40920931  0.25004252  0.44974624  1
  Se  Se158  1  0.41973537  0.24869520  0.93832074  1
  Se  Se159  1  0.41688957  0.58831632  0.43439494  1
  Se  Se160  1  0.41601853  0.58452090  0.94991107  1
  Se  Se161  1  0.41260627  0.91638386  0.44537530  1
  Se  Se162  1  0.44609176  0.89557409  0.94709086  1
  Se  Se163  1  0.75295637  0.24827456  0.44839791  1
  Se  Se164  1  0.74884452  0.24798837  0.94583313  1
  Se  Se165  1  0.74439744  0.59089209  0.44237363  1
  Se  Se166  1  0.74758437  0.57913774  0.94969932  1
  Se  Se167  1  0.73267971  0.93396802  0.44314541  1
  Se  Se168  1  0.74981251  0.91711763  0.94952597  1
  Se  Se169  1  0.24515775  0.07368030  0.44081832  1
  Se  Se170  1  0.25117850  0.09015412  0.94671778  1
  Se  Se171  1  0.25306001  0.41691632  0.45355007  1
  Se  Se172  1  0.25247735  0.41755899  0.93770165  1
  Se  Se173  1  0.25891199  0.74099432  0.43525026  1
  Se  Se174  1  0.25028856  0.74615953  0.95344674  1
  Se  Se175  1  0.56356860  0.09825461  0.44531693  1
  Se  Se176  1  0.58213700  0.08648982  0.94580784  1
  Se  Se177  1  0.59451827  0.40615927  0.44084820  1
  Se  Se178  1  0.57944114  0.41403629  0.93955911  1
  Se  Se179  1  0.57491085  0.75690986  0.44669425  1
  Se  Se180  1  0.61088705  0.72684885  0.95756375  1
  Se  Se181  1  0.91193810  0.08623349  0.44491804  1
  Se  Se182  1  0.92723170  0.06394696  0.95835382  1
  Se  Se183  1  0.92722247  0.40638447  0.43758257  1
  Se  Se184  1  0.90998371  0.41911860  0.94859341  1
  Se  Se185  1  0.92355203  0.74688784  0.44107248  1
  Se  Se186  1  0.91654647  0.74977367  0.94428607  1
  Se  Se187  1  0.23656956  0.23427611  0.30169778  1
  Se  Se188  1  0.25354091  0.24747271  0.80157853  1
  Se  Se189  1  0.25091702  0.57777025  0.31537314  1
  Se  Se190  1  0.24257055  0.58222870  0.81248308  1
  Se  Se191  1  0.24885252  0.92003887  0.29520748  1
  Se  Se192  1  0.25619965  0.91576537  0.81271649  1
  Se  Se193  1  0.56929443  0.23640202  0.30903009  1
  Se  Se194  1  0.58896099  0.24889500  0.80181740  1
  Se  Se195  1  0.59444075  0.59153636  0.29596517  1
  Se  Se196  1  0.57294119  0.58332111  0.81553635  1
  Se  Se197  1  0.57433953  0.91510529  0.30390016  1
  Se  Se198  1  0.58904417  0.91604720  0.80899787  1
  Se  Se199  1  0.90860291  0.24370661  0.30648547  1
  Se  Se200  1  0.91799186  0.23743831  0.82087661  1
  Se  Se201  1  0.91698110  0.59175290  0.30043123  1
  Se  Se202  1  0.91404580  0.58885559  0.80288620  1
  Se  Se203  1  0.91313212  0.92679382  0.29834802  1
  Se  Se204  1  0.91822808  0.92191363  0.81118602  1
  Se  Se205  1  0.07826174  0.07717585  0.29496542  1
  Se  Se206  1  0.08263261  0.08084736  0.81088596  1
  Se  Se207  1  0.08959391  0.41724210  0.31620717  1
  Se  Se208  1  0.08556227  0.42180225  0.81360054  1
  Se  Se209  1  0.08632688  0.75578702  0.29926223  1
  Se  Se210  1  0.07971694  0.75384520  0.80470331  1
  Se  Se211  1  0.40605355  0.07816451  0.30441835  1
  Se  Se212  1  0.41966917  0.07688345  0.80586078  1
  Se  Se213  1  0.43599873  0.42667383  0.30132277  1
  Se  Se214  1  0.41285632  0.41570631  0.80093805  1
  Se  Se215  1  0.42024135  0.75877817  0.30219497  1
  Se  Se216  1  0.42097039  0.75899680  0.81755348  1
  Se  Se217  1  0.75131712  0.09070054  0.30635613  1
  Se  Se218  1  0.75119553  0.07946600  0.80999263  1
  Se  Se219  1  0.76246394  0.43162670  0.30336303  1
  Se  Se220  1  0.74889653  0.41444248  0.80382614  1
  Se  Se221  1  0.75441178  0.76698310  0.30639095  1
  Se  Se222  1  0.75336558  0.75893660  0.81809662  1
  Se  Se223  1  0.25191990  0.07643013  0.18058519  1
  Se  Se224  1  0.25342463  0.07563809  0.70373729  1
  Se  Se225  1  0.24323476  0.42475457  0.19927845  1
  Se  Se226  1  0.24818175  0.41907342  0.70158249  1
  Se  Se227  1  0.24715414  0.76184168  0.18210017  1
  Se  Se228  1  0.24183771  0.76123291  0.69152840  1
  Se  Se229  1  0.57963876  0.08706695  0.19226930  1
  Se  Se230  1  0.58532010  0.08019585  0.69645941  1
  Se  Se231  1  0.58807767  0.42045534  0.18332668  1
  Se  Se232  1  0.58965058  0.41758575  0.70420857  1
  Se  Se233  1  0.58877640  0.75110371  0.19276509  1
  Se  Se234  1  0.57546666  0.75525291  0.69569247  1
  Se  Se235  1  0.91545536  0.08128151  0.18782085  1
  Se  Se236  1  0.92289477  0.08025796  0.70567767  1
  Se  Se237  1  0.91124798  0.41947926  0.18975800  1
  Se  Se238  1  0.90945504  0.41952761  0.69162521  1
  Se  Se239  1  0.93779258  0.73873755  0.17507921  1
  Se  Se240  1  0.91656688  0.75194183  0.70439985  1
  Se  Se241  1  0.08145948  0.23608595  0.18294917  1
  Se  Se242  1  0.09015961  0.23871764  0.69219300  1
  Se  Se243  1  0.08131701  0.58499404  0.20450782  1
  Se  Se244  1  0.07903839  0.58617808  0.69950234  1
  Se  Se245  1  0.07933022  0.91690738  0.18453072  1
  Se  Se246  1  0.08295639  0.91903694  0.70232327  1
  Se  Se247  1  0.41541527  0.23950853  0.18488250  1
  Se  Se248  1  0.41780084  0.24718188  0.70481390  1
  Se  Se249  1  0.42466954  0.58295992  0.18604961  1
  Se  Se250  1  0.42478504  0.58003447  0.69189226  1
  Se  Se251  1  0.41520117  0.92357786  0.19090712  1
  Se  Se252  1  0.41380298  0.91841910  0.70178093  1
  Se  Se253  1  0.74825193  0.24627014  0.19307806  1
  Se  Se254  1  0.75432732  0.24514885  0.70188721  1
  Se  Se255  1  0.75276606  0.59215357  0.18405814  1
  Se  Se256  1  0.75491220  0.57943506  0.69081721  1
  Se  Se257  1  0.77077871  0.89886835  0.18971549  1
  Se  Se258  1  0.74610283  0.91197966  0.70388903  1
