# generated using pymatgen
data_In86Cu29Se144
_symmetry_space_group_name_H-M   'P 1'
_cell_length_a   17.53333832
_cell_length_b   17.53764694
_cell_length_c   23.38581017
_cell_angle_alpha   90.01502081
_cell_angle_beta   89.99131656
_cell_angle_gamma   90.01660442
_symmetry_Int_Tables_number   1
_chemical_formula_structural   In86Cu29Se144
_chemical_formula_sum   'In86 Cu29 Se144'
_cell_volume   7190.98392178
_cell_formula_units_Z   1
loop_
 _symmetry_equiv_pos_site_id
 _symmetry_equiv_pos_as_xyz
  1  'x, y, z'
loop_
 _atom_site_type_symbol
 _atom_site_label
 _atom_site_symmetry_multiplicity
 _atom_site_fract_x
 _atom_site_fract_y
 _atom_site_fract_z
 _atom_site_occupancy
  In  In0  1  0.00122155  0.18869718  0.12175974  1
  In  In1  1  -0.00004442  0.16717711  0.61865984  1
  In  In2  1  0.00788580  0.47991350  0.12551167  1
  In  In3  1  0.01153094  0.50626605  0.61592907  1
  In  In4  1  0.00841157  0.81929195  0.12806109  1
  In  In5  1  -0.00632135  0.82371511  0.61616019  1
  In  In6  1  0.34304604  0.15310425  0.13638537  1
  In  In7  1  0.33327516  0.16253014  0.61478997  1
  In  In8  1  0.31997506  0.51018911  0.13243535  1
  In  In9  1  0.33554660  0.51889590  0.62036543  1
  In  In10  1  0.33527527  0.83209290  0.13279437  1
  In  In11  1  0.32265956  0.82594740  0.61384584  1
  In  In12  1  0.67362883  0.17172782  0.12605801  1
  In  In13  1  0.66297001  0.16818892  0.59698517  1
  In  In14  1  0.65681469  0.50893241  0.14092483  1
  In  In15  1  0.69051058  0.50963173  0.60617338  1
  In  In16  1  0.64505099  0.83837477  0.13774443  1
  In  In17  1  0.64427660  0.81139807  0.59431686  1
  In  In18  1  0.18649959  -0.01232386  0.37712983  1
  In  In19  1  0.15273768  -0.00566760  0.87557519  1
  In  In20  1  0.16346427  0.33681135  0.37326253  1
  In  In21  1  0.17756019  0.33206771  0.87996252  1
  In  In22  1  0.16939369  0.66701070  0.37673224  1
  In  In23  1  0.17031365  0.66704660  0.87330816  1
  In  In24  1  0.49765372  -0.00011878  0.37900331  1
  In  In25  1  0.49554611  0.00263131  0.88351116  1
  In  In26  1  0.49224713  0.32234148  0.36606934  1
  In  In27  1  0.49049852  0.32864208  0.88472246  1
  In  In28  1  0.50240936  0.68528340  0.35906723  1
  In  In29  1  0.50628600  0.67850606  0.86966547  1
  In  In30  1  0.81478007  0.00272477  0.39428022  1
  In  In31  1  0.84194753  0.00832899  0.87751341  1
  In  In32  1  0.82919815  0.33349960  0.37642766  1
  In  In33  1  0.82582891  0.33212286  0.87877274  1
  In  In34  1  0.81159083  0.67385539  0.39867703  1
  In  In35  1  0.83234882  0.66251334  0.86499938  1
  In  In36  1  -0.00889279  0.17967054  0.37756863  1
  In  In37  1  -0.00333901  0.15357688  0.87631642  1
  In  In38  1  0.00279069  0.49302163  0.38002240  1
  In  In39  1  -0.00321207  0.51101924  0.87251834  1
  In  In40  1  0.00526420  0.83093326  0.37996990  1
  In  In41  1  0.01148135  0.83273195  0.87742499  1
  In  In42  1  0.33105504  0.16507429  0.37301456  1
  In  In43  1  0.33795700  0.17728505  0.87897237  1
  In  In44  1  0.32630964  0.49352146  0.36879192  1
  In  In45  1  0.32217295  0.49931339  0.87820904  1
  In  In46  1  0.33506804  0.83307331  0.36650352  1
  In  In47  1  0.34269075  0.82808653  0.88003299  1
  In  In48  1  0.64928958  0.17781961  0.39518019  1
  In  In49  1  0.66648308  0.16856714  0.88061572  1
  In  In50  1  0.67579235  0.50828111  0.37975434  1
  In  In51  1  0.66049656  0.50901524  0.87388461  1
  In  In52  1  0.65866926  0.83064636  0.38838848  1
  In  In53  1  0.66552086  0.82288461  0.87465526  1
  In  In54  1  0.18352183  -0.00495373  0.13477160  1
  In  In55  1  0.16975365  0.00549513  0.61673668  1
  In  In56  1  0.15497324  0.34048866  0.13410514  1
  In  In57  1  0.16174703  0.32872487  0.61563203  1
  In  In58  1  0.18489626  0.67829487  0.12063894  1
  In  In59  1  0.16778569  0.66604219  0.62078455  1
  In  In60  1  0.48318041  -0.01461582  0.12170795  1
  In  In61  1  0.50603319  0.00077733  0.60634500  1
  In  In62  1  0.51106826  0.32527212  0.13795925  1
  In  In63  1  0.51094293  0.32797006  0.61401047  1
  In  In64  1  0.47919216  0.68899545  0.15147010  1
  In  In65  1  0.48779005  0.67568123  0.62700581  1
  In  In66  1  0.81617849  0.00852979  0.13016339  1
  In  In67  1  0.82162456  -0.00638178  0.60529275  1
  In  In68  1  0.84391655  0.32784578  0.13790597  1
  In  In69  1  0.82266664  0.33170830  0.60607959  1
  In  In70  1  0.83093847  0.66005210  0.13191597  1
  In  In71  1  0.83397645  0.66930666  0.61910540  1
  In  In72  1  0.66691533  -0.00729418  0.73262801  1
  In  In73  1  0.00359324  0.65880342  0.26155733  1
  In  In74  1  0.33287016  0.34192530  0.75549478  1
  In  In75  1  0.49865742  0.49944353  0.00542683  1
  In  In76  1  0.17141277  0.16136180  0.00285912  1
  In  In77  1  0.83981820  0.49404118  0.00364821  1
  In  In78  1  0.49485328  0.50104815  0.49271546  1
  In  In79  1  0.66627377  0.34470639  0.73440681  1
  In  In80  1  -0.00074553  -0.00888826  0.75174985  1
  In  In81  1  0.83146523  0.84017145  -0.00336193  1
  In  In82  1  0.66015492  0.00097956  0.26276997  1
  In  In83  1  0.00301001  0.00288282  0.25386024  1
  In  In84  1  0.33149796  -0.00565299  0.73881711  1
  In  In85  1  -0.00040053  0.33923708  0.74017655  1
  Cu  Cu86  1  0.33471750  0.67085376  0.00628223  1
  Cu  Cu87  1  0.83550453  0.16423334  0.74382338  1
  Cu  Cu88  1  0.66125046  0.67367460  0.00594713  1
  Cu  Cu89  1  0.16263447  0.50049460  0.25006193  1
  Cu  Cu90  1  0.16698883  0.82505057  0.74783829  1
  Cu  Cu91  1  0.00175346  0.66324361  0.49799627  1
  Cu  Cu92  1  0.83058253  0.50382248  0.25720381  1
  Cu  Cu93  1  0.16740683  0.50622416  0.74718739  1
  Cu  Cu94  1  0.83239903  0.17641478  0.25468909  1
  Cu  Cu95  1  0.33144009  0.67383074  0.49413161  1
  Cu  Cu96  1  -0.00141885  0.00052928  0.00562005  1
  Cu  Cu97  1  0.65780735  0.00943765  0.00813864  1
  Cu  Cu98  1  0.33321425  -0.00005015  0.49311366  1
  Cu  Cu99  1  0.50276869  0.15832293  0.25322752  1
  Cu  Cu100  1  0.50165652  0.49323630  0.26013763  1
  Cu  Cu101  1  0.50368081  0.83100322  0.74460375  1
  Cu  Cu102  1  0.82971193  0.82809983  0.27008697  1
  Cu  Cu103  1  0.33073831  0.33056260  0.49017697  1
  Cu  Cu104  1  0.33529066  0.32954935  0.01124462  1
  Cu  Cu105  1  0.16727619  0.17112957  0.25429314  1
  Cu  Cu106  1  0.01553461  0.66448431  -0.00002258  1
  Cu  Cu107  1  0.83021294  0.82261699  0.74084725  1
  Cu  Cu108  1  0.50527646  0.51805219  0.74775510  1
  Cu  Cu109  1  0.33391530  -0.00776897  0.00508492  1
  Cu  Cu110  1  0.50133515  0.17061163  0.74860452  1
  Cu  Cu111  1  0.00009275  0.33680707  0.49631520  1
  Cu  Cu112  1  0.67306917  0.32800975  0.01094540  1
  Cu  Cu113  1  0.83492635  0.50944996  0.73968135  1
  Cu  Cu114  1  0.01298570  0.00383124  0.49249133  1
  Se  Se115  1  0.08135420  0.07626166  0.06855080  1
  Se  Se116  1  0.08850477  0.09113317  0.54982486  1
  Se  Se117  1  0.08485035  0.40616742  0.05049501  1
  Se  Se118  1  0.08843327  0.41876710  0.54746845  1
  Se  Se119  1  0.09295475  0.75421196  0.05219524  1
  Se  Se120  1  0.08726571  0.74931087  0.55003203  1
  Se  Se121  1  0.41439186  0.08276338  0.05435004  1
  Se  Se122  1  0.41769382  0.08597449  0.54478597  1
  Se  Se123  1  0.41355433  0.41137485  0.07067443  1
  Se  Se124  1  0.40535709  0.41037504  0.55702988  1
  Se  Se125  1  0.42041424  0.75079024  0.06137328  1
  Se  Se126  1  0.41916798  0.75464355  0.54780068  1
  Se  Se127  1  0.75196438  0.08950381  0.05195677  1
  Se  Se128  1  0.76628405  0.09848824  0.53967468  1
  Se  Se129  1  0.74346124  0.41868954  0.06936069  1
  Se  Se130  1  0.72354940  0.39720697  0.54163047  1
  Se  Se131  1  0.74641290  0.75297765  0.06447033  1
  Se  Se132  1  0.76749693  0.76243934  0.54662496  1
  Se  Se133  1  0.25413963  0.24830054  0.07017936  1
  Se  Se134  1  0.25042418  0.24913695  0.54950346  1
  Se  Se135  1  0.24926105  0.58078835  0.05050222  1
  Se  Se136  1  0.24974241  0.58568790  0.54665781  1
  Se  Se137  1  0.25086233  0.91107189  0.05938443  1
  Se  Se138  1  0.24804230  0.91906879  0.54893840  1
  Se  Se139  1  0.58105316  0.24806880  0.05840415  1
  Se  Se140  1  0.57086667  0.24717131  0.53493795  1
  Se  Se141  1  0.58152797  0.59407715  0.06620904  1
  Se  Se142  1  0.57849261  0.58919634  0.55875578  1
  Se  Se143  1  0.58179629  0.91422848  0.05555990  1
  Se  Se144  1  0.60064564  0.93289609  0.53971778  1
  Se  Se145  1  0.90959644  0.25721629  0.05454461  1
  Se  Se146  1  0.91974092  0.25005067  0.54969032  1
  Se  Se147  1  0.92957530  0.59094294  0.06167763  1
  Se  Se148  1  0.91639051  0.58098276  0.55194971  1
  Se  Se149  1  0.91901754  0.92154685  0.06845108  1
  Se  Se150  1  0.92892964  0.92326556  0.54995571  1
  Se  Se151  1  0.08508634  0.25220843  0.44500263  1
  Se  Se152  1  0.08049032  0.24757135  0.94033316  1
  Se  Se153  1  0.08649405  0.58169398  0.44417059  1
  Se  Se154  1  0.08991870  0.57845660  0.94200031  1
  Se  Se155  1  0.09339768  0.91331857  0.44449374  1
  Se  Se156  1  0.08237685  0.91621140  0.95286370  1
  Se  Se157  1  0.41729345  0.24546047  0.44316010  1
  Se  Se158  1  0.41772361  0.24490416  0.95776376  1
  Se  Se159  1  0.40890706  0.59363871  0.43170406  1
  Se  Se160  1  0.41346358  0.59096629  0.94168232  1
  Se  Se161  1  0.41384336  0.91098325  0.44292058  1
  Se  Se162  1  0.42069154  0.91236211  0.95062746  1
  Se  Se163  1  0.76764868  0.23322697  0.44534538  1
  Se  Se164  1  0.75296414  0.24692731  0.95033162  1
  Se  Se165  1  0.74763940  0.57312311  0.46310246  1
  Se  Se166  1  0.74533403  0.59217040  0.94732958  1
  Se  Se167  1  0.76186084  0.89169162  0.45517543  1
  Se  Se168  1  0.73582282  0.93280733  0.93919458  1
  Se  Se169  1  0.24748113  0.08759004  0.44615366  1
  Se  Se170  1  0.25873026  0.07013689  0.93749279  1
  Se  Se171  1  0.24671816  0.41958036  0.44456889  1
  Se  Se172  1  0.25592574  0.41143377  0.95270072  1
  Se  Se173  1  0.24866672  0.75881143  0.44116009  1
  Se  Se174  1  0.25200467  0.74956862  0.94531715  1
  Se  Se175  1  0.60090135  0.05672133  0.44707218  1
  Se  Se176  1  0.57761587  0.09166246  0.94814166  1
  Se  Se177  1  0.58111413  0.40986981  0.43290917  1
  Se  Se178  1  0.59544877  0.40848624  0.94638070  1
  Se  Se179  1  0.57283983  0.73952442  0.44814204  1
  Se  Se180  1  0.57923205  0.75434608  0.94874051  1
  Se  Se181  1  0.92164092  0.08215487  0.44352590  1
  Se  Se182  1  0.91555035  0.08601809  0.95399745  1
  Se  Se183  1  0.91084705  0.41858795  0.44714169  1
  Se  Se184  1  0.92944706  0.40688099  0.93977764  1
  Se  Se185  1  0.92046593  0.75112665  0.44842332  1
  Se  Se186  1  0.92195267  0.73886957  0.94272041  1
  Se  Se187  1  0.25229240  0.25586395  0.30587472  1
  Se  Se188  1  0.24202421  0.23892070  0.80454601  1
  Se  Se189  1  0.24475243  0.58317053  0.30368235  1
  Se  Se190  1  0.25427014  0.58357530  0.80317961  1
  Se  Se191  1  0.26229794  0.92563410  0.29657941  1
  Se  Se192  1  0.24369165  0.91041823  0.80725127  1
  Se  Se193  1  0.58849156  0.24022690  0.30551377  1
  Se  Se194  1  0.58055832  0.25557314  0.80643558  1
  Se  Se195  1  0.58455425  0.58056708  0.30914108  1
  Se  Se196  1  0.59254913  0.59621959  0.80152827  1
  Se  Se197  1  0.57103813  0.90047068  0.30985040  1
  Se  Se198  1  0.57640009  0.91769289  0.80556844  1
  Se  Se199  1  0.91943153  0.26141954  0.30257012  1
  Se  Se200  1  0.91208997  0.24565601  0.80495973  1
  Se  Se201  1  0.90306515  0.58428953  0.32231399  1
  Se  Se202  1  0.92060111  0.58551585  0.79655398  1
  Se  Se203  1  0.90830732  0.92011473  0.31825572  1
  Se  Se204  1  0.90235614  0.90123946  0.80883829  1
  Se  Se205  1  0.09060558  0.08983045  0.31705349  1
  Se  Se206  1  0.09215967  0.09118392  0.80185266  1
  Se  Se207  1  0.07796266  0.41723191  0.30237382  1
  Se  Se208  1  0.09332878  0.41921477  0.80734751  1
  Se  Se209  1  0.09535440  0.76178774  0.30412115  1
  Se  Se210  1  0.08140661  0.74731608  0.80420166  1
  Se  Se211  1  0.41711831  0.07920835  0.30685631  1
  Se  Se212  1  0.41885095  0.08824250  0.80465607  1
  Se  Se213  1  0.40868838  0.40850842  0.30107586  1
  Se  Se214  1  0.43275259  0.43149811  0.81103653  1
  Se  Se215  1  0.39152421  0.73271352  0.29324461  1
  Se  Se216  1  0.41646186  0.75422214  0.80089693  1
  Se  Se217  1  0.75436261  0.09381967  0.31511718  1
  Se  Se218  1  0.75122590  0.08396564  0.80272239  1
  Se  Se219  1  0.74634330  0.41780129  0.30798623  1
  Se  Se220  1  0.75885904  0.42811039  0.80485645  1
  Se  Se221  1  0.74188647  0.74686463  0.31737913  1
  Se  Se222  1  0.74500170  0.74726100  0.80094763  1
  Se  Se223  1  0.25172195  0.08270547  0.20724508  1
  Se  Se224  1  0.24205904  0.09602790  0.69217998  1
  Se  Se225  1  0.24831072  0.41535797  0.19960707  1
  Se  Se226  1  0.24487610  0.42303940  0.68667376  1
  Se  Se227  1  0.26324393  0.73730509  0.20239900  1
  Se  Se228  1  0.25315986  0.74727177  0.69188670  1
  Se  Se229  1  0.57956586  0.08014460  0.18752830  1
  Se  Se230  1  0.57825770  0.09541029  0.68228130  1
  Se  Se231  1  0.58904352  0.41142314  0.20712074  1
  Se  Se232  1  0.57374181  0.43614054  0.67976211  1
  Se  Se233  1  0.60005331  0.73255503  0.20477006  1
  Se  Se234  1  0.58801117  0.75311981  0.68739538  1
  Se  Se235  1  0.91036985  0.09258483  0.19343435  1
  Se  Se236  1  0.91063050  0.07673691  0.68598795  1
  Se  Se237  1  0.91734941  0.42445517  0.20264033  1
  Se  Se238  1  0.90453910  0.42118714  0.67905780  1
  Se  Se239  1  0.91002785  0.75481281  0.20222983  1
  Se  Se240  1  0.92176317  0.74372948  0.69249104  1
  Se  Se241  1  0.07829047  0.25093643  0.20322526  1
  Se  Se242  1  0.09231205  0.24052010  0.69283534  1
  Se  Se243  1  0.08799469  0.58365502  0.18602489  1
  Se  Se244  1  0.08240105  0.58613010  0.69244236  1
  Se  Se245  1  0.09145121  0.90579679  0.19784930  1
  Se  Se246  1  0.09158312  0.90916291  0.68708871  1
  Se  Se247  1  0.41932894  0.24550992  0.20249250  1
  Se  Se248  1  0.42001894  0.25261265  0.68989239  1
  Se  Se249  1  0.41877115  0.57238430  0.20128182  1
  Se  Se250  1  0.41009850  0.59142186  0.69859712  1
  Se  Se251  1  0.41631207  0.91542097  0.20272234  1
  Se  Se252  1  0.42791204  0.91116155  0.68021580  1
  Se  Se253  1  0.74444915  0.25535200  0.20101122  1
  Se  Se254  1  0.75104368  0.23986718  0.68305546  1
  Se  Se255  1  0.74801553  0.58949821  0.20571069  1
  Se  Se256  1  0.74558142  0.58888657  0.68944769  1
  Se  Se257  1  0.75527562  0.90841522  0.20255936  1
  Se  Se258  1  0.75175358  0.89641644  0.67631359  1
