# generated using pymatgen
data_In86Cu29Se144
_symmetry_space_group_name_H-M   'P 1'
_cell_length_a   17.57130811
_cell_length_b   17.57286598
_cell_length_c   23.42996582
_cell_angle_alpha   90.00985909
_cell_angle_beta   89.98094406
_cell_angle_gamma   90.00596703
_symmetry_Int_Tables_number   1
_chemical_formula_structural   In86Cu29Se144
_chemical_formula_sum   'In86 Cu29 Se144'
_cell_volume   7234.66311838
_cell_formula_units_Z   1
loop_
 _symmetry_equiv_pos_site_id
 _symmetry_equiv_pos_as_xyz
  1  'x, y, z'
loop_
 _atom_site_type_symbol
 _atom_site_label
 _atom_site_symmetry_multiplicity
 _atom_site_fract_x
 _atom_site_fract_y
 _atom_site_fract_z
 _atom_site_occupancy
  In  In0  1  0.00712396  0.16039451  0.12821356  1
  In  In1  1  0.00211991  0.16926024  0.60876567  1
  In  In2  1  0.01635604  0.48588898  0.14889511  1
  In  In3  1  -0.00075887  0.49986642  0.62025292  1
  In  In4  1  -0.00493134  0.83563057  0.13077739  1
  In  In5  1  -0.00308018  0.82865285  0.60867722  1
  In  In6  1  0.33398701  0.16887707  0.13321923  1
  In  In7  1  0.33943834  0.17433589  0.61948776  1
  In  In8  1  0.31531907  0.50852963  0.14589496  1
  In  In9  1  0.33489933  0.47799981  0.62623274  1
  In  In10  1  0.33936766  0.82759653  0.12985549  1
  In  In11  1  0.33184227  0.84302316  0.61757020  1
  In  In12  1  0.65196168  0.17324770  0.13534865  1
  In  In13  1  0.66704877  0.15976461  0.63394684  1
  In  In14  1  0.66035110  0.48789529  0.12417242  1
  In  In15  1  0.65883960  0.51444768  0.63118409  1
  In  In16  1  0.67452479  0.84122372  0.12092703  1
  In  In17  1  0.67504936  0.82699163  0.63008827  1
  In  In18  1  0.16453625  0.00070975  0.36941387  1
  In  In19  1  0.18262233  0.00475406  0.88118934  1
  In  In20  1  0.15651034  0.32912964  0.36525746  1
  In  In21  1  0.17900267  0.32846376  0.88922447  1
  In  In22  1  0.17171293  0.66950691  0.36465189  1
  In  In23  1  0.14555383  0.65878781  0.88423479  1
  In  In24  1  0.50630527  0.01739563  0.35117815  1
  In  In25  1  0.50899768  -0.00729479  0.88626465  1
  In  In26  1  0.51225648  0.33341848  0.36458764  1
  In  In27  1  0.49616541  0.32875636  0.86916580  1
  In  In28  1  0.48504684  0.66906506  0.37687917  1
  In  In29  1  0.51415180  0.66421442  0.87728471  1
  In  In30  1  0.83512794  0.00180377  0.37565286  1
  In  In31  1  0.81360550  0.00307873  0.87862295  1
  In  In32  1  0.82411653  0.33217889  0.36390604  1
  In  In33  1  0.82159950  0.33848736  0.87833121  1
  In  In34  1  0.84534539  0.66292677  0.37493273  1
  In  In35  1  0.83346466  0.67340908  0.87869535  1
  In  In36  1  -0.00103792  0.16542159  0.37265472  1
  In  In37  1  0.00912666  0.17938404  0.88354456  1
  In  In38  1  -0.00231790  0.50042869  0.34018152  1
  In  In39  1  0.00735109  0.51436295  0.88620892  1
  In  In40  1  0.00073689  0.83868246  0.37246417  1
  In  In41  1  -0.01460467  0.81559437  0.88587112  1
  In  In42  1  0.33151074  0.15509899  0.36172087  1
  In  In43  1  0.32992766  0.18013684  0.88757074  1
  In  In44  1  0.33666686  0.50623769  0.36562151  1
  In  In45  1  0.33754268  0.48409453  0.88226451  1
  In  In46  1  0.32217918  0.82633820  0.36610556  1
  In  In47  1  0.33506923  0.85297375  0.88074649  1
  In  In48  1  0.67430497  0.17583606  0.36728056  1
  In  In49  1  0.64966204  0.15316219  0.86157935  1
  In  In50  1  0.67419760  0.48651879  0.37561094  1
  In  In51  1  0.66392887  0.49490094  0.86168401  1
  In  In52  1  0.66025090  0.84628177  0.38103060  1
  In  In53  1  0.66797871  0.83618704  0.88003619  1
  In  In54  1  0.15531199  0.01017488  0.13013231  1
  In  In55  1  0.16915614  -0.00146749  0.60748686  1
  In  In56  1  0.17087560  0.32994899  0.13379907  1
  In  In57  1  0.18045895  0.33055167  0.62242938  1
  In  In58  1  0.16645981  0.66127351  0.13482386  1
  In  In59  1  0.15376646  0.66468708  0.61913575  1
  In  In60  1  0.50335178  0.00088832  0.13047003  1
  In  In61  1  0.50976643  0.01560303  0.62643689  1
  In  In62  1  0.49821626  0.31949268  0.13878125  1
  In  In63  1  0.48882928  0.33304829  0.62706853  1
  In  In64  1  0.48449605  0.66924200  0.12326554  1
  In  In65  1  0.52539263  0.66800090  0.61655742  1
  In  In66  1  0.84030636  -0.00959561  0.13173895  1
  In  In67  1  0.82610923  -0.00800751  0.61595609  1
  In  In68  1  0.83429317  0.34051491  0.14171221  1
  In  In69  1  0.83768029  0.32498476  0.62029047  1
  In  In70  1  0.83687337  0.67434187  0.12515482  1
  In  In71  1  0.80693310  0.66996219  0.61482172  1
  In  In72  1  0.16908008  0.83619193  0.00927294  1
  In  In73  1  -0.00722808  0.33473197  0.74869477  1
  In  In74  1  0.16525529  0.50307338  0.48813253  1
  In  In75  1  0.34491912  0.01255069  0.74831570  1
  In  In76  1  -0.01494797  0.66015787  0.74964693  1
  In  In77  1  0.49439853  0.49635102  0.00587169  1
  In  In78  1  0.83839720  0.16159448  0.00651239  1
  In  In79  1  0.83948099  0.50507967  0.00291705  1
  In  In80  1  -0.00493934  -0.00147440  0.75038725  1
  In  In81  1  0.33698056  0.66198031  0.75519200  1
  In  In82  1  0.49910038  0.16749688  0.49793844  1
  In  In83  1  0.66898349  0.66375248  0.25042495  1
  In  In84  1  0.49384175  0.83707169  0.49395163  1
  In  In85  1  0.83499853  0.49920483  0.49408822  1
  Cu  Cu86  1  0.32920068  -0.00813259  0.48505659  1
  Cu  Cu87  1  0.16531336  0.83978277  0.24741241  1
  Cu  Cu88  1  0.49741073  0.82953684  0.25130849  1
  Cu  Cu89  1  0.66994355  0.00309211  0.50020921  1
  Cu  Cu90  1  0.51032888  0.83574012  0.75399552  1
  Cu  Cu91  1  0.16992483  0.48725864  0.75725440  1
  Cu  Cu92  1  -0.00170294  0.33517581  0.48657396  1
  Cu  Cu93  1  0.82435329  0.83199920  0.75010755  1
  Cu  Cu94  1  0.83654812  0.16294440  0.24998839  1
  Cu  Cu95  1  0.66820941  0.67400413  -0.00010482  1
  Cu  Cu96  1  0.33330531  0.33557224  0.01188959  1
  Cu  Cu97  1  0.50264929  0.49717045  0.24801094  1
  Cu  Cu98  1  0.49628886  0.49959361  0.74769977  1
  Cu  Cu99  1  0.17232936  0.17086446  0.75326663  1
  Cu  Cu100  1  0.16192544  0.16570566  0.25047651  1
  Cu  Cu101  1  0.01141480  0.33683504  0.01056221  1
  Cu  Cu102  1  0.34090525  0.01420676  0.00612585  1
  Cu  Cu103  1  0.66854768  0.33120649  0.49498510  1
  Cu  Cu104  1  0.66328817  0.00130332  0.00416567  1
  Cu  Cu105  1  0.32683800  0.67087658  0.00799416  1
  Cu  Cu106  1  0.82855798  0.16437434  0.74581127  1
  Cu  Cu107  1  0.00460265  0.67253421  0.49009657  1
  Cu  Cu108  1  -0.00024406  -0.00748282  0.00612245  1
  Cu  Cu109  1  0.83208203  0.83613960  0.25291202  1
  Cu  Cu110  1  0.33369740  0.32746853  0.49675484  1
  Cu  Cu111  1  0.00407209  0.00397051  0.49177704  1
  Cu  Cu112  1  0.33101863  0.66025874  0.49292397  1
  Cu  Cu113  1  0.66084804  0.32352935  0.00067588  1
  Cu  Cu114  1  0.16206746  0.82992009  0.74116188  1
  Se  Se115  1  0.08172883  0.08349360  0.05066295  1
  Se  Se116  1  0.08992037  0.08883836  0.54375590  1
  Se  Se117  1  0.09011673  0.41984553  0.06594546  1
  Se  Se118  1  0.07907485  0.40913572  0.55331281  1
  Se  Se119  1  0.07874779  0.74494067  0.06366529  1
  Se  Se120  1  0.09154393  0.75230222  0.54402212  1
  Se  Se121  1  0.42369110  0.09166859  0.06358772  1
  Se  Se122  1  0.40689618  0.06779091  0.55206148  1
  Se  Se123  1  0.40962922  0.41612031  0.07484107  1
  Se  Se124  1  0.41681214  0.41188480  0.54907805  1
  Se  Se125  1  0.41607826  0.75662681  0.04996695  1
  Se  Se126  1  0.41002651  0.73959606  0.55746639  1
  Se  Se127  1  0.74448981  0.07846841  0.06673901  1
  Se  Se128  1  0.74704486  0.08996148  0.55625476  1
  Se  Se129  1  0.74846632  0.40318521  0.05575187  1
  Se  Se130  1  0.74627951  0.41347103  0.55724984  1
  Se  Se131  1  0.75422688  0.75233723  0.05428456  1
  Se  Se132  1  0.74843928  0.76741133  0.54680539  1
  Se  Se133  1  0.25040972  0.24798578  0.06138082  1
  Se  Se134  1  0.24902687  0.24436649  0.54856502  1
  Se  Se135  1  0.25161771  0.58401845  0.06280418  1
  Se  Se136  1  0.25435971  0.58227204  0.55976652  1
  Se  Se137  1  0.25839274  0.92994125  0.06509343  1
  Se  Se138  1  0.24850911  0.90814073  0.54151580  1
  Se  Se139  1  0.57593464  0.24987466  0.05860459  1
  Se  Se140  1  0.58929578  0.25453823  0.55876010  1
  Se  Se141  1  0.58917134  0.59209942  0.05975943  1
  Se  Se142  1  0.58759189  0.57530525  0.54675942  1
  Se  Se143  1  0.58008934  0.91592896  0.05651767  1
  Se  Se144  1  0.58472412  0.92395429  0.55775244  1
  Se  Se145  1  0.92021393  0.26075801  0.06559922  1
  Se  Se146  1  0.91634177  0.25366712  0.54365497  1
  Se  Se147  1  0.92723042  0.57526317  0.07373560  1
  Se  Se148  1  0.92411689  0.59585467  0.55466294  1
  Se  Se149  1  0.91333754  0.91069572  0.05494137  1
  Se  Se150  1  0.91890442  0.92223384  0.54711226  1
  Se  Se151  1  0.08531813  0.24892775  0.44139416  1
  Se  Se152  1  0.09119647  0.24863376  0.95781072  1
  Se  Se153  1  0.06997556  0.58375963  0.42747494  1
  Se  Se154  1  0.08776452  0.57783151  0.96382100  1
  Se  Se155  1  0.08732806  0.91719131  0.44203006  1
  Se  Se156  1  0.07874581  0.91814449  0.93831768  1
  Se  Se157  1  0.41235091  0.25136330  0.43248539  1
  Se  Se158  1  0.42023557  0.26309475  0.95105460  1
  Se  Se159  1  0.41610840  0.57465093  0.44551277  1
  Se  Se160  1  0.40884802  0.59244345  0.94386831  1
  Se  Se161  1  0.41830041  0.92637315  0.42359662  1
  Se  Se162  1  0.41735192  0.92094317  0.95596956  1
  Se  Se163  1  0.75442927  0.25137503  0.44203253  1
  Se  Se164  1  0.74504572  0.24368994  0.94366217  1
  Se  Se165  1  0.74237376  0.59209311  0.44001870  1
  Se  Se166  1  0.73757988  0.58213470  0.94162456  1
  Se  Se167  1  0.75256976  0.91924794  0.44754103  1
  Se  Se168  1  0.74978310  0.91693564  0.95335289  1
  Se  Se169  1  0.25050838  0.08444567  0.43805327  1
  Se  Se170  1  0.24997665  0.09068340  0.95432271  1
  Se  Se171  1  0.25584044  0.40807616  0.43528682  1
  Se  Se172  1  0.25151341  0.42079503  0.95815699  1
  Se  Se173  1  0.24921582  0.74538161  0.44200521  1
  Se  Se174  1  0.25241928  0.74772821  0.93891901  1
  Se  Se175  1  0.58780051  0.07774346  0.43746575  1
  Se  Se176  1  0.58609038  0.08959178  0.94928575  1
  Se  Se177  1  0.58205713  0.41254600  0.44335327  1
  Se  Se178  1  0.58940973  0.41609448  0.94334468  1
  Se  Se179  1  0.58588468  0.74206980  0.44230900  1
  Se  Se180  1  0.58064942  0.75436264  0.94834962  1
  Se  Se181  1  0.91545907  0.08747301  0.44481089  1
  Se  Se182  1  0.92585413  0.07323949  0.93893486  1
  Se  Se183  1  0.92659497  0.42042980  0.42610466  1
  Se  Se184  1  0.92757281  0.40563137  0.94491732  1
  Se  Se185  1  0.91607261  0.75584185  0.44275537  1
  Se  Se186  1  0.92272696  0.72405766  0.95661990  1
  Se  Se187  1  0.24775515  0.24804617  0.30180279  1
  Se  Se188  1  0.25100945  0.25313543  0.80989284  1
  Se  Se189  1  0.25097033  0.58380028  0.29869320  1
  Se  Se190  1  0.24072073  0.57742998  0.81648254  1
  Se  Se191  1  0.25166528  0.92132539  0.30016251  1
  Se  Se192  1  0.24349764  0.91378257  0.80008210  1
  Se  Se193  1  0.57866513  0.23751798  0.29816168  1
  Se  Se194  1  0.60847951  0.27595597  0.81123172  1
  Se  Se195  1  0.57652900  0.57825804  0.31257476  1
  Se  Se196  1  0.58006177  0.58491395  0.79929172  1
  Se  Se197  1  0.58502594  0.91212430  0.30037017  1
  Se  Se198  1  0.58831587  0.92095506  0.80924516  1
  Se  Se199  1  0.91765054  0.24956860  0.30330829  1
  Se  Se200  1  0.90819601  0.23874891  0.81110832  1
  Se  Se201  1  0.90290002  0.59018188  0.29125215  1
  Se  Se202  1  0.90501905  0.56767292  0.81401437  1
  Se  Se203  1  0.91670193  0.92089533  0.30419186  1
  Se  Se204  1  0.90928262  0.90628696  0.81364257  1
  Se  Se205  1  0.07743468  0.08059293  0.30182170  1
  Se  Se206  1  0.09119981  0.08910718  0.81080159  1
  Se  Se207  1  0.10898033  0.43024176  0.29225546  1
  Se  Se208  1  0.08341151  0.41488553  0.81749589  1
  Se  Se209  1  0.08374018  0.75614466  0.30322052  1
  Se  Se210  1  0.08293990  0.75372302  0.80624252  1
  Se  Se211  1  0.42064877  0.09587715  0.28451894  1
  Se  Se212  1  0.42106140  0.08982485  0.82298717  1
  Se  Se213  1  0.41936741  0.41539346  0.30267903  1
  Se  Se214  1  0.41406417  0.41727217  0.80297774  1
  Se  Se215  1  0.41204085  0.74546630  0.30059533  1
  Se  Se216  1  0.42219869  0.76225964  0.81349927  1
  Se  Se217  1  0.75212277  0.08129103  0.30456624  1
  Se  Se218  1  0.74749305  0.07843608  0.79841222  1
  Se  Se219  1  0.74719222  0.41961616  0.29617853  1
  Se  Se220  1  0.75499346  0.41459934  0.80064455  1
  Se  Se221  1  0.75011547  0.75812778  0.31386677  1
  Se  Se222  1  0.74744653  0.74966135  0.80951884  1
  Se  Se223  1  0.24657645  0.08230309  0.19784702  1
  Se  Se224  1  0.24098758  0.08712077  0.68680685  1
  Se  Se225  1  0.24599592  0.41103650  0.20911348  1
  Se  Se226  1  0.25130785  0.40693557  0.70105822  1
  Se  Se227  1  0.24920300  0.75307464  0.19741713  1
  Se  Se228  1  0.24759959  0.74995634  0.68740436  1
  Se  Se229  1  0.59531881  0.07011657  0.20036844  1
  Se  Se230  1  0.57162347  0.09583141  0.70365740  1
  Se  Se231  1  0.58578853  0.41084066  0.19853094  1
  Se  Se232  1  0.57809099  0.41810476  0.69065957  1
  Se  Se233  1  0.57940867  0.75244195  0.18825783  1
  Se  Se234  1  0.58611674  0.74891762  0.69749083  1
  Se  Se235  1  0.92045925  0.08052508  0.19578559  1
  Se  Se236  1  0.91537639  0.09061946  0.68478490  1
  Se  Se237  1  0.91711666  0.41552353  0.21169841  1
  Se  Se238  1  0.90685565  0.42844675  0.68919968  1
  Se  Se239  1  0.91381822  0.75143230  0.20025045  1
  Se  Se240  1  0.90857986  0.75817451  0.68624801  1
  Se  Se241  1  0.07752506  0.25020311  0.19833905  1
  Se  Se242  1  0.08670336  0.24347987  0.69008604  1
  Se  Se243  1  0.07638642  0.59575203  0.20706173  1
  Se  Se244  1  0.09122602  0.56985736  0.69671389  1
  Se  Se245  1  0.07773360  0.92125601  0.19693304  1
  Se  Se246  1  0.08539336  0.91316356  0.68285570  1
  Se  Se247  1  0.41709341  0.23952746  0.21002896  1
  Se  Se248  1  0.42036069  0.23856101  0.69532616  1
  Se  Se249  1  0.42009608  0.58616072  0.19966634  1
  Se  Se250  1  0.41950621  0.58050309  0.68430161  1
  Se  Se251  1  0.41710625  0.91554760  0.19744738  1
  Se  Se252  1  0.42814125  0.90968240  0.68994568  1
  Se  Se253  1  0.75040195  0.24659542  0.19898733  1
  Se  Se254  1  0.75194951  0.25377398  0.69291301  1
  Se  Se255  1  0.75180780  0.57502541  0.18538236  1
  Se  Se256  1  0.75787439  0.58468483  0.69413638  1
  Se  Se257  1  0.74726811  0.91627866  0.19905577  1
  Se  Se258  1  0.74916498  0.92217644  0.69566856  1
