# generated using pymatgen
data_In86Cu29Se144
_symmetry_space_group_name_H-M   'P 1'
_cell_length_a   17.58543965
_cell_length_b   17.59191322
_cell_length_c   23.45276515
_cell_angle_alpha   90.00077107
_cell_angle_beta   89.97663880
_cell_angle_gamma   89.99977191
_symmetry_Int_Tables_number   1
_chemical_formula_structural   In86Cu29Se144
_chemical_formula_sum   'In86 Cu29 Se144'
_cell_volume   7255.38266419
_cell_formula_units_Z   1
loop_
 _symmetry_equiv_pos_site_id
 _symmetry_equiv_pos_as_xyz
  1  'x, y, z'
loop_
 _atom_site_type_symbol
 _atom_site_label
 _atom_site_symmetry_multiplicity
 _atom_site_fract_x
 _atom_site_fract_y
 _atom_site_fract_z
 _atom_site_occupancy
  In  In0  1  -0.00156515  0.16658117  0.13002151  1
  In  In1  1  0.01914333  0.17772703  0.62871132  1
  In  In2  1  0.00131074  0.49929033  0.12412710  1
  In  In3  1  0.00693879  0.49815308  0.63022926  1
  In  In4  1  0.00930859  0.83803862  0.11877475  1
  In  In5  1  0.00131939  0.81487300  0.62711395  1
  In  In6  1  0.32733348  0.17056206  0.13245146  1
  In  In7  1  0.32373147  0.16805941  0.64013087  1
  In  In8  1  0.33447707  0.49695776  0.12042846  1
  In  In9  1  0.33053943  0.50775955  0.62506176  1
  In  In10  1  0.33366070  0.82888224  0.12270501  1
  In  In11  1  0.32355455  0.84181665  0.63352565  1
  In  In12  1  0.65580778  0.15940872  0.12665101  1
  In  In13  1  0.65732983  0.15954281  0.62331603  1
  In  In14  1  0.67251881  0.51181836  0.12153952  1
  In  In15  1  0.64724906  0.51439728  0.62255036  1
  In  In16  1  0.66303385  0.82976049  0.12313734  1
  In  In17  1  0.67040087  0.83606925  0.62666215  1
  In  In18  1  0.16389056  -0.00682299  0.36854750  1
  In  In19  1  0.16781518  -0.01451610  0.87895007  1
  In  In20  1  0.18657997  0.35219978  0.35743955  1
  In  In21  1  0.19108730  0.35835075  0.86222280  1
  In  In22  1  0.17643184  0.65509033  0.39569221  1
  In  In23  1  0.16871669  0.66370776  0.87656363  1
  In  In24  1  0.49907074  -0.00481133  0.36756828  1
  In  In25  1  0.47844500  -0.02730878  0.85796992  1
  In  In26  1  0.49483856  0.35301387  0.37310721  1
  In  In27  1  0.48855503  0.34975527  0.88223276  1
  In  In28  1  0.49494032  0.66367297  0.36678425  1
  In  In29  1  0.48428432  0.68138987  0.88022209  1
  In  In30  1  0.83149377  -0.01053402  0.36472614  1
  In  In31  1  0.81861080  -0.00505959  0.87295994  1
  In  In32  1  0.84290948  0.32668774  0.37349416  1
  In  In33  1  0.84645239  0.33628661  0.87534547  1
  In  In34  1  0.83575140  0.67260207  0.36955795  1
  In  In35  1  0.84156942  0.65833544  0.88264701  1
  In  In36  1  0.00832510  0.17360972  0.36632932  1
  In  In37  1  0.00070128  0.17591452  0.87173860  1
  In  In38  1  0.04649931  0.51128990  0.36604115  1
  In  In39  1  0.00427851  0.50464453  0.87606513  1
  In  In40  1  -0.00071877  0.83561165  0.37351849  1
  In  In41  1  0.01426671  0.81837166  0.88563662  1
  In  In42  1  0.33259755  0.16484199  0.36890249  1
  In  In43  1  0.33155285  0.16979228  0.86724681  1
  In  In44  1  0.33026285  0.50807302  0.37124749  1
  In  In45  1  0.32838865  0.50173463  0.87738045  1
  In  In46  1  0.32675575  0.82079925  0.36849266  1
  In  In47  1  0.33265280  0.82454504  0.87505130  1
  In  In48  1  0.67469068  0.15822732  0.37300691  1
  In  In49  1  0.66928960  0.15457207  0.87297478  1
  In  In50  1  0.65255610  0.50435201  0.37456807  1
  In  In51  1  0.65908189  0.51144593  0.88604102  1
  In  In52  1  0.66699095  0.83066781  0.36530033  1
  In  In53  1  0.65669575  0.83920401  0.88336973  1
  In  In54  1  0.17679481  -0.00984100  0.13042201  1
  In  In55  1  0.17770906  0.00193962  0.62590047  1
  In  In56  1  0.16962705  0.34141540  0.12811308  1
  In  In57  1  0.15864356  0.34391079  0.63719715  1
  In  In58  1  0.17127985  0.66507454  0.12250228  1
  In  In59  1  0.16478783  0.66909453  0.62242853  1
  In  In60  1  0.50732759  -0.00967077  0.13101967  1
  In  In61  1  0.49706716  -0.00679372  0.63535055  1
  In  In62  1  0.48054518  0.34428179  0.12531823  1
  In  In63  1  0.48174791  0.34071827  0.62762511  1
  In  In64  1  0.49699110  0.66700269  0.12195968  1
  In  In65  1  0.50715155  0.65492779  0.62453747  1
  In  In66  1  0.84011263  -0.00926367  0.12803933  1
  In  In67  1  0.82789803  -0.00825898  0.62676797  1
  In  In68  1  0.83522301  0.34787723  0.12310976  1
  In  In69  1  0.84641950  0.34479883  0.62711447  1
  In  In70  1  0.82565926  0.65844327  0.11989320  1
  In  In71  1  0.83087613  0.67495154  0.62851347  1
  In  In72  1  0.83511928  0.16498118  0.50207861  1
  In  In73  1  0.00095071  0.00060424  0.75184089  1
  In  In74  1  0.00805002  0.66596989  0.24501063  1
  In  In75  1  0.83480041  0.49885784  0.49800334  1
  In  In76  1  0.49976722  0.16254284  -0.00236416  1
  In  In77  1  0.49511690  0.16542444  0.49500871  1
  In  In78  1  0.16427324  0.17106117  0.00342868  1
  In  In79  1  0.83316384  0.16539489  -0.00704644  1
  In  In80  1  0.16920401  0.17112683  0.50514253  1
  In  In81  1  0.83126631  0.82642990  0.49528926  1
  In  In82  1  0.66978206  0.32748814  0.75646210  1
  In  In83  1  0.49953488  0.82874957  0.50137546  1
  In  In84  1  0.66691704  0.32947731  0.25187724  1
  In  In85  1  0.66321201  0.67296006  0.74967797  1
  Cu  Cu86  1  0.32927056  0.34912129  0.50105462  1
  Cu  Cu87  1  0.17012388  0.51003203  0.75091562  1
  Cu  Cu88  1  0.83098215  0.83247992  0.24597741  1
  Cu  Cu89  1  0.84070155  0.50091093  0.75423928  1
  Cu  Cu90  1  -0.00197924  -0.00581926  0.49109327  1
  Cu  Cu91  1  0.33293527  0.66645423  0.49973244  1
  Cu  Cu92  1  0.49852181  0.16070810  0.24909847  1
  Cu  Cu93  1  0.83327815  0.83349566  0.75250733  1
  Cu  Cu94  1  0.16900465  0.83234111  0.24723412  1
  Cu  Cu95  1  0.00246839  0.34437338  -0.00143108  1
  Cu  Cu96  1  0.83447576  0.15843392  0.24927112  1
  Cu  Cu97  1  0.49507502  0.50687551  0.24699399  1
  Cu  Cu98  1  0.83908273  0.49987617  0.24635247  1
  Cu  Cu99  1  0.48864802  0.50090524  0.75293429  1
  Cu  Cu100  1  0.65914180  0.34185169  0.49911787  1
  Cu  Cu101  1  0.16571903  0.16289248  0.24790374  1
  Cu  Cu102  1  0.66451532  0.34103232  0.00245370  1
  Cu  Cu103  1  0.33164655  0.66493906  0.00032696  1
  Cu  Cu104  1  0.66603115  0.66934442  0.00230353  1
  Cu  Cu105  1  0.66346798  -0.00972817  0.00071119  1
  Cu  Cu106  1  0.01371264  0.34347796  0.49750676  1
  Cu  Cu107  1  0.83561553  0.16826677  0.75228526  1
  Cu  Cu108  1  0.16814675  0.82677431  0.75541585  1
  Cu  Cu109  1  0.33558341  -0.00597276  0.00159142  1
  Cu  Cu110  1  0.50017219  0.16469436  0.74905911  1
  Cu  Cu111  1  0.00119273  0.66387488  0.00252871  1
  Cu  Cu112  1  -0.00156856  -0.00860615  0.00075877  1
  Cu  Cu113  1  0.33340359  -0.00314818  0.50602490  1
  Cu  Cu114  1  0.49660717  0.82832462  0.24584034  1
  Se  Se115  1  0.07605137  0.07451297  0.05992388  1
  Se  Se116  1  0.07332323  0.07409378  0.55625772  1
  Se  Se117  1  0.08759181  0.41907052  0.05573623  1
  Se  Se118  1  0.09120668  0.42213219  0.55769107  1
  Se  Se119  1  0.08687266  0.74710146  0.05415621  1
  Se  Se120  1  0.08528396  0.75333852  0.55210668  1
  Se  Se121  1  0.41087658  0.07732455  0.06273288  1
  Se  Se122  1  0.40914228  0.08221195  0.56362484  1
  Se  Se123  1  0.42168947  0.42470078  0.04700338  1
  Se  Se124  1  0.41751803  0.42753720  0.55374416  1
  Se  Se125  1  0.41655664  0.75024798  0.05118028  1
  Se  Se126  1  0.40853167  0.74544362  0.56441646  1
  Se  Se127  1  0.74318815  0.07813625  0.05580561  1
  Se  Se128  1  0.74103698  0.07240025  0.55395474  1
  Se  Se129  1  0.75124643  0.42246533  0.05318274  1
  Se  Se130  1  0.74139606  0.41307132  0.56335934  1
  Se  Se131  1  0.75141589  0.75173679  0.05414059  1
  Se  Se132  1  0.73568633  0.73870789  0.55498042  1
  Se  Se133  1  0.26098882  0.25851549  0.05662154  1
  Se  Se134  1  0.25868482  0.26252616  0.56348974  1
  Se  Se135  1  0.24859565  0.58033315  0.05204518  1
  Se  Se136  1  0.24732874  0.58433173  0.55296138  1
  Se  Se137  1  0.24844853  0.91254107  0.05343819  1
  Se  Se138  1  0.24631244  0.91350462  0.55419543  1
  Se  Se139  1  0.58628356  0.25768666  0.05984435  1
  Se  Se140  1  0.58161845  0.25946199  0.55927614  1
  Se  Se141  1  0.58179479  0.58358998  0.05311868  1
  Se  Se142  1  0.58107836  0.58845505  0.54347862  1
  Se  Se143  1  0.57673216  0.91115746  0.05361398  1
  Se  Se144  1  0.58719002  0.92524905  0.55824238  1
  Se  Se145  1  0.92256725  0.25622396  0.05399990  1
  Se  Se146  1  0.93156037  0.25994110  0.55422653  1
  Se  Se147  1  0.91724520  0.57978207  0.05545867  1
  Se  Se148  1  0.91748451  0.58746553  0.56350063  1
  Se  Se149  1  0.91246509  0.91040762  0.05265750  1
  Se  Se150  1  0.92106796  0.91901694  0.55701250  1
  Se  Se151  1  0.08927979  0.25931022  0.43728791  1
  Se  Se152  1  0.08158508  0.26231389  0.93959064  1
  Se  Se153  1  0.07327513  0.58680966  0.45606943  1
  Se  Se154  1  0.08640812  0.58266213  0.94797406  1
  Se  Se155  1  0.08641567  0.91367468  0.44241575  1
  Se  Se156  1  0.08877427  0.91028422  0.95293887  1
  Se  Se157  1  0.40486975  0.26279243  0.44109011  1
  Se  Se158  1  0.40541993  0.25373466  0.94444880  1
  Se  Se159  1  0.41521927  0.58773850  0.44139132  1
  Se  Se160  1  0.41613999  0.58353285  0.94515961  1
  Se  Se161  1  0.40988802  0.91963185  0.44110638  1
  Se  Se162  1  0.41588973  0.91031701  0.94560257  1
  Se  Se163  1  0.74081835  0.25961343  0.44418458  1
  Se  Se164  1  0.73887301  0.26003029  0.93845787  1
  Se  Se165  1  0.74620338  0.58992665  0.43839293  1
  Se  Se166  1  0.75180465  0.58407305  0.95167558  1
  Se  Se167  1  0.74166628  0.92112896  0.44020177  1
  Se  Se168  1  0.75380910  0.91175121  0.94962497  1
  Se  Se169  1  0.25538154  0.07827277  0.44380490  1
  Se  Se170  1  0.25648905  0.07823601  0.94382049  1
  Se  Se171  1  0.24645816  0.42439021  0.44210658  1
  Se  Se172  1  0.25050692  0.41943278  0.94964320  1
  Se  Se173  1  0.25223986  0.75797423  0.45166159  1
  Se  Se174  1  0.24763110  0.74935705  0.94692599  1
  Se  Se175  1  0.58831195  0.07342557  0.44154885  1
  Se  Se176  1  0.58368110  0.06815773  0.93823296  1
  Se  Se177  1  0.57563596  0.42454705  0.44832139  1
  Se  Se178  1  0.57838576  0.42213063  0.95051441  1
  Se  Se179  1  0.58757705  0.74437697  0.43668703  1
  Se  Se180  1  0.57988038  0.74931784  0.94883868  1
  Se  Se181  1  0.92092089  0.07898896  0.43437395  1
  Se  Se182  1  0.92551180  0.07256078  0.93647033  1
  Se  Se183  1  0.92870764  0.41638723  0.43624617  1
  Se  Se184  1  0.91548073  0.42414801  0.94592743  1
  Se  Se185  1  0.92889461  0.73686760  0.44373093  1
  Se  Se186  1  0.91679367  0.74866866  0.95089255  1
  Se  Se187  1  0.25314620  0.24638775  0.29893917  1
  Se  Se188  1  0.24274039  0.24700150  0.80254892  1
  Se  Se189  1  0.23251380  0.58475966  0.31033941  1
  Se  Se190  1  0.25612530  0.58963053  0.80506751  1
  Se  Se191  1  0.25354641  0.91517253  0.30216257  1
  Se  Se192  1  0.25031143  0.91254752  0.80635167  1
  Se  Se193  1  0.57325554  0.24279161  0.31399203  1
  Se  Se194  1  0.57233700  0.24468656  0.81579746  1
  Se  Se195  1  0.58497274  0.58559329  0.29821092  1
  Se  Se196  1  0.57395493  0.58127099  0.80940581  1
  Se  Se197  1  0.58117507  0.91246430  0.29940508  1
  Se  Se198  1  0.59838862  0.92546585  0.80616723  1
  Se  Se199  1  0.91551320  0.24736397  0.29892781  1
  Se  Se200  1  0.91813510  0.25446382  0.80068157  1
  Se  Se201  1  0.92117782  0.57461432  0.31036188  1
  Se  Se202  1  0.92099010  0.58802383  0.80568926  1
  Se  Se203  1  0.92009511  0.91127266  0.29862048  1
  Se  Se204  1  0.91757228  0.90800572  0.81462683  1
  Se  Se205  1  0.08253578  0.07983418  0.30203047  1
  Se  Se206  1  0.09195586  0.08560230  0.81293735  1
  Se  Se207  1  0.06655452  0.39514519  0.30337822  1
  Se  Se208  1  0.08520822  0.42483625  0.80346881  1
  Se  Se209  1  0.09352563  0.75145678  0.31089250  1
  Se  Se210  1  0.08189182  0.74387406  0.80552777  1
  Se  Se211  1  0.41374182  0.07873605  0.30253987  1
  Se  Se212  1  0.41455926  0.08306066  0.80222877  1
  Se  Se213  1  0.41160103  0.42264190  0.29987182  1
  Se  Se214  1  0.40808591  0.41490059  0.80470778  1
  Se  Se215  1  0.41168790  0.74466052  0.29813093  1
  Se  Se216  1  0.42194218  0.75799820  0.80111745  1
  Se  Se217  1  0.74766359  0.07700179  0.29988115  1
  Se  Se218  1  0.75065925  0.08174353  0.79857125  1
  Se  Se219  1  0.75703259  0.42329750  0.31098995  1
  Se  Se220  1  0.75205545  0.42820471  0.81324149  1
  Se  Se221  1  0.75089741  0.74618171  0.29865866  1
  Se  Se222  1  0.75496420  0.75298374  0.81519123  1
  Se  Se223  1  0.25248854  0.07890578  0.19838701  1
  Se  Se224  1  0.24224180  0.08085531  0.70294280  1
  Se  Se225  1  0.26792674  0.40642225  0.19361565  1
  Se  Se226  1  0.25304681  0.42438891  0.69737971  1
  Se  Se227  1  0.25004958  0.74776869  0.19349991  1
  Se  Se228  1  0.24799202  0.74588594  0.69609492  1
  Se  Se229  1  0.58593647  0.07762179  0.20087011  1
  Se  Se230  1  0.58439553  0.08162017  0.69766658  1
  Se  Se231  1  0.58078036  0.42209528  0.19150180  1
  Se  Se232  1  0.57858895  0.42144994  0.69747489  1
  Se  Se233  1  0.58240453  0.74602950  0.19306794  1
  Se  Se234  1  0.57167735  0.76172545  0.69115419  1
  Se  Se235  1  0.91953102  0.07748991  0.19556409  1
  Se  Se236  1  0.91362154  0.09150676  0.68624953  1
  Se  Se237  1  0.92180348  0.41487967  0.19622303  1
  Se  Se238  1  0.92431063  0.41645318  0.70216608  1
  Se  Se239  1  0.91364840  0.75269604  0.18604057  1
  Se  Se240  1  0.91471152  0.74701715  0.70157972  1
  Se  Se241  1  0.08782716  0.24862603  0.19185623  1
  Se  Se242  1  0.09044148  0.24961894  0.70537208  1
  Se  Se243  1  0.09879072  0.56921716  0.19407377  1
  Se  Se244  1  0.08365091  0.58889311  0.69605354  1
  Se  Se245  1  0.08239356  0.91520463  0.19625617  1
  Se  Se246  1  0.08788574  0.90714631  0.69249919  1
  Se  Se247  1  0.42028360  0.24859329  0.19662502  1
  Se  Se248  1  0.41655336  0.25192497  0.69993586  1
  Se  Se249  1  0.41192796  0.58622265  0.19077509  1
  Se  Se250  1  0.41615624  0.58808506  0.69536758  1
  Se  Se251  1  0.41328127  0.91362764  0.19407013  1
  Se  Se252  1  0.40844757  0.92025705  0.70147836  1
  Se  Se253  1  0.75754280  0.24229784  0.18727825  1
  Se  Se254  1  0.75749282  0.24502077  0.68587185  1
  Se  Se255  1  0.75182233  0.58322473  0.19865640  1
  Se  Se256  1  0.75281604  0.57279942  0.69315721  1
  Se  Se257  1  0.74643147  0.91482785  0.19236066  1
  Se  Se258  1  0.74896618  0.91561883  0.70015530  1
