# generated using pymatgen
data_In86Cu29Se144
_symmetry_space_group_name_H-M   'P 1'
_cell_length_a   17.58346163
_cell_length_b   17.57981982
_cell_length_c   23.43813545
_cell_angle_alpha   89.99689786
_cell_angle_beta   89.99900861
_cell_angle_gamma   90.04433123
_symmetry_Int_Tables_number   1
_chemical_formula_structural   In86Cu29Se144
_chemical_formula_sum   'In86 Cu29 Se144'
_cell_volume   7245.05566745
_cell_formula_units_Z   1
loop_
 _symmetry_equiv_pos_site_id
 _symmetry_equiv_pos_as_xyz
  1  'x, y, z'
loop_
 _atom_site_type_symbol
 _atom_site_label
 _atom_site_symmetry_multiplicity
 _atom_site_fract_x
 _atom_site_fract_y
 _atom_site_fract_z
 _atom_site_occupancy
  In  In0  1  -0.00688247  0.15488146  0.11660812  1
  In  In1  1  -0.00241044  0.17083129  0.62633961  1
  In  In2  1  -0.00100061  0.49520112  0.11468888  1
  In  In3  1  0.00691546  0.47929249  0.62961711  1
  In  In4  1  0.00299243  0.83794535  0.11961160  1
  In  In5  1  0.00977476  0.84760075  0.62784573  1
  In  In6  1  0.33472366  0.17672763  0.12253533  1
  In  In7  1  0.33306402  0.16076619  0.62905335  1
  In  In8  1  0.33507605  0.50113328  0.12279554  1
  In  In9  1  0.31831217  0.51063048  0.62325638  1
  In  In10  1  0.32564919  0.82645462  0.12195844  1
  In  In11  1  0.34367276  0.83794843  0.62080790  1
  In  In12  1  0.66449677  0.15761938  0.10497596  1
  In  In13  1  0.65633948  0.14793684  0.61917832  1
  In  In14  1  0.66947009  0.51245891  0.10506738  1
  In  In15  1  0.67759966  0.50169726  0.63767315  1
  In  In16  1  0.66245052  0.84241207  0.09066673  1
  In  In17  1  0.65110154  0.84937508  0.64178848  1
  In  In18  1  0.16249725  0.01196230  0.37729760  1
  In  In19  1  0.16795756  0.00442836  0.87267952  1
  In  In20  1  0.17730989  0.31861780  0.38247987  1
  In  In21  1  0.16122340  0.33880013  0.87601703  1
  In  In22  1  0.16620680  0.65360655  0.37202627  1
  In  In23  1  0.17235665  0.66245940  0.88276171  1
  In  In24  1  0.49694121  -0.00540809  0.38607488  1
  In  In25  1  0.48717778  0.00249013  0.87460317  1
  In  In26  1  0.48951423  0.33592744  0.37390154  1
  In  In27  1  0.50284386  0.32705431  0.88132489  1
  In  In28  1  0.50345276  0.68021242  0.37443516  1
  In  In29  1  0.51651136  0.66825437  0.88790397  1
  In  In30  1  0.85005239  -0.00035517  0.37106327  1
  In  In31  1  0.83310467  0.00161232  0.87656915  1
  In  In32  1  0.82747146  0.33130903  0.37502621  1
  In  In33  1  0.84182522  0.32114685  0.88066994  1
  In  In34  1  0.82239926  0.66970898  0.37120625  1
  In  In35  1  0.80865502  0.69001516  0.89889507  1
  In  In36  1  0.01282089  0.16211011  0.38285999  1
  In  In37  1  0.00491403  0.16554080  0.86714754  1
  In  In38  1  0.00092009  0.50166022  0.37604565  1
  In  In39  1  0.00074784  0.49532937  0.87808338  1
  In  In40  1  -0.01104419  0.85039564  0.37038402  1
  In  In41  1  -0.01022949  0.84811372  0.88267206  1
  In  In42  1  0.32705159  0.17021816  0.38332728  1
  In  In43  1  0.33588462  0.16284376  0.87593480  1
  In  In44  1  0.33057446  0.49158606  0.36449843  1
  In  In45  1  0.33296127  0.50286265  0.88170623  1
  In  In46  1  0.34613737  0.83430916  0.37147992  1
  In  In47  1  0.32331204  0.83951016  0.88502272  1
  In  In48  1  0.66813861  0.15962317  0.38404895  1
  In  In49  1  0.66600554  0.15220258  0.88208529  1
  In  In50  1  0.67457930  0.50243976  0.37574138  1
  In  In51  1  0.65929024  0.51208375  0.88708713  1
  In  In52  1  0.65686586  0.82512259  0.37561895  1
  In  In53  1  0.66705326  0.84467509  0.88220160  1
  In  In54  1  0.15408864  -0.00932432  0.11818818  1
  In  In55  1  0.15356294  0.03391485  0.65993338  1
  In  In56  1  0.17356960  0.34047748  0.11923183  1
  In  In57  1  0.14117710  0.30919029  0.60231495  1
  In  In58  1  0.17921078  0.67318421  0.12089944  1
  In  In59  1  0.18067201  0.65642433  0.61981191  1
  In  In60  1  0.50039071  0.00007332  0.10794045  1
  In  In61  1  0.50056816  -0.00262893  0.63281749  1
  In  In62  1  0.48661772  0.32635796  0.11975386  1
  In  In63  1  0.51093921  0.32814633  0.62462330  1
  In  In64  1  0.49812117  0.66148316  0.11406549  1
  In  In65  1  0.49158421  0.68618206  0.63039909  1
  In  In66  1  0.83533167  0.00442501  0.11031336  1
  In  In67  1  0.82047767  0.00923359  0.63471885  1
  In  In68  1  0.83149467  0.32799740  0.11441416  1
  In  In69  1  0.85214681  0.32848001  0.63830536  1
  In  In70  1  0.83393215  0.67835311  0.10656985  1
  In  In71  1  0.82688489  0.65884262  0.63303554  1
  In  In72  1  0.18005836  0.83474711  0.50654922  1
  In  In73  1  0.84225068  0.49095030  0.49888362  1
  In  In74  1  0.50280230  0.49798334  0.49850320  1
  In  In75  1  0.65868049  0.33078506  0.23498010  1
  In  In76  1  0.82608299  0.83274918  0.49680389  1
  In  In77  1  -0.00642757  0.67487325  0.75674112  1
  In  In78  1  0.32842345  0.32655385  0.74435486  1
  In  In79  1  0.33830254  0.67346535  0.74935282  1
  In  In80  1  0.33033483  0.00284270  0.24855991  1
  In  In81  1  0.66714737  -0.00299473  0.23016108  1
  In  In82  1  0.00401217  0.32625899  0.25505987  1
  In  In83  1  0.67117882  0.32207506  0.76595126  1
  In  In84  1  0.00687590  0.67212789  0.23448933  1
  In  In85  1  0.66322759  0.67410120  0.24249471  1
  Cu  Cu86  1  0.67720829  0.32209650  0.50588992  1
  Cu  Cu87  1  0.15777742  0.49605675  0.74987833  1
  Cu  Cu88  1  0.83712896  0.50465345  0.24303915  1
  Cu  Cu89  1  0.33731169  0.66810470  0.00201322  1
  Cu  Cu90  1  0.66347581  0.33628952  -0.00377890  1
  Cu  Cu91  1  0.49394002  0.50599884  0.24124329  1
  Cu  Cu92  1  0.66288340  -0.00276250  0.50816248  1
  Cu  Cu93  1  0.32736354  0.00293835  0.00039949  1
  Cu  Cu94  1  0.16320453  0.83201480  0.24489694  1
  Cu  Cu95  1  0.50666367  0.83203377  0.75935667  1
  Cu  Cu96  1  0.00177399  0.32462607  -0.00229549  1
  Cu  Cu97  1  0.83122367  0.51169291  0.76224110  1
  Cu  Cu98  1  0.17937831  0.49551840  0.24841422  1
  Cu  Cu99  1  0.50189709  0.83416257  0.24467623  1
  Cu  Cu100  1  0.49358302  0.17219251  0.24868159  1
  Cu  Cu101  1  0.83570214  0.15268692  0.24390599  1
  Cu  Cu102  1  0.33251843  -0.00222560  0.50980841  1
  Cu  Cu103  1  0.82619838  0.83299144  0.76053988  1
  Cu  Cu104  1  0.83549767  0.16687060  0.75395029  1
  Cu  Cu105  1  0.00309062  0.66108867  0.49923105  1
  Cu  Cu106  1  0.32996486  0.33314972  -0.00281815  1
  Cu  Cu107  1  0.65550398  0.67463633  0.51001927  1
  Cu  Cu108  1  0.50157852  0.50015646  0.75988003  1
  Cu  Cu109  1  0.16372163  0.16634808  0.25294980  1
  Cu  Cu110  1  0.16657970  0.83796664  0.75577490  1
  Cu  Cu111  1  0.00072975  0.00558484  0.50697505  1
  Cu  Cu112  1  0.00827406  0.66192064  -0.00160475  1
  Cu  Cu113  1  0.33828338  0.32957857  0.49897158  1
  Cu  Cu114  1  0.00409445  0.00320336  -0.00734400  1
  Se  Se115  1  0.08750747  0.08484730  0.04866159  1
  Se  Se116  1  0.08680521  0.07794314  0.56643334  1
  Se  Se117  1  0.08366502  0.41245482  0.04947440  1
  Se  Se118  1  0.10508210  0.43756145  0.55611694  1
  Se  Se119  1  0.08472490  0.74725623  0.05635004  1
  Se  Se120  1  0.07739917  0.74407414  0.56048526  1
  Se  Se121  1  0.40990436  0.08914975  0.05244273  1
  Se  Se122  1  0.41908705  0.07959789  0.56124189  1
  Se  Se123  1  0.41389626  0.41696359  0.05114972  1
  Se  Se124  1  0.41258321  0.41177980  0.56311130  1
  Se  Se125  1  0.41842912  0.75743156  0.05296765  1
  Se  Se126  1  0.39904625  0.73529659  0.55455693  1
  Se  Se127  1  0.75583439  0.08563877  0.04018816  1
  Se  Se128  1  0.75460995  0.08112370  0.55141081  1
  Se  Se129  1  0.75200843  0.41567929  0.04850125  1
  Se  Se130  1  0.74910263  0.41012423  0.56517985  1
  Se  Se131  1  0.73260405  0.73437823  0.03929235  1
  Se  Se132  1  0.74224983  0.75087420  0.56791388  1
  Se  Se133  1  0.24667903  0.24879275  0.05097840  1
  Se  Se134  1  0.25935280  0.24600117  0.55568934  1
  Se  Se135  1  0.25129962  0.58221358  0.05247341  1
  Se  Se136  1  0.26257823  0.59242455  0.54314310  1
  Se  Se137  1  0.24877637  0.91525547  0.05458844  1
  Se  Se138  1  0.24408924  0.93402322  0.57424554  1
  Se  Se139  1  0.57947430  0.25427839  0.05124974  1
  Se  Se140  1  0.58387759  0.24415335  0.55288006  1
  Se  Se141  1  0.57917213  0.58749114  0.04105712  1
  Se  Se142  1  0.58624826  0.58435045  0.56864441  1
  Se  Se143  1  0.60100570  0.95446300  0.03554228  1
  Se  Se144  1  0.57906636  0.91261377  0.55842532  1
  Se  Se145  1  0.91438444  0.24295242  0.04946715  1
  Se  Se146  1  0.92046652  0.25966401  0.55790534  1
  Se  Se147  1  0.91846881  0.58301855  0.05010322  1
  Se  Se148  1  0.92341287  0.58595296  0.56377917  1
  Se  Se149  1  0.92247467  0.91697957  0.04733015  1
  Se  Se150  1  0.91540484  0.92136372  0.55960332  1
  Se  Se151  1  0.08733705  0.24919657  0.45067543  1
  Se  Se152  1  0.08479457  0.24594390  0.94136608  1
  Se  Se153  1  0.08535091  0.57839225  0.44614617  1
  Se  Se154  1  0.08845199  0.57544641  0.94610476  1
  Se  Se155  1  0.07776488  0.91993845  0.44740754  1
  Se  Se156  1  0.09131993  0.91683260  0.94473729  1
  Se  Se157  1  0.42352661  0.24729146  0.44654364  1
  Se  Se158  1  0.41412375  0.24773702  0.94663329  1
  Se  Se159  1  0.41886407  0.58259414  0.43211708  1
  Se  Se160  1  0.41850999  0.58632184  0.94608275  1
  Se  Se161  1  0.41046195  0.91292606  0.45222000  1
  Se  Se162  1  0.41315413  0.91828579  0.95000191  1
  Se  Se163  1  0.75799369  0.24376360  0.44641874  1
  Se  Se164  1  0.74327050  0.24945764  0.94362283  1
  Se  Se165  1  0.74209639  0.59472608  0.45229617  1
  Se  Se166  1  0.76695699  0.56710275  0.94977854  1
  Se  Se167  1  0.73920863  0.92659322  0.43639132  1
  Se  Se168  1  0.77193966  0.90531093  0.94658531  1
  Se  Se169  1  0.25220120  0.07743403  0.44929187  1
  Se  Se170  1  0.24755833  0.08635375  0.94496155  1
  Se  Se171  1  0.26011591  0.41312637  0.44225804  1
  Se  Se172  1  0.24710051  0.41835878  0.94524885  1
  Se  Se173  1  0.25260078  0.74760658  0.43413504  1
  Se  Se174  1  0.24768476  0.74881356  0.95229915  1
  Se  Se175  1  0.58071000  0.08029777  0.45030676  1
  Se  Se176  1  0.57579550  0.07456597  0.94805342  1
  Se  Se177  1  0.59985245  0.40528478  0.44241900  1
  Se  Se178  1  0.57574067  0.41938610  0.94772296  1
  Se  Se179  1  0.57669983  0.75669227  0.45272845  1
  Se  Se180  1  0.58694919  0.76113129  0.95396923  1
  Se  Se181  1  0.91922709  0.08150638  0.44616350  1
  Se  Se182  1  0.92193517  0.08773390  0.93962471  1
  Se  Se183  1  0.93211790  0.39940962  0.44117156  1
  Se  Se184  1  0.91860543  0.41178037  0.94762142  1
  Se  Se185  1  0.92359524  0.74170539  0.43920707  1
  Se  Se186  1  0.92501696  0.75003204  0.95012771  1
  Se  Se187  1  0.25285919  0.24496596  0.30472310  1
  Se  Se188  1  0.24011536  0.24402523  0.80905033  1
  Se  Se189  1  0.25579867  0.58748026  0.29946626  1
  Se  Se190  1  0.24467238  0.57623042  0.80380386  1
  Se  Se191  1  0.24052317  0.91188868  0.30996966  1
  Se  Se192  1  0.25482382  0.91751950  0.80667440  1
  Se  Se193  1  0.58229855  0.24343493  0.30908158  1
  Se  Se194  1  0.57050717  0.23112169  0.81099312  1
  Se  Se195  1  0.58008478  0.57616479  0.30555073  1
  Se  Se196  1  0.58375524  0.58649566  0.80941690  1
  Se  Se197  1  0.57846898  0.91773384  0.30461449  1
  Se  Se198  1  0.58205124  0.92233625  0.81133881  1
  Se  Se199  1  0.90621376  0.23641882  0.30818441  1
  Se  Se200  1  0.91977721  0.25430020  0.80105807  1
  Se  Se201  1  0.91382336  0.58555952  0.30375512  1
  Se  Se202  1  0.90788977  0.59282808  0.82322569  1
  Se  Se203  1  0.90817081  0.91443077  0.29420792  1
  Se  Se204  1  0.91581432  0.91870917  0.80372670  1
  Se  Se205  1  0.07802618  0.08189004  0.30294922  1
  Se  Se206  1  0.08245956  0.07693181  0.79962112  1
  Se  Se207  1  0.09471567  0.42137053  0.30999865  1
  Se  Se208  1  0.07565026  0.41431365  0.80319277  1
  Se  Se209  1  0.08349035  0.75640815  0.31099790  1
  Se  Se210  1  0.09069386  0.75608326  0.81649669  1
  Se  Se211  1  0.42351189  0.08625957  0.31135319  1
  Se  Se212  1  0.39755742  0.07159644  0.80077905  1
  Se  Se213  1  0.42094409  0.41503147  0.29642653  1
  Se  Se214  1  0.41687154  0.41691531  0.81071702  1
  Se  Se215  1  0.42051083  0.75025497  0.29841306  1
  Se  Se216  1  0.42249696  0.75386837  0.81860310  1
  Se  Se217  1  0.74747759  0.08163331  0.30438125  1
  Se  Se218  1  0.75080837  0.08494687  0.80622496  1
  Se  Se219  1  0.75444477  0.42155059  0.29889967  1
  Se  Se220  1  0.75462917  0.42287738  0.81890826  1
  Se  Se221  1  0.75610904  0.76658639  0.30168429  1
  Se  Se222  1  0.74243406  0.75066369  0.81195756  1
  Se  Se223  1  0.23908173  0.08783387  0.18745203  1
  Se  Se224  1  0.27928524  0.07306045  0.70980273  1
  Se  Se225  1  0.25797755  0.41158378  0.19318941  1
  Se  Se226  1  0.23934598  0.42012091  0.68869993  1
  Se  Se227  1  0.25190245  0.74917972  0.19952770  1
  Se  Se228  1  0.24099912  0.75869711  0.69153751  1
  Se  Se229  1  0.57029340  0.09556375  0.18426862  1
  Se  Se230  1  0.59539338  0.07075532  0.69898457  1
  Se  Se231  1  0.57775923  0.43127640  0.17899581  1
  Se  Se232  1  0.58193991  0.41786787  0.70185806  1
  Se  Se233  1  0.58183419  0.76473705  0.17779135  1
  Se  Se234  1  0.58391166  0.74506849  0.70391636  1
  Se  Se235  1  0.91769013  0.07177646  0.18977966  1
  Se  Se236  1  0.91626388  0.08521512  0.69615926  1
  Se  Se237  1  0.91317705  0.41490007  0.18978551  1
  Se  Se238  1  0.91166211  0.43016787  0.70519876  1
  Se  Se239  1  0.90484279  0.75783138  0.18642877  1
  Se  Se240  1  0.90697738  0.76456139  0.69027864  1
  Se  Se241  1  0.08669805  0.24219171  0.18651944  1
  Se  Se242  1  0.08410662  0.25430070  0.69279520  1
  Se  Se243  1  0.09415860  0.56914828  0.18669160  1
  Se  Se244  1  0.08481744  0.58754270  0.69266027  1
  Se  Se245  1  0.07928423  0.91631983  0.19617531  1
  Se  Se246  1  0.07880468  0.92133591  0.70710696  1
  Se  Se247  1  0.40966825  0.25582046  0.19909677  1
  Se  Se248  1  0.43242618  0.24197628  0.69477361  1
  Se  Se249  1  0.41439980  0.59275091  0.19005604  1
  Se  Se250  1  0.42415709  0.57320404  0.69260408  1
  Se  Se251  1  0.42383894  0.91828037  0.18656242  1
  Se  Se252  1  0.42090917  0.90573669  0.69931862  1
  Se  Se253  1  0.75396078  0.23442883  0.18566663  1
  Se  Se254  1  0.75034468  0.24273289  0.69115205  1
  Se  Se255  1  0.75681383  0.58356868  0.18390483  1
  Se  Se256  1  0.74455180  0.59172505  0.70977703  1
  Se  Se257  1  0.75110883  0.90313069  0.17242067  1
  Se  Se258  1  0.74796389  0.92058433  0.70496761  1
