# generated using pymatgen
data_In86Cu29Se144
_symmetry_space_group_name_H-M   'P 1'
_cell_length_a   17.57944125
_cell_length_b   17.58221426
_cell_length_c   23.44009584
_cell_angle_alpha   89.98842133
_cell_angle_beta   89.97844159
_cell_angle_gamma   90.01282109
_symmetry_Int_Tables_number   1
_chemical_formula_structural   In86Cu29Se144
_chemical_formula_sum   'In86 Cu29 Se144'
_cell_volume   7244.99296034
_cell_formula_units_Z   1
loop_
 _symmetry_equiv_pos_site_id
 _symmetry_equiv_pos_as_xyz
  1  'x, y, z'
loop_
 _atom_site_type_symbol
 _atom_site_label
 _atom_site_symmetry_multiplicity
 _atom_site_fract_x
 _atom_site_fract_y
 _atom_site_fract_z
 _atom_site_occupancy
  In  In0  1  0.02436548  0.14527824  0.15389446  1
  In  In1  1  -0.00506037  0.18353627  0.61518637  1
  In  In2  1  0.00881897  0.48548640  0.13235724  1
  In  In3  1  0.01498499  0.49099641  0.61575186  1
  In  In4  1  0.01306895  0.84475221  0.11973843  1
  In  In5  1  0.00307839  0.83879000  0.61788869  1
  In  In6  1  0.33920513  0.17316347  0.12234330  1
  In  In7  1  0.34453293  0.17064052  0.62752524  1
  In  In8  1  0.32947678  0.50660698  0.11838497  1
  In  In9  1  0.32956651  0.49537887  0.62148641  1
  In  In10  1  0.33075227  0.82222877  0.11198997  1
  In  In11  1  0.33071041  0.82757917  0.61743068  1
  In  In12  1  0.66205158  0.17585738  0.12025473  1
  In  In13  1  0.67156408  0.15785555  0.62934324  1
  In  In14  1  0.66647842  0.51340179  0.12447878  1
  In  In15  1  0.65130645  0.51698179  0.63424210  1
  In  In16  1  0.65382548  0.82205225  0.11486149  1
  In  In17  1  0.66706739  0.83046460  0.62495804  1
  In  In18  1  0.15083847  -0.00039708  0.36595893  1
  In  In19  1  0.17875586  -0.00813487  0.88523658  1
  In  In20  1  0.17786773  0.33412957  0.35864262  1
  In  In21  1  0.17227185  0.32857110  0.88480924  1
  In  In22  1  0.17418016  0.65813744  0.37747780  1
  In  In23  1  0.19278105  0.64731439  0.91721691  1
  In  In24  1  0.48716366  -0.01220739  0.37413629  1
  In  In25  1  0.51515624  -0.00592402  0.88052427  1
  In  In26  1  0.49528763  0.34588635  0.37511373  1
  In  In27  1  0.49722726  0.33620880  0.87579002  1
  In  In28  1  0.49617196  0.66301065  0.37132886  1
  In  In29  1  0.50299425  0.66189090  0.88072569  1
  In  In30  1  0.83796167  -0.00156787  0.37726887  1
  In  In31  1  0.81904762  -0.00618977  0.86875055  1
  In  In32  1  0.84045598  0.32081609  0.38265564  1
  In  In33  1  0.82863483  0.34161486  0.87178292  1
  In  In34  1  0.83437999  0.68353368  0.37351729  1
  In  In35  1  0.82932238  0.68775695  0.87846245  1
  In  In36  1  -0.00578356  0.16206794  0.35682756  1
  In  In37  1  0.00734104  0.17312822  0.88039496  1
  In  In38  1  0.01936465  0.50355840  0.37302402  1
  In  In39  1  0.00827616  0.50980341  0.88234160  1
  In  In40  1  -0.00625020  0.83901928  0.37758213  1
  In  In41  1  0.00642476  0.81941996  0.89201656  1
  In  In42  1  0.31783580  0.17429780  0.36447421  1
  In  In43  1  0.32634207  0.17645985  0.88261414  1
  In  In44  1  0.33331130  0.49936020  0.37061877  1
  In  In45  1  0.34266000  0.49563273  0.88515627  1
  In  In46  1  0.34375686  0.81996733  0.37863386  1
  In  In47  1  0.34591657  0.81887302  0.89576317  1
  In  In48  1  0.67100542  0.17749483  0.38052434  1
  In  In49  1  0.66032388  0.16014006  0.86661764  1
  In  In50  1  0.64590403  0.50064461  0.37861455  1
  In  In51  1  0.65716142  0.48931759  0.86614733  1
  In  In52  1  0.67310680  0.82759554  0.37989392  1
  In  In53  1  0.66161845  0.83668913  0.87113771  1
  In  In54  1  0.15926176  -0.01224407  0.12615140  1
  In  In55  1  0.17556252  -0.00894154  0.62609201  1
  In  In56  1  0.16815037  0.33084872  0.12628076  1
  In  In57  1  0.16691383  0.34507901  0.62339821  1
  In  In58  1  0.18607653  0.68910268  0.10817048  1
  In  In59  1  0.16793434  0.66349953  0.61771313  1
  In  In60  1  0.49543749  -0.00395498  0.11263270  1
  In  In61  1  0.51287796  -0.00579479  0.62914690  1
  In  In62  1  0.48838727  0.32976964  0.11615030  1
  In  In63  1  0.49017331  0.34307592  0.63184993  1
  In  In64  1  0.49719738  0.66535185  0.11922983  1
  In  In65  1  0.51071997  0.67557479  0.61853047  1
  In  In66  1  0.85243296  -0.00107861  0.13200534  1
  In  In67  1  0.82339508  -0.00909302  0.61607706  1
  In  In68  1  0.84200638  0.33209723  0.13076134  1
  In  In69  1  0.83529546  0.32184068  0.61798442  1
  In  In70  1  0.81746473  0.66651539  0.12998167  1
  In  In71  1  0.81558079  0.66757554  0.62613596  1
  In  In72  1  0.67077559  -0.00288687  0.25523604  1
  In  In73  1  0.83486288  0.49900609  0.00257088  1
  In  In74  1  0.33790503  0.66226504  0.76455220  1
  In  In75  1  0.00629250  0.66739379  0.24742876  1
  In  In76  1  -0.00320160  0.66903767  0.75874587  1
  In  In77  1  0.32952315  -0.00659370  0.24768899  1
  In  In78  1  -0.00669528  0.00015039  0.74880412  1
  In  In79  1  0.83387764  0.16381939  0.00141581  1
  In  In80  1  0.67259229  0.33971134  0.24906656  1
  In  In81  1  0.83418540  0.50469547  0.50341798  1
  In  In82  1  -0.00719869  0.33569225  0.74401025  1
  In  In83  1  0.16078039  0.16399408  0.48823568  1
  In  In84  1  0.50262436  0.15944757  0.50314840  1
  In  In85  1  0.34495060  -0.00181886  0.75194500  1
  Cu  Cu86  1  0.32922936  0.33337470  0.49593339  1
  Cu  Cu87  1  0.49837868  0.17634444  0.75349825  1
  Cu  Cu88  1  0.17097634  0.82216669  0.76030513  1
  Cu  Cu89  1  0.65722857  0.33721834  -0.00343420  1
  Cu  Cu90  1  0.00235788  0.67201317  0.49538096  1
  Cu  Cu91  1  0.49435592  0.50242004  0.75290204  1
  Cu  Cu92  1  0.82428058  0.50186820  0.74928442  1
  Cu  Cu93  1  0.33292531  0.33865671  0.00264480  1
  Cu  Cu94  1  0.17687182  0.50288450  0.24550613  1
  Cu  Cu95  1  0.66217527  0.66977837  0.50109361  1
  Cu  Cu96  1  0.00864854  0.32761301  0.00825562  1
  Cu  Cu97  1  0.16911270  0.49602251  0.75087677  1
  Cu  Cu98  1  0.49249524  0.50197647  0.24727302  1
  Cu  Cu99  1  0.33424790  0.65587411  0.49708226  1
  Cu  Cu100  1  0.50172463  0.16924401  0.24213495  1
  Cu  Cu101  1  0.82752038  0.83527567  0.74872816  1
  Cu  Cu102  1  0.33326723  0.01362306  0.00209542  1
  Cu  Cu103  1  -0.00148479  0.00230759  0.00694206  1
  Cu  Cu104  1  0.82581864  0.16501140  0.74366644  1
  Cu  Cu105  1  0.82876833  0.50221004  0.25212999  1
  Cu  Cu106  1  0.67144464  -0.00379614  -0.00502313  1
  Cu  Cu107  1  0.66553816  0.33741589  0.50228532  1
  Cu  Cu108  1  0.32852840  -0.01554335  0.49776843  1
  Cu  Cu109  1  -0.00264400  0.00582164  0.49424532  1
  Cu  Cu110  1  0.67072284  -0.00253839  0.50352875  1
  Cu  Cu111  1  0.66727506  0.66436344  -0.00216193  1
  Cu  Cu112  1  0.83115819  0.83568960  0.25220563  1
  Cu  Cu113  1  0.49884161  0.81633081  0.24432758  1
  Cu  Cu114  1  0.17092265  0.16974814  0.75961957  1
  Se  Se115  1  0.08030206  0.08396464  0.06261884  1
  Se  Se116  1  0.07956810  0.07636080  0.56161586  1
  Se  Se117  1  0.08978134  0.41873617  0.05456368  1
  Se  Se118  1  0.08425069  0.40431958  0.54558717  1
  Se  Se119  1  0.06954393  0.74102966  0.05428276  1
  Se  Se120  1  0.08619650  0.75204859  0.55348717  1
  Se  Se121  1  0.42289970  0.09448681  0.05112687  1
  Se  Se122  1  0.40660984  0.06704075  0.55908052  1
  Se  Se123  1  0.41866522  0.42550957  0.05033470  1
  Se  Se124  1  0.41329263  0.41213172  0.55258910  1
  Se  Se125  1  0.43805069  0.76604509  0.05071284  1
  Se  Se126  1  0.41380508  0.74329323  0.55145226  1
  Se  Se127  1  0.74579275  0.07246973  0.06284897  1
  Se  Se128  1  0.75133034  0.08854322  0.55134923  1
  Se  Se129  1  0.74264779  0.40600903  0.06131002  1
  Se  Se130  1  0.74005793  0.42080212  0.56513952  1
  Se  Se131  1  0.75114404  0.74690253  0.05109736  1
  Se  Se132  1  0.75014947  0.75226441  0.55104388  1
  Se  Se133  1  0.25145394  0.25175832  0.05456528  1
  Se  Se134  1  0.25409729  0.24667485  0.55554618  1
  Se  Se135  1  0.25980860  0.59432801  0.04421611  1
  Se  Se136  1  0.24714814  0.57595982  0.55155989  1
  Se  Se137  1  0.25455459  0.92507040  0.05544863  1
  Se  Se138  1  0.24073064  0.90652933  0.55089320  1
  Se  Se139  1  0.57806085  0.24929229  0.04954007  1
  Se  Se140  1  0.58509903  0.25480149  0.56347256  1
  Se  Se141  1  0.58250286  0.58051406  0.04957834  1
  Se  Se142  1  0.58015098  0.58026904  0.54977777  1
  Se  Se143  1  0.58322183  0.91545153  0.04716644  1
  Se  Se144  1  0.58470736  0.91456059  0.55387410  1
  Se  Se145  1  0.92537561  0.24609798  0.06367538  1
  Se  Se146  1  0.92232488  0.26272418  0.54242043  1
  Se  Se147  1  0.91656178  0.57971034  0.07237749  1
  Se  Se148  1  0.92615230  0.59592245  0.56379349  1
  Se  Se149  1  0.91358779  0.91503788  0.05402386  1
  Se  Se150  1  0.91829488  0.91931221  0.55062917  1
  Se  Se151  1  0.08065001  0.25443037  0.42543131  1
  Se  Se152  1  0.09016291  0.24368219  0.95328701  1
  Se  Se153  1  0.08700791  0.58411683  0.44994739  1
  Se  Se154  1  0.07540454  0.58256428  0.96098696  1
  Se  Se155  1  0.08218108  0.92102013  0.44451705  1
  Se  Se156  1  0.08054814  0.92182901  0.94933610  1
  Se  Se157  1  0.41023360  0.24678849  0.44005696  1
  Se  Se158  1  0.41662828  0.25535985  0.94778063  1
  Se  Se159  1  0.41897507  0.57605049  0.44193675  1
  Se  Se160  1  0.39231713  0.61082044  0.94290905  1
  Se  Se161  1  0.42147792  0.90596610  0.45046148  1
  Se  Se162  1  0.41534781  0.92970292  0.94705165  1
  Se  Se163  1  0.75024733  0.25173163  0.45481396  1
  Se  Se164  1  0.74466654  0.25654800  0.94105652  1
  Se  Se165  1  0.74432618  0.59048713  0.43909641  1
  Se  Se166  1  0.74534037  0.58149593  0.93650749  1
  Se  Se167  1  0.75293412  0.91678044  0.44497308  1
  Se  Se168  1  0.75277914  0.90993816  0.94366842  1
  Se  Se169  1  0.25887366  0.07123287  0.43572052  1
  Se  Se170  1  0.24395444  0.09165480  0.95006689  1
  Se  Se171  1  0.24864355  0.41228818  0.43726851  1
  Se  Se172  1  0.24728153  0.42111140  0.94999662  1
  Se  Se173  1  0.25298036  0.74467629  0.44675002  1
  Se  Se174  1  0.22653289  0.78094043  0.95181297  1
  Se  Se175  1  0.58954621  0.07068935  0.43719969  1
  Se  Se176  1  0.59000063  0.08791411  0.94746983  1
  Se  Se177  1  0.57579497  0.41519472  0.45210776  1
  Se  Se178  1  0.57720350  0.42430609  0.94522812  1
  Se  Se179  1  0.57963118  0.74739586  0.44130306  1
  Se  Se180  1  0.58705145  0.75048412  0.94367111  1
  Se  Se181  1  0.92041062  0.09117281  0.43900489  1
  Se  Se182  1  0.92081179  0.07277496  0.93678618  1
  Se  Se183  1  0.92384057  0.42187092  0.43984264  1
  Se  Se184  1  0.92712780  0.40304623  0.94444394  1
  Se  Se185  1  0.91392165  0.75516577  0.44885952  1
  Se  Se186  1  0.92355019  0.73137430  0.95458924  1
  Se  Se187  1  0.25009427  0.24792960  0.28650500  1
  Se  Se188  1  0.25179624  0.25792471  0.80732831  1
  Se  Se189  1  0.25540354  0.58742256  0.30138849  1
  Se  Se190  1  0.23710487  0.57760115  0.81845623  1
  Se  Se191  1  0.24808351  0.90587634  0.31360521  1
  Se  Se192  1  0.25645521  0.90598786  0.81251336  1
  Se  Se193  1  0.57729602  0.24737484  0.30733775  1
  Se  Se194  1  0.58494335  0.25787987  0.80563309  1
  Se  Se195  1  0.58053371  0.58098916  0.30069353  1
  Se  Se196  1  0.57931970  0.58550006  0.80479198  1
  Se  Se197  1  0.57304000  0.90282605  0.30535564  1
  Se  Se198  1  0.58878481  0.92667008  0.80143889  1
  Se  Se199  1  0.91194429  0.25957012  0.30012469  1
  Se  Se200  1  0.90868909  0.23906971  0.80702712  1
  Se  Se201  1  0.91294780  0.58083009  0.31184745  1
  Se  Se202  1  0.90413860  0.57458528  0.81446350  1
  Se  Se203  1  0.91594326  0.91851295  0.30339834  1
  Se  Se204  1  0.91685860  0.90199938  0.81157621  1
  Se  Se205  1  0.09743167  0.09621534  0.29528146  1
  Se  Se206  1  0.09030424  0.08270842  0.81155498  1
  Se  Se207  1  0.08818111  0.42286413  0.29711087  1
  Se  Se208  1  0.08299126  0.41861121  0.80956329  1
  Se  Se209  1  0.08810425  0.75381075  0.31409809  1
  Se  Se210  1  0.09591787  0.74200302  0.82102278  1
  Se  Se211  1  0.42359395  0.08968284  0.30588651  1
  Se  Se212  1  0.42242868  0.09359041  0.81571459  1
  Se  Se213  1  0.41344927  0.41344861  0.29955177  1
  Se  Se214  1  0.41184711  0.41892484  0.80650020  1
  Se  Se215  1  0.41107239  0.74096508  0.29956068  1
  Se  Se216  1  0.42802656  0.76287163  0.81102759  1
  Se  Se217  1  0.75481760  0.09498020  0.31068733  1
  Se  Se218  1  0.74665871  0.08022338  0.79823005  1
  Se  Se219  1  0.75370934  0.42480562  0.31899819  1
  Se  Se220  1  0.74535763  0.41034399  0.79766944  1
  Se  Se221  1  0.74525557  0.75061282  0.30094802  1
  Se  Se222  1  0.74550346  0.75076654  0.80185003  1
  Se  Se223  1  0.24794451  0.08610194  0.18636671  1
  Se  Se224  1  0.24596433  0.08945588  0.69520140  1
  Se  Se225  1  0.25624636  0.41801769  0.18964993  1
  Se  Se226  1  0.25196504  0.41522030  0.69666194  1
  Se  Se227  1  0.25100802  0.75805670  0.19112594  1
  Se  Se228  1  0.24757236  0.74642992  0.69476809  1
  Se  Se229  1  0.57979330  0.08254249  0.18873121  1
  Se  Se230  1  0.57676301  0.08972740  0.69795861  1
  Se  Se231  1  0.57639419  0.42114939  0.18800770  1
  Se  Se232  1  0.57980355  0.41961687  0.69901798  1
  Se  Se233  1  0.58774509  0.73916228  0.19188548  1
  Se  Se234  1  0.58886814  0.74456479  0.69400902  1
  Se  Se235  1  0.91081512  0.08570100  0.20698530  1
  Se  Se236  1  0.91198269  0.09180142  0.68375052  1
  Se  Se237  1  0.91346101  0.41941319  0.20201847  1
  Se  Se238  1  0.90701522  0.43116832  0.68483572  1
  Se  Se239  1  0.91105167  0.75580750  0.19043986  1
  Se  Se240  1  0.91372501  0.75748424  0.69046093  1
  Se  Se241  1  0.06316602  0.27529549  0.19317285  1
  Se  Se242  1  0.09135359  0.24216421  0.69236378  1
  Se  Se243  1  0.09856331  0.58504018  0.18501475  1
  Se  Se244  1  0.08668786  0.57768488  0.69411631  1
  Se  Se245  1  0.07849920  0.91589396  0.20134437  1
  Se  Se246  1  0.09336046  0.90461672  0.69944582  1
  Se  Se247  1  0.41679470  0.25526874  0.19545128  1
  Se  Se248  1  0.41100492  0.25583848  0.70124838  1
  Se  Se249  1  0.41403926  0.58575774  0.19012994  1
  Se  Se250  1  0.41766455  0.58295555  0.68965656  1
  Se  Se251  1  0.42585251  0.90905084  0.18868006  1
  Se  Se252  1  0.42296974  0.90145814  0.68985451  1
  Se  Se253  1  0.75588284  0.23830556  0.19440165  1
  Se  Se254  1  0.74861095  0.25484389  0.69200521  1
  Se  Se255  1  0.74218351  0.58440054  0.20350195  1
  Se  Se256  1  0.74237608  0.59183293  0.70246645  1
  Se  Se257  1  0.74955406  0.90832589  0.18647968  1
  Se  Se258  1  0.74754741  0.91980566  0.69376145  1
