# generated using pymatgen
data_In86Cu29Se144
_symmetry_space_group_name_H-M   'P 1'
_cell_length_a   17.56118643
_cell_length_b   17.56087141
_cell_length_c   23.42136411
_cell_angle_alpha   90.01689801
_cell_angle_beta   90.01486659
_cell_angle_gamma   90.02034580
_symmetry_Int_Tables_number   1
_chemical_formula_structural   In86Cu29Se144
_chemical_formula_sum   'In86 Cu29 Se144'
_cell_volume   7222.90729629
_cell_formula_units_Z   1
loop_
 _symmetry_equiv_pos_site_id
 _symmetry_equiv_pos_as_xyz
  1  'x, y, z'
loop_
 _atom_site_type_symbol
 _atom_site_label
 _atom_site_symmetry_multiplicity
 _atom_site_fract_x
 _atom_site_fract_y
 _atom_site_fract_z
 _atom_site_occupancy
  In  In0  1  0.00778057  0.17918439  0.12466768  1
  In  In1  1  -0.00782944  0.17661820  0.63211954  1
  In  In2  1  -0.00118014  0.49572571  0.11476978  1
  In  In3  1  -0.00175801  0.50367109  0.62935824  1
  In  In4  1  0.00499784  0.83753951  0.09391567  1
  In  In5  1  -0.01281797  0.84410835  0.64074913  1
  In  In6  1  0.31631457  0.16425080  0.14598639  1
  In  In7  1  0.33787030  0.17636773  0.61986389  1
  In  In8  1  0.32549911  0.51140966  0.13617912  1
  In  In9  1  0.34393120  0.52221332  0.59773060  1
  In  In10  1  0.33562987  0.82813919  0.12144165  1
  In  In11  1  0.32063467  0.82369712  0.62313188  1
  In  In12  1  0.66690089  0.15416337  0.12780767  1
  In  In13  1  0.67562611  0.14841864  0.62600693  1
  In  In14  1  0.68020027  0.49671720  0.12664510  1
  In  In15  1  0.67986661  0.51044643  0.61685594  1
  In  In16  1  0.67442839  0.84848553  0.11699297  1
  In  In17  1  0.67256289  0.82898425  0.63177461  1
  In  In18  1  0.17176994  -0.01130170  0.36832014  1
  In  In19  1  0.13513054  -0.00725496  0.88014632  1
  In  In20  1  0.17835561  0.34573291  0.35577509  1
  In  In21  1  0.15798332  0.35510083  0.88158428  1
  In  In22  1  0.16941783  0.65453500  0.37960742  1
  In  In23  1  0.16284926  0.66308281  0.87892378  1
  In  In24  1  0.50501025  0.00103153  0.36523882  1
  In  In25  1  0.49825209  -0.01857352  0.87512038  1
  In  In26  1  0.49330232  0.34485874  0.38331102  1
  In  In27  1  0.49555347  0.33356310  0.87462935  1
  In  In28  1  0.48702506  0.65631153  0.37597655  1
  In  In29  1  0.50985673  0.68302286  0.86293129  1
  In  In30  1  0.82443237  0.00778830  0.38683672  1
  In  In31  1  0.83746491  -0.00119218  0.87955400  1
  In  In32  1  0.83542577  0.32875022  0.38071750  1
  In  In33  1  0.85018731  0.32113882  0.87753777  1
  In  In34  1  0.83159634  0.66871373  0.38671642  1
  In  In35  1  0.83341357  0.66989306  0.87769116  1
  In  In36  1  -0.01797479  0.17314784  0.37379029  1
  In  In37  1  -0.01755874  0.14983752  0.86086651  1
  In  In38  1  0.00942070  0.49441126  0.38413813  1
  In  In39  1  0.00224209  0.50083807  0.87438714  1
  In  In40  1  -0.00627831  0.82579830  0.37605000  1
  In  In41  1  -0.00241722  0.83065571  0.88610466  1
  In  In42  1  0.33496738  0.17072256  0.36235479  1
  In  In43  1  0.33535140  0.16646593  0.87609424  1
  In  In44  1  0.32987301  0.49817365  0.37997964  1
  In  In45  1  0.31185849  0.50807338  0.87995568  1
  In  In46  1  0.33294391  0.82838819  0.36448217  1
  In  In47  1  0.34325709  0.82302340  0.88305277  1
  In  In48  1  0.67735805  0.16377535  0.37793917  1
  In  In49  1  0.69420100  0.16414887  0.87505454  1
  In  In50  1  0.67183697  0.48380972  0.39571545  1
  In  In51  1  0.67125737  0.52045389  0.86538955  1
  In  In52  1  0.66976700  0.84020614  0.37306900  1
  In  In53  1  0.66676003  0.83507602  0.87304697  1
  In  In54  1  0.17172613  -0.00296159  0.12176525  1
  In  In55  1  0.16444805  -0.01545759  0.62817507  1
  In  In56  1  0.15345401  0.33554555  0.14094200  1
  In  In57  1  0.15415152  0.34108149  0.62500998  1
  In  In58  1  0.17299262  0.67356794  0.11063731  1
  In  In59  1  0.16900480  0.65897385  0.63591776  1
  In  In60  1  0.50351236  -0.00456900  0.13039531  1
  In  In61  1  0.51955645  0.00490604  0.62444676  1
  In  In62  1  0.49772008  0.32185903  0.13190768  1
  In  In63  1  0.49234717  0.34830169  0.61514697  1
  In  In64  1  0.48395594  0.66376722  0.12492003  1
  In  In65  1  0.50116248  0.66536670  0.62947040  1
  In  In66  1  0.82868924  -0.00671431  0.11510277  1
  In  In67  1  0.83089079  -0.00166539  0.62418362  1
  In  In68  1  0.84703038  0.34267283  0.11999454  1
  In  In69  1  0.84297847  0.34629454  0.61397110  1
  In  In70  1  0.84790388  0.67450204  0.10743509  1
  In  In71  1  0.83242406  0.66731179  0.63297104  1
  In  In72  1  0.50891539  0.82553079  0.50665112  1
  In  In73  1  0.16038729  0.16374314  0.00286737  1
  In  In74  1  0.00293947  0.66961209  0.24092237  1
  In  In75  1  0.16213682  0.17535293  0.49808854  1
  In  In76  1  0.66284874  0.66714632  0.25226798  1
  In  In77  1  0.32472042  0.34191693  0.74160026  1
  In  In78  1  0.00269683  0.00641999  0.24222235  1
  In  In79  1  0.50733910  0.50418138  -0.00138772  1
  In  In80  1  0.16030843  0.82534337  0.49491192  1
  In  In81  1  0.32916184  -0.00971200  0.74902622  1
  In  In82  1  0.67250652  0.33656959  0.73857299  1
  In  In83  1  0.66383449  0.33073814  0.26168456  1
  In  In84  1  0.50492630  0.15923640  0.01559088  1
  In  In85  1  0.50771137  0.17197480  0.48880915  1
  Cu  Cu86  1  0.66802205  0.66436728  0.50787003  1
  Cu  Cu87  1  0.82806154  0.16924972  0.25149247  1
  Cu  Cu88  1  0.00465053  0.33065613  -0.00095273  1
  Cu  Cu89  1  0.83393840  0.84623318  0.24348957  1
  Cu  Cu90  1  0.33689842  0.66597253  -0.00137928  1
  Cu  Cu91  1  0.16961326  0.50129553  0.25385735  1
  Cu  Cu92  1  0.83442174  0.83182552  0.75789877  1
  Cu  Cu93  1  0.33442700  0.33497607  0.01052695  1
  Cu  Cu94  1  0.50135521  0.83239890  0.74965897  1
  Cu  Cu95  1  0.66342351  0.00411200  -0.00257393  1
  Cu  Cu96  1  0.17186474  0.83084673  0.24074757  1
  Cu  Cu97  1  0.49209865  0.16194223  0.25023963  1
  Cu  Cu98  1  0.48809677  0.50941628  0.74464584  1
  Cu  Cu99  1  0.51554767  0.16384791  0.74820745  1
  Cu  Cu100  1  -0.00093397  0.34034161  0.50106310  1
  Cu  Cu101  1  -0.00733526  0.00701970  0.50632185  1
  Cu  Cu102  1  0.32578092  -0.00788728  0.00322556  1
  Cu  Cu103  1  -0.00714520  0.67125416  0.51095293  1
  Cu  Cu104  1  0.15906662  0.82846978  0.75808665  1
  Cu  Cu105  1  0.83674674  0.49839210  0.75022190  1
  Cu  Cu106  1  0.49505928  0.49761415  0.25734486  1
  Cu  Cu107  1  0.16557823  0.16876981  0.75146337  1
  Cu  Cu108  1  0.66614952  0.67366167  -0.00730223  1
  Cu  Cu109  1  0.68475695  0.34388408  -0.00179663  1
  Cu  Cu110  1  0.84617573  0.50447060  0.24789979  1
  Cu  Cu111  1  0.16180154  0.50734572  0.75287415  1
  Cu  Cu112  1  0.50078282  0.83241027  0.24809174  1
  Cu  Cu113  1  0.84049537  0.15635592  0.74888815  1
  Cu  Cu114  1  0.34339677  0.00171630  0.49022820  1
  Se  Se115  1  0.06919925  0.07141958  0.05850034  1
  Se  Se116  1  0.08321131  0.07903122  0.56378169  1
  Se  Se117  1  0.09095584  0.40711192  0.05633753  1
  Se  Se118  1  0.07958471  0.42585735  0.55410621  1
  Se  Se119  1  0.06052055  0.71755571  0.04803577  1
  Se  Se120  1  0.07577105  0.75309358  0.56917143  1
  Se  Se121  1  0.39911886  0.07817481  0.06670712  1
  Se  Se122  1  0.41759468  0.07749468  0.55653682  1
  Se  Se123  1  0.42000762  0.41699757  0.06487575  1
  Se  Se124  1  0.40281140  0.41001075  0.54376042  1
  Se  Se125  1  0.42165576  0.75049367  0.04942064  1
  Se  Se126  1  0.40578197  0.74008902  0.55570113  1
  Se  Se127  1  0.74694822  0.08731728  0.05075397  1
  Se  Se128  1  0.75658109  0.08184546  0.55075993  1
  Se  Se129  1  0.76410849  0.42852828  0.05244104  1
  Se  Se130  1  0.73518572  0.40456224  0.55394437  1
  Se  Se131  1  0.74806490  0.75457828  0.05140759  1
  Se  Se132  1  0.75091885  0.74812203  0.55990888  1
  Se  Se133  1  0.25177705  0.25140860  0.06535377  1
  Se  Se134  1  0.25426642  0.26615094  0.55631289  1
  Se  Se135  1  0.25838242  0.57809519  0.05193401  1
  Se  Se136  1  0.23244335  0.59313878  0.55089784  1
  Se  Se137  1  0.24363851  0.90531471  0.05382086  1
  Se  Se138  1  0.25781235  0.92326806  0.54940657  1
  Se  Se139  1  0.59943824  0.26454406  0.05925127  1
  Se  Se140  1  0.58313027  0.24524989  0.56852701  1
  Se  Se141  1  0.59531681  0.59368689  0.06228206  1
  Se  Se142  1  0.57806925  0.58328156  0.55669194  1
  Se  Se143  1  0.57854785  0.92272397  0.05166353  1
  Se  Se144  1  0.60244889  0.92250457  0.55426401  1
  Se  Se145  1  0.91988009  0.24936847  0.05272914  1
  Se  Se146  1  0.92073252  0.24923832  0.55201544  1
  Se  Se147  1  0.92160028  0.57976548  0.04589598  1
  Se  Se148  1  0.91035111  0.58301699  0.56108732  1
  Se  Se149  1  0.90634580  0.91750085  0.04114853  1
  Se  Se150  1  0.91899534  0.91366354  0.55762028  1
  Se  Se151  1  0.07487497  0.26208834  0.43560608  1
  Se  Se152  1  0.07679778  0.24809323  0.93371434  1
  Se  Se153  1  0.07511600  0.59370783  0.45106856  1
  Se  Se154  1  0.11050967  0.55155181  0.94055372  1
  Se  Se155  1  0.07146627  0.92824828  0.44255116  1
  Se  Se156  1  0.08480222  0.90628949  0.95829120  1
  Se  Se157  1  0.39814337  0.25384251  0.44358351  1
  Se  Se158  1  0.41473865  0.25282955  0.95185522  1
  Se  Se159  1  0.41972981  0.57298385  0.44929214  1
  Se  Se160  1  0.41892038  0.59044777  0.93465876  1
  Se  Se161  1  0.42068002  0.91295781  0.43750835  1
  Se  Se162  1  0.41713166  0.91439016  0.95224158  1
  Se  Se163  1  0.73252560  0.26547128  0.44369012  1
  Se  Se164  1  0.76038276  0.25019229  0.94935123  1
  Se  Se165  1  0.75274776  0.58124100  0.45362746  1
  Se  Se166  1  0.74752312  0.58323162  0.94603123  1
  Se  Se167  1  0.76574994  0.89678621  0.44310078  1
  Se  Se168  1  0.74525928  0.91897949  0.94377344  1
  Se  Se169  1  0.25286037  0.07926503  0.43846559  1
  Se  Se170  1  0.25233806  0.07372810  0.93958718  1
  Se  Se171  1  0.22682413  0.42554234  0.43916604  1
  Se  Se172  1  0.25332486  0.41475890  0.95386562  1
  Se  Se173  1  0.26260835  0.74270954  0.44235889  1
  Se  Se174  1  0.24925439  0.74722200  0.94679101  1
  Se  Se175  1  0.59368666  0.06666573  0.44240127  1
  Se  Se176  1  0.58382561  0.08547395  0.93521694  1
  Se  Se177  1  0.58418984  0.40179323  0.45777772  1
  Se  Se178  1  0.59612746  0.41272259  0.93652135  1
  Se  Se179  1  0.59216629  0.73698797  0.43765988  1
  Se  Se180  1  0.57882131  0.75590370  0.94371789  1
  Se  Se181  1  0.91353781  0.09124686  0.45027940  1
  Se  Se182  1  0.91265743  0.09282262  0.94547537  1
  Se  Se183  1  0.91200664  0.42108410  0.44709724  1
  Se  Se184  1  0.92171891  0.41460098  0.94443293  1
  Se  Se185  1  0.91516848  0.75506451  0.45273451  1
  Se  Se186  1  0.91440766  0.74423671  0.95135092  1
  Se  Se187  1  0.24304197  0.24187267  0.29622654  1
  Se  Se188  1  0.24472427  0.25098281  0.81170321  1
  Se  Se189  1  0.25328602  0.58479214  0.30585484  1
  Se  Se190  1  0.24925016  0.59032632  0.80215044  1
  Se  Se191  1  0.25407979  0.91413188  0.29560971  1
  Se  Se192  1  0.24236854  0.91091688  0.81807924  1
  Se  Se193  1  0.56853027  0.23976468  0.31638111  1
  Se  Se194  1  0.58819705  0.24944069  0.80951317  1
  Se  Se195  1  0.58672225  0.56782818  0.31617532  1
  Se  Se196  1  0.57899393  0.58728118  0.79556808  1
  Se  Se197  1  0.58772991  0.91375012  0.29955592  1
  Se  Se198  1  0.58489983  0.91727285  0.80060873  1
  Se  Se199  1  0.90959939  0.25769485  0.30042424  1
  Se  Se200  1  0.91958060  0.25197162  0.79501743  1
  Se  Se201  1  0.91764250  0.58767109  0.31246169  1
  Se  Se202  1  0.91384169  0.58228679  0.80872956  1
  Se  Se203  1  0.91505826  0.91877982  0.30827760  1
  Se  Se204  1  0.91940289  0.91303844  0.81185714  1
  Se  Se205  1  0.08289084  0.08714778  0.31528287  1
  Se  Se206  1  0.08398431  0.07926597  0.79929654  1
  Se  Se207  1  0.07423622  0.42271045  0.30035532  1
  Se  Se208  1  0.08073310  0.41622811  0.79995063  1
  Se  Se209  1  0.09336107  0.75623677  0.30747625  1
  Se  Se210  1  0.07707599  0.74720130  0.81323504  1
  Se  Se211  1  0.41010701  0.07331243  0.30062704  1
  Se  Se212  1  0.42361297  0.08669885  0.80425863  1
  Se  Se213  1  0.41054397  0.41312788  0.30749609  1
  Se  Se214  1  0.41547972  0.42693968  0.80927664  1
  Se  Se215  1  0.42212720  0.74509131  0.30152481  1
  Se  Se216  1  0.40982539  0.75306586  0.79910503  1
  Se  Se217  1  0.75285609  0.08087481  0.30548509  1
  Se  Se218  1  0.75606279  0.07491428  0.80162989  1
  Se  Se219  1  0.75794910  0.43106436  0.30855985  1
  Se  Se220  1  0.75687123  0.41585618  0.81091454  1
  Se  Se221  1  0.76492979  0.75525103  0.30417082  1
  Se  Se222  1  0.74712210  0.74707509  0.80641605  1
  Se  Se223  1  0.23213418  0.07287441  0.20323800  1
  Se  Se224  1  0.24649698  0.09183097  0.68806345  1
  Se  Se225  1  0.25208641  0.41520054  0.19982019  1
  Se  Se226  1  0.24253071  0.43791661  0.68382368  1
  Se  Se227  1  0.25201618  0.74229187  0.18951781  1
  Se  Se228  1  0.24616737  0.75298561  0.70150731  1
  Se  Se229  1  0.58194416  0.08262023  0.20006210  1
  Se  Se230  1  0.59739142  0.07392177  0.70279235  1
  Se  Se231  1  0.57932223  0.42390820  0.19460750  1
  Se  Se232  1  0.57358854  0.42871537  0.68812740  1
  Se  Se233  1  0.58119365  0.75501968  0.18467410  1
  Se  Se234  1  0.58471183  0.74700390  0.69720546  1
  Se  Se235  1  0.90498169  0.09275199  0.18568404  1
  Se  Se236  1  0.92324869  0.07446406  0.69277264  1
  Se  Se237  1  0.92612214  0.41874048  0.19455674  1
  Se  Se238  1  0.91635927  0.41343936  0.69549619  1
  Se  Se239  1  0.91612431  0.76621352  0.18339556  1
  Se  Se240  1  0.91656187  0.74594437  0.70433228  1
  Se  Se241  1  0.08454390  0.23873815  0.20572610  1
  Se  Se242  1  0.08427574  0.25437242  0.69767806  1
  Se  Se243  1  0.09397513  0.57746881  0.18542820  1
  Se  Se244  1  0.07248885  0.58988791  0.70219010  1
  Se  Se245  1  0.07982653  0.90019641  0.18421211  1
  Se  Se246  1  0.08305094  0.91937872  0.70538698  1
  Se  Se247  1  0.41012214  0.25190619  0.20279317  1
  Se  Se248  1  0.42921374  0.24733581  0.69410011  1
  Se  Se249  1  0.41720246  0.58569829  0.20410727  1
  Se  Se250  1  0.40175429  0.58626762  0.68862079  1
  Se  Se251  1  0.41442319  0.91230620  0.19296805  1
  Se  Se252  1  0.42461508  0.90977325  0.68249147  1
  Se  Se253  1  0.75068277  0.25317429  0.18955708  1
  Se  Se254  1  0.76566537  0.24229011  0.68684200  1
  Se  Se255  1  0.76513961  0.58826691  0.19074041  1
  Se  Se256  1  0.74811402  0.57967802  0.69967360  1
  Se  Se257  1  0.74603435  0.92796575  0.19419182  1
  Se  Se258  1  0.75562485  0.91407873  0.69831096  1
