# generated using pymatgen
data_In86Cu29Se144
_symmetry_space_group_name_H-M   'P 1'
_cell_length_a   17.58099418
_cell_length_b   17.58165630
_cell_length_c   23.43499888
_cell_angle_alpha   89.98865012
_cell_angle_beta   89.99901240
_cell_angle_gamma   89.99726588
_symmetry_Int_Tables_number   1
_chemical_formula_structural   In86Cu29Se144
_chemical_formula_sum   'In86 Cu29 Se144'
_cell_volume   7243.82823816
_cell_formula_units_Z   1
loop_
 _symmetry_equiv_pos_site_id
 _symmetry_equiv_pos_as_xyz
  1  'x, y, z'
loop_
 _atom_site_type_symbol
 _atom_site_label
 _atom_site_symmetry_multiplicity
 _atom_site_fract_x
 _atom_site_fract_y
 _atom_site_fract_z
 _atom_site_occupancy
  In  In0  1  0.01005641  0.17142095  0.12995423  1
  In  In1  1  -0.00983829  0.15401503  0.60631860  1
  In  In2  1  -0.00014703  0.50265832  0.13533369  1
  In  In3  1  0.00494349  0.51084259  0.61854542  1
  In  In4  1  -0.00432050  0.82317263  0.12948860  1
  In  In5  1  -0.00581378  0.82884213  0.61880382  1
  In  In6  1  0.35390989  0.17960375  0.13091905  1
  In  In7  1  0.33338263  0.16498702  0.61530081  1
  In  In8  1  0.33046648  0.49780796  0.12594144  1
  In  In9  1  0.33160660  0.49451929  0.61638695  1
  In  In10  1  0.33853153  0.81127736  0.12655180  1
  In  In11  1  0.33263699  0.83362075  0.61664420  1
  In  In12  1  0.63568184  0.18552232  0.15356180  1
  In  In13  1  0.66824166  0.17039978  0.61757698  1
  In  In14  1  0.65198885  0.51057358  0.14411586  1
  In  In15  1  0.66607626  0.49982416  0.61855690  1
  In  In16  1  0.66457221  0.84125285  0.13849208  1
  In  In17  1  0.65898084  0.82294615  0.61480532  1
  In  In18  1  0.15358706  0.00725387  0.39746380  1
  In  In19  1  0.16185945  0.00205805  0.86173708  1
  In  In20  1  0.16761971  0.34079367  0.37742624  1
  In  In21  1  0.18063690  0.33561667  0.87638655  1
  In  In22  1  0.15467295  0.67722073  0.38296500  1
  In  In23  1  0.15120256  0.65744392  0.87400818  1
  In  In24  1  0.51306590  -0.00710010  0.38056216  1
  In  In25  1  0.49298307  0.00064511  0.87495590  1
  In  In26  1  0.50693635  0.33799994  0.36543407  1
  In  In27  1  0.51267675  0.33552395  0.87119041  1
  In  In28  1  0.51740764  0.64971832  0.37865790  1
  In  In29  1  0.50631111  0.65681442  0.87971275  1
  In  In30  1  0.83046528  0.00745712  0.39231917  1
  In  In31  1  0.83287186  -0.01505506  0.86661658  1
  In  In32  1  0.83531363  0.32986867  0.37757942  1
  In  In33  1  0.82563842  0.34877781  0.87034608  1
  In  In34  1  0.82845307  0.66583298  0.37290929  1
  In  In35  1  0.83647063  0.67076397  0.86429789  1
  In  In36  1  -0.00751398  0.17168087  0.39103623  1
  In  In37  1  0.01301708  0.16520940  0.86601729  1
  In  In38  1  -0.00180848  0.50163278  0.37770668  1
  In  In39  1  -0.00026452  0.51468263  0.87898809  1
  In  In40  1  0.00047158  0.83158073  0.38740718  1
  In  In41  1  -0.00642905  0.82446150  0.85878487  1
  In  In42  1  0.33356268  0.17913976  0.37476358  1
  In  In43  1  0.33173850  0.16436131  0.86978371  1
  In  In44  1  0.34782539  0.48746871  0.37737316  1
  In  In45  1  0.33197467  0.49914537  0.88536130  1
  In  In46  1  0.32798959  0.83757423  0.38311440  1
  In  In47  1  0.34305047  0.83896764  0.87406659  1
  In  In48  1  0.66526042  0.17081325  0.37551293  1
  In  In49  1  0.65752981  0.17985665  0.86919923  1
  In  In50  1  0.66702117  0.50145999  0.36842605  1
  In  In51  1  0.66500131  0.49530009  0.86819564  1
  In  In52  1  0.66855990  0.82720433  0.37490094  1
  In  In53  1  0.66976741  0.82156107  0.87350991  1
  In  In54  1  0.16405602  0.00758635  0.12844746  1
  In  In55  1  0.12537217  -0.02841453  0.58575690  1
  In  In56  1  0.15502158  0.34830897  0.14002529  1
  In  In57  1  0.16673837  0.33139618  0.61249984  1
  In  In58  1  0.16906106  0.65691890  0.12994539  1
  In  In59  1  0.16032707  0.66072468  0.62415544  1
  In  In60  1  0.51445012  -0.00583316  0.13432468  1
  In  In61  1  0.50103007  0.00417735  0.61521758  1
  In  In62  1  0.47664970  0.35569295  0.16087330  1
  In  In63  1  0.50521469  0.33797655  0.61702468  1
  In  In64  1  0.50431767  0.66852038  0.11865633  1
  In  In65  1  0.51085057  0.67349375  0.61681717  1
  In  In66  1  0.81809590  -0.01504340  0.13160205  1
  In  In67  1  0.84873846  0.00561049  0.60847418  1
  In  In68  1  0.82822186  0.34524480  0.14015965  1
  In  In69  1  0.81963788  0.32327405  0.61254344  1
  In  In70  1  0.83781260  0.67084425  0.13990163  1
  In  In71  1  0.83030942  0.66527156  0.61774725  1
  In  In72  1  0.17344588  0.82710288  -0.00576933  1
  In  In73  1  0.33108682  0.00337057  0.74723295  1
  In  In74  1  0.33438860  0.66158535  0.25427574  1
  In  In75  1  0.67535583  -0.00097009  0.73580711  1
  In  In76  1  -0.00840914  0.33424302  0.74390139  1
  In  In77  1  0.83414445  0.82287567  -0.00260262  1
  In  In78  1  0.17591959  0.17087480  -0.00541973  1
  In  In79  1  -0.01010982  0.00696175  0.26855994  1
  In  In80  1  0.82993553  0.16135964  0.00849057  1
  In  In81  1  0.33362763  0.00210426  0.26350550  1
  In  In82  1  0.33657391  0.33307537  0.74390900  1
  In  In83  1  0.33031042  0.66871695  0.73882372  1
  In  In84  1  0.49856852  0.17060178  -0.00268405  1
  In  In85  1  0.83269267  0.50875325  0.01121872  1
  Cu  Cu86  1  0.34322320  0.33866101  0.49293090  1
  Cu  Cu87  1  0.82675633  0.50227582  0.74284991  1
  Cu  Cu88  1  0.49915157  0.82720944  0.25427901  1
  Cu  Cu89  1  0.84075299  0.83175948  0.74035934  1
  Cu  Cu90  1  0.15709804  0.50326657  0.75072654  1
  Cu  Cu91  1  0.66684571  0.66197683  0.49367576  1
  Cu  Cu92  1  0.66438729  0.33663767  0.49157589  1
  Cu  Cu93  1  0.34187896  -0.01312891  0.00279109  1
  Cu  Cu94  1  0.65950097  0.33666563  0.00068891  1
  Cu  Cu95  1  0.50822173  0.83146183  0.74732554  1
  Cu  Cu96  1  0.84127623  0.49838656  0.25993721  1
  Cu  Cu97  1  0.66228996  -0.00176579  0.01234924  1
  Cu  Cu98  1  0.15905691  0.15521339  0.73491513  1
  Cu  Cu99  1  0.33281516  0.33892640  0.00977444  1
  Cu  Cu100  1  0.33200424  0.66714372  0.49696310  1
  Cu  Cu101  1  0.66549824  -0.00050172  0.49912948  1
  Cu  Cu102  1  0.50849890  0.50098941  0.74583022  1
  Cu  Cu103  1  -0.00603470  0.66131774  0.49794238  1
  Cu  Cu104  1  0.34220489  0.66235312  0.00132949  1
  Cu  Cu105  1  0.83688945  0.15867216  0.26238516  1
  Cu  Cu106  1  0.17091908  0.17798059  0.25431784  1
  Cu  Cu107  1  0.00057782  0.34007528  0.49923458  1
  Cu  Cu108  1  0.16201364  0.50564809  0.25605665  1
  Cu  Cu109  1  0.33958704  0.00613521  0.49444577  1
  Cu  Cu110  1  0.00324450  0.34341573  0.01129558  1
  Cu  Cu111  1  0.15027156  0.83682612  0.25986348  1
  Cu  Cu112  1  0.66584541  0.66318068  0.00196315  1
  Cu  Cu113  1  -0.00592324  -0.00340729  -0.00901391  1
  Cu  Cu114  1  0.83369227  0.16393946  0.73739345  1
  Se  Se115  1  0.07606990  0.07829628  0.05011984  1
  Se  Se116  1  0.10840755  0.10898254  0.55078549  1
  Se  Se117  1  0.08592011  0.42744240  0.06204173  1
  Se  Se118  1  0.08549316  0.42306535  0.55133126  1
  Se  Se119  1  0.08340137  0.74495660  0.05899616  1
  Se  Se120  1  0.07963729  0.74123389  0.55284151  1
  Se  Se121  1  0.41477430  0.07541603  0.06101848  1
  Se  Se122  1  0.42365373  0.09058459  0.54664575  1
  Se  Se123  1  0.42261438  0.41106857  0.06636205  1
  Se  Se124  1  0.42295153  0.42243360  0.54934679  1
  Se  Se125  1  0.42304639  0.75266538  0.04843634  1
  Se  Se126  1  0.41675095  0.74904269  0.55191841  1
  Se  Se127  1  0.73514192  0.08337023  0.07185679  1
  Se  Se128  1  0.74960036  0.08439968  0.55058142  1
  Se  Se129  1  0.74074847  0.41300966  0.06280514  1
  Se  Se130  1  0.74794703  0.41842187  0.54704549  1
  Se  Se131  1  0.74367539  0.74322550  0.06411573  1
  Se  Se132  1  0.74868747  0.74750894  0.54697206  1
  Se  Se133  1  0.25201936  0.25571833  0.06787649  1
  Se  Se134  1  0.25909536  0.25630766  0.54789703  1
  Se  Se135  1  0.25478782  0.58672428  0.05699954  1
  Se  Se136  1  0.25040974  0.58619057  0.55522049  1
  Se  Se137  1  0.25519331  0.91802724  0.06520638  1
  Se  Se138  1  0.25719566  0.92207454  0.54866163  1
  Se  Se139  1  0.58172017  0.25735279  0.06263567  1
  Se  Se140  1  0.58452617  0.25178179  0.54861498  1
  Se  Se141  1  0.58791132  0.57600159  0.05666041  1
  Se  Se142  1  0.58129701  0.58080582  0.54862567  1
  Se  Se143  1  0.58174975  0.90866678  0.05981465  1
  Se  Se144  1  0.58022943  0.91507619  0.55051399  1
  Se  Se145  1  0.92090363  0.25872634  0.06416850  1
  Se  Se146  1  0.91455135  0.25199695  0.54614511  1
  Se  Se147  1  0.92688146  0.59960046  0.06422275  1
  Se  Se148  1  0.90947374  0.57656945  0.54929787  1
  Se  Se149  1  0.92003269  0.92143209  0.05759863  1
  Se  Se150  1  0.91690527  0.90927940  0.54429073  1
  Se  Se151  1  0.08701057  0.25680299  0.44828221  1
  Se  Se152  1  0.07418570  0.26293652  0.94260074  1
  Se  Se153  1  0.08402426  0.58031009  0.44846722  1
  Se  Se154  1  0.09076303  0.57400855  0.95131972  1
  Se  Se155  1  0.08264696  0.91084207  0.45902662  1
  Se  Se156  1  0.07894177  0.91788951  0.93471957  1
  Se  Se157  1  0.42638566  0.25620351  0.43927961  1
  Se  Se158  1  0.40319658  0.26240114  0.93901193  1
  Se  Se159  1  0.41640820  0.58465564  0.44435238  1
  Se  Se160  1  0.42397783  0.57573023  0.94940539  1
  Se  Se161  1  0.42028447  0.91566297  0.44621890  1
  Se  Se162  1  0.42775537  0.91007579  0.94777101  1
  Se  Se163  1  0.75158480  0.24799180  0.44721670  1
  Se  Se164  1  0.74569421  0.25819609  0.94354827  1
  Se  Se165  1  0.75055948  0.57686154  0.44293075  1
  Se  Se166  1  0.74834909  0.59011157  0.93809070  1
  Se  Se167  1  0.74575722  0.91091718  0.44850084  1
  Se  Se168  1  0.74140661  0.92359743  0.94563764  1
  Se  Se169  1  0.25580986  0.09180497  0.44482083  1
  Se  Se170  1  0.26085680  0.06558804  0.94021379  1
  Se  Se171  1  0.25192607  0.42261085  0.44730318  1
  Se  Se172  1  0.24724120  0.41700599  0.95326632  1
  Se  Se173  1  0.24540523  0.75406431  0.45006458  1
  Se  Se174  1  0.26404123  0.73609160  0.93425825  1
  Se  Se175  1  0.58469943  0.08736652  0.44720894  1
  Se  Se176  1  0.59415936  0.07734439  0.94191768  1
  Se  Se177  1  0.58197525  0.42174357  0.44001270  1
  Se  Se178  1  0.58226608  0.42136120  0.94388323  1
  Se  Se179  1  0.58007646  0.74949526  0.44606652  1
  Se  Se180  1  0.58638667  0.74804018  0.94554549  1
  Se  Se181  1  0.93464335  0.06845536  0.45540085  1
  Se  Se182  1  0.91667920  0.08184957  0.93392469  1
  Se  Se183  1  0.91400928  0.41870113  0.44569286  1
  Se  Se184  1  0.91745513  0.41348379  0.94675393  1
  Se  Se185  1  0.90936482  0.74523668  0.44695099  1
  Se  Se186  1  0.93006910  0.73762164  0.94004340  1
  Se  Se187  1  0.25360117  0.26276358  0.30514340  1
  Se  Se188  1  0.23659846  0.23718163  0.79801037  1
  Se  Se189  1  0.24399699  0.58081708  0.31898730  1
  Se  Se190  1  0.25052004  0.57448142  0.80640068  1
  Se  Se191  1  0.23031720  0.91842416  0.31699462  1
  Se  Se192  1  0.24506072  0.90364490  0.80352427  1
  Se  Se193  1  0.60403284  0.26333109  0.30179797  1
  Se  Se194  1  0.57805528  0.25236625  0.79653598  1
  Se  Se195  1  0.58326699  0.57973455  0.29688464  1
  Se  Se196  1  0.58612590  0.58665901  0.80244800  1
  Se  Se197  1  0.58394963  0.91117569  0.30471506  1
  Se  Se198  1  0.58459031  0.91670519  0.80677767  1
  Se  Se199  1  0.92189663  0.24431722  0.31042917  1
  Se  Se200  1  0.90498180  0.24248125  0.80877671  1
  Se  Se201  1  0.92233062  0.58861898  0.30694108  1
  Se  Se202  1  0.91389656  0.57636915  0.80173367  1
  Se  Se203  1  0.90407973  0.90983052  0.32034339  1
  Se  Se204  1  0.91969629  0.91957499  0.79357171  1
  Se  Se205  1  0.09342777  0.09536546  0.31551704  1
  Se  Se206  1  0.07508759  0.07630497  0.79131517  1
  Se  Se207  1  0.08077932  0.41833177  0.30731771  1
  Se  Se208  1  0.08544420  0.41539335  0.81100535  1
  Se  Se209  1  0.06998350  0.74917141  0.30893107  1
  Se  Se210  1  0.09241683  0.74917331  0.80245808  1
  Se  Se211  1  0.42950918  0.08901435  0.31556135  1
  Se  Se212  1  0.42907851  0.09615594  0.80206031  1
  Se  Se213  1  0.41895859  0.41783768  0.29685109  1
  Se  Se214  1  0.41940158  0.42858384  0.80609871  1
  Se  Se215  1  0.41813952  0.75278044  0.31695408  1
  Se  Se216  1  0.42472602  0.75132359  0.80486193  1
  Se  Se217  1  0.75215403  0.07861224  0.31439589  1
  Se  Se218  1  0.75504181  0.09046312  0.80730234  1
  Se  Se219  1  0.75535128  0.41228080  0.30671543  1
  Se  Se220  1  0.74481210  0.41555441  0.79434685  1
  Se  Se221  1  0.72536431  0.72536567  0.30649555  1
  Se  Se222  1  0.75378403  0.75562786  0.79791724  1
  Se  Se223  1  0.24875557  0.09353734  0.19475150  1
  Se  Se224  1  0.24388947  0.07860540  0.67840091  1
  Se  Se225  1  0.24944443  0.42519756  0.20243269  1
  Se  Se226  1  0.23753246  0.42255272  0.69151740  1
  Se  Se227  1  0.23776490  0.76031836  0.20099571  1
  Se  Se228  1  0.23837815  0.76340694  0.68809719  1
  Se  Se229  1  0.57993157  0.07390386  0.21039815  1
  Se  Se230  1  0.57699404  0.09024061  0.68941724  1
  Se  Se231  1  0.61094461  0.38851403  0.19716386  1
  Se  Se232  1  0.58561190  0.41544333  0.69064212  1
  Se  Se233  1  0.57818975  0.74681660  0.19489271  1
  Se  Se234  1  0.58841145  0.74640768  0.69446801  1
  Se  Se235  1  0.91184155  0.08468905  0.18933105  1
  Se  Se236  1  0.91957614  0.08243869  0.68802165  1
  Se  Se237  1  0.92449096  0.41484962  0.20498931  1
  Se  Se238  1  0.90574937  0.42190662  0.68098507  1
  Se  Se239  1  0.90369001  0.77136707  0.20324400  1
  Se  Se240  1  0.91739326  0.74124773  0.68957527  1
  Se  Se241  1  0.07827799  0.25462320  0.20439331  1
  Se  Se242  1  0.08146107  0.24664616  0.68284066  1
  Se  Se243  1  0.08065967  0.59136224  0.20296836  1
  Se  Se244  1  0.07568059  0.58671532  0.69845096  1
  Se  Se245  1  0.08019706  0.92273128  0.19689060  1
  Se  Se246  1  0.07652014  0.92182533  0.68118722  1
  Se  Se247  1  0.42519327  0.23835634  0.21359667  1
  Se  Se248  1  0.42409723  0.24333314  0.68616284  1
  Se  Se249  1  0.42550327  0.57881748  0.19144945  1
  Se  Se250  1  0.42448142  0.57586254  0.68553976  1
  Se  Se251  1  0.41314475  0.90604958  0.19586099  1
  Se  Se252  1  0.42611344  0.91151482  0.68991391  1
  Se  Se253  1  0.76289418  0.23558964  0.19603639  1
  Se  Se254  1  0.74778647  0.24943653  0.69213963  1
  Se  Se255  1  0.75856995  0.57740454  0.20124092  1
  Se  Se256  1  0.74508206  0.58550905  0.68911052  1
  Se  Se257  1  0.74901075  0.91378150  0.21033467  1
  Se  Se258  1  0.76168289  0.90792498  0.67630879  1
