# generated using pymatgen
data_In86Cu29Se144
_symmetry_space_group_name_H-M   'P 1'
_cell_length_a   17.57762316
_cell_length_b   17.57851477
_cell_length_c   23.43707831
_cell_angle_alpha   89.98543588
_cell_angle_beta   90.00041078
_cell_angle_gamma   90.01555479
_symmetry_Int_Tables_number   1
_chemical_formula_structural   In86Cu29Se144
_chemical_formula_sum   'In86 Cu29 Se144'
_cell_volume   7241.78736539
_cell_formula_units_Z   1
loop_
 _symmetry_equiv_pos_site_id
 _symmetry_equiv_pos_as_xyz
  1  'x, y, z'
loop_
 _atom_site_type_symbol
 _atom_site_label
 _atom_site_symmetry_multiplicity
 _atom_site_fract_x
 _atom_site_fract_y
 _atom_site_fract_z
 _atom_site_occupancy
  In  In0  1  0.03763675  0.13352745  0.16952096  1
  In  In1  1  -0.00384041  0.16971758  0.62980067  1
  In  In2  1  0.00910845  0.49258974  0.13196688  1
  In  In3  1  -0.00613805  0.48829777  0.61214000  1
  In  In4  1  0.04328127  0.80522676  0.16447298  1
  In  In5  1  0.00013420  0.83784987  0.61988175  1
  In  In6  1  0.32208280  0.15416090  0.11746857  1
  In  In7  1  0.33605587  0.16246187  0.62451571  1
  In  In8  1  0.33547384  0.51151130  0.12447550  1
  In  In9  1  0.33265249  0.50663043  0.60830792  1
  In  In10  1  0.32874501  0.82812635  0.12906278  1
  In  In11  1  0.32640492  0.81846862  0.60551798  1
  In  In12  1  0.65328546  0.16340287  0.11843049  1
  In  In13  1  0.67544479  0.15713082  0.63702071  1
  In  In14  1  0.65670388  0.50838363  0.12437360  1
  In  In15  1  0.66405790  0.49514718  0.62565039  1
  In  In16  1  0.66892231  0.84772418  0.12384447  1
  In  In17  1  0.67174054  0.84146774  0.61534155  1
  In  In18  1  0.14052103  -0.02424989  0.34293766  1
  In  In19  1  0.15784663  0.00820176  0.88599366  1
  In  In20  1  0.16707078  0.34208079  0.37291258  1
  In  In21  1  0.16001459  0.33603331  0.88011504  1
  In  In22  1  0.16660755  0.67970151  0.36549390  1
  In  In23  1  0.16099075  0.66263847  0.88878895  1
  In  In24  1  0.48803575  -0.01723375  0.35818775  1
  In  In25  1  0.50136679  -0.00302587  0.88218220  1
  In  In26  1  0.50388431  0.34237941  0.37578484  1
  In  In27  1  0.50664986  0.32652101  0.88278358  1
  In  In28  1  0.47864383  0.68338892  0.38990641  1
  In  In29  1  0.48942475  0.67630190  0.88252563  1
  In  In30  1  0.82180813  -0.00027667  0.36573901  1
  In  In31  1  0.84197508  -0.00223646  0.86721932  1
  In  In32  1  0.85749512  0.34267905  0.37751419  1
  In  In33  1  0.83320598  0.33206073  0.86438912  1
  In  In34  1  0.84481822  0.65490813  0.38455589  1
  In  In35  1  0.83274350  0.68453212  0.87304406  1
  In  In36  1  -0.00049260  0.16831513  0.35965933  1
  In  In37  1  -0.00189094  0.16468163  0.87572283  1
  In  In38  1  0.00251606  0.50278963  0.37494496  1
  In  In39  1  0.01249637  0.49302853  0.87570203  1
  In  In40  1  0.00195176  0.82854463  0.37212473  1
  In  In41  1  -0.00107404  0.84449267  0.88276761  1
  In  In42  1  0.33002940  0.15381058  0.36396325  1
  In  In43  1  0.33112921  0.16643006  0.88909479  1
  In  In44  1  0.30809425  0.52983364  0.39629791  1
  In  In45  1  0.32740007  0.50359253  0.88341172  1
  In  In46  1  0.32645377  0.83353227  0.36739454  1
  In  In47  1  0.32711669  0.83320051  0.88349150  1
  In  In48  1  0.68071491  0.15771844  0.37196994  1
  In  In49  1  0.66661686  0.15832264  0.87224769  1
  In  In50  1  0.65817293  0.50861046  0.38671232  1
  In  In51  1  0.67253389  0.48823677  0.87429554  1
  In  In52  1  0.65847313  0.84112411  0.37836898  1
  In  In53  1  0.65724527  0.83545466  0.87164809  1
  In  In54  1  0.17496466  -0.00583755  0.13360834  1
  In  In55  1  0.16168527  -0.01438875  0.61993623  1
  In  In56  1  0.15568467  0.32402347  0.12202775  1
  In  In57  1  0.15617356  0.33495163  0.62354340  1
  In  In58  1  0.16955146  0.66723839  0.12912272  1
  In  In59  1  0.15997717  0.65892610  0.60878984  1
  In  In60  1  0.49555737  -0.00347272  0.12221546  1
  In  In61  1  0.51108281  0.00184889  0.62243507  1
  In  In62  1  0.50036213  0.33696729  0.11583350  1
  In  In63  1  0.50667149  0.34611035  0.62491528  1
  In  In64  1  0.48680952  0.65984274  0.12117493  1
  In  In65  1  0.50029557  0.66845631  0.61269745  1
  In  In66  1  0.85075835  -0.00288163  0.14123723  1
  In  In67  1  0.83603312  -0.00678596  0.62905352  1
  In  In68  1  0.84879590  0.33258337  0.12825723  1
  In  In69  1  0.83457857  0.33215536  0.62913638  1
  In  In70  1  0.84443578  0.67961905  0.12867329  1
  In  In71  1  0.84148574  0.67359044  0.61441285  1
  In  In72  1  0.16476457  0.16674711  0.48547338  1
  In  In73  1  0.83657969  0.16526907  0.00560593  1
  In  In74  1  0.67086672  0.33004043  0.25463723  1
  In  In75  1  0.84061152  0.83700485  0.00316944  1
  In  In76  1  0.66611716  0.66760749  0.75253832  1
  In  In77  1  -0.00163955  0.66774129  0.74631841  1
  In  In78  1  0.33410273  0.33111692  0.74903941  1
  In  In79  1  0.33173361  0.33262475  0.24867536  1
  In  In80  1  0.50108341  0.16559136  0.49770447  1
  In  In81  1  0.33078841  0.66550597  0.73649407  1
  In  In82  1  0.83819361  0.16694149  0.50192897  1
  In  In83  1  0.33384731  -0.00257892  0.74697896  1
  In  In84  1  0.67038741  0.66861043  0.25167388  1
  In  In85  1  0.83193774  0.50219865  0.00632633  1
  Cu  Cu86  1  0.49257203  0.50287443  0.25494637  1
  Cu  Cu87  1  0.67310401  0.33471807  0.50493137  1
  Cu  Cu88  1  0.01011697  -0.00394451  0.01496070  1
  Cu  Cu89  1  0.50238877  0.16053672  0.24123181  1
  Cu  Cu90  1  0.33389132  -0.00342578  0.00635893  1
  Cu  Cu91  1  0.50036875  0.83187266  0.24886280  1
  Cu  Cu92  1  0.32811639  0.34029313  0.00519559  1
  Cu  Cu93  1  0.51003098  0.16747688  0.75832244  1
  Cu  Cu94  1  0.83670100  0.16586907  0.75043700  1
  Cu  Cu95  1  0.00252804  -0.00327502  0.49409758  1
  Cu  Cu96  1  0.50593082  0.49362630  0.75125181  1
  Cu  Cu97  1  0.66184453  0.33473886  -0.00195164  1
  Cu  Cu98  1  0.32698540  0.67097900  0.00562316  1
  Cu  Cu99  1  0.15627787  0.16269590  0.75518997  1
  Cu  Cu100  1  0.67184833  0.66647630  0.49991715  1
  Cu  Cu101  1  0.15810766  0.83854469  0.74813901  1
  Cu  Cu102  1  0.33072629  -0.01378426  0.48761336  1
  Cu  Cu103  1  0.00361672  0.32847074  0.00080262  1
  Cu  Cu104  1  0.00621959  0.67296062  0.49361080  1
  Cu  Cu105  1  0.83798499  0.83337201  0.25668441  1
  Cu  Cu106  1  0.65602214  0.66699508  -0.00150986  1
  Cu  Cu107  1  0.33256186  0.33457823  0.49695295  1
  Cu  Cu108  1  0.16527127  0.49623098  0.75151820  1
  Cu  Cu109  1  0.49961640  0.83922807  0.74765760  1
  Cu  Cu110  1  0.84121449  0.50011518  0.74460741  1
  Cu  Cu111  1  0.66083318  -0.00723748  0.49402967  1
  Cu  Cu112  1  0.16622633  0.50266935  0.25429084  1
  Cu  Cu113  1  0.83872473  0.50034588  0.25657965  1
  Cu  Cu114  1  0.66134351  0.00266173  0.00022980  1
  Se  Se115  1  0.08583779  0.08437153  0.07068878  1
  Se  Se116  1  0.07765096  0.08203880  0.55476085  1
  Se  Se117  1  0.08222771  0.41700421  0.05345577  1
  Se  Se118  1  0.10269261  0.42992051  0.55173531  1
  Se  Se119  1  0.08284203  0.75575140  0.06654668  1
  Se  Se120  1  0.08431515  0.75848242  0.55016092  1
  Se  Se121  1  0.42005853  0.08531367  0.05180088  1
  Se  Se122  1  0.40480757  0.06974726  0.55144873  1
  Se  Se123  1  0.41444135  0.42436044  0.05467125  1
  Se  Se124  1  0.41898227  0.41212525  0.55180023  1
  Se  Se125  1  0.41510912  0.75381804  0.05490112  1
  Se  Se126  1  0.41922752  0.74529438  0.54262120  1
  Se  Se127  1  0.74996548  0.06902171  0.06286947  1
  Se  Se128  1  0.73977197  0.07619757  0.55419821  1
  Se  Se129  1  0.74092650  0.40741917  0.06406258  1
  Se  Se130  1  0.75493203  0.41663511  0.55980934  1
  Se  Se131  1  0.74227238  0.74263531  0.05790905  1
  Se  Se132  1  0.75374023  0.75491200  0.54964140  1
  Se  Se133  1  0.24718994  0.25033386  0.05418248  1
  Se  Se134  1  0.25558321  0.24991556  0.55615420  1
  Se  Se135  1  0.24473855  0.58280436  0.05476308  1
  Se  Se136  1  0.26520885  0.60323103  0.54444958  1
  Se  Se137  1  0.24887907  0.91367136  0.05810800  1
  Se  Se138  1  0.24422085  0.91346737  0.54678784  1
  Se  Se139  1  0.57818413  0.24871078  0.04808098  1
  Se  Se140  1  0.59379780  0.24828357  0.56235832  1
  Se  Se141  1  0.57534903  0.58130533  0.05148990  1
  Se  Se142  1  0.59020479  0.58114627  0.55442008  1
  Se  Se143  1  0.58043788  0.91453382  0.05116464  1
  Se  Se144  1  0.57514054  0.91338563  0.54852012  1
  Se  Se145  1  0.93306894  0.24580083  0.06384054  1
  Se  Se146  1  0.92993413  0.26140501  0.55492911  1
  Se  Se147  1  0.92514305  0.58898100  0.06305080  1
  Se  Se148  1  0.92457026  0.58896673  0.54965359  1
  Se  Se149  1  0.93051062  0.91234142  0.07137950  1
  Se  Se150  1  0.91575135  0.92192135  0.55204693  1
  Se  Se151  1  0.06836961  0.25922061  0.43655086  1
  Se  Se152  1  0.08320800  0.24298285  0.94522000  1
  Se  Se153  1  0.08788684  0.59244263  0.43668061  1
  Se  Se154  1  0.07771794  0.57545859  0.95022054  1
  Se  Se155  1  0.08687702  0.91915017  0.43687972  1
  Se  Se156  1  0.08714866  0.91413030  0.95420551  1
  Se  Se157  1  0.40623049  0.25107526  0.43578283  1
  Se  Se158  1  0.41269211  0.25716327  0.95063976  1
  Se  Se159  1  0.43938652  0.55842028  0.43892875  1
  Se  Se160  1  0.41071969  0.58896324  0.94873266  1
  Se  Se161  1  0.42139268  0.90780732  0.43838300  1
  Se  Se162  1  0.41486325  0.91519044  0.94764051  1
  Se  Se163  1  0.74728422  0.25731128  0.44057273  1
  Se  Se164  1  0.74873745  0.25656220  0.94226139  1
  Se  Se165  1  0.75492836  0.57820041  0.45177321  1
  Se  Se166  1  0.74495340  0.59394337  0.93998704  1
  Se  Se167  1  0.75368771  0.91772238  0.44306835  1
  Se  Se168  1  0.74619067  0.92366289  0.94106170  1
  Se  Se169  1  0.24829671  0.06707011  0.43148114  1
  Se  Se170  1  0.24839137  0.08160484  0.95419677  1
  Se  Se171  1  0.24314676  0.41686971  0.44937533  1
  Se  Se172  1  0.24338832  0.41868654  0.94773318  1
  Se  Se173  1  0.25779928  0.74370739  0.43888055  1
  Se  Se174  1  0.24291632  0.75283139  0.95104356  1
  Se  Se175  1  0.58237240  0.07430369  0.43302481  1
  Se  Se176  1  0.58165461  0.08872893  0.94655407  1
  Se  Se177  1  0.58424445  0.41217250  0.45182307  1
  Se  Se178  1  0.58224506  0.42368155  0.94671115  1
  Se  Se179  1  0.58758131  0.74883962  0.44657758  1
  Se  Se180  1  0.58024666  0.75742819  0.94553855  1
  Se  Se181  1  0.92273301  0.07942468  0.43609257  1
  Se  Se182  1  0.92521173  0.06708003  0.94924120  1
  Se  Se183  1  0.91530090  0.43314754  0.44960388  1
  Se  Se184  1  0.91587478  0.40653676  0.94386835  1
  Se  Se185  1  0.91679878  0.75584043  0.44579778  1
  Se  Se186  1  0.92913182  0.73844807  0.94778531  1
  Se  Se187  1  0.23780405  0.24256615  0.30458486  1
  Se  Se188  1  0.24578843  0.24020171  0.80997301  1
  Se  Se189  1  0.25312066  0.58600560  0.30378098  1
  Se  Se190  1  0.24356651  0.58307964  0.80683793  1
  Se  Se191  1  0.26560527  0.93217341  0.29805279  1
  Se  Se192  1  0.24134736  0.91349369  0.80965172  1
  Se  Se193  1  0.57305399  0.23920627  0.30955102  1
  Se  Se194  1  0.59026951  0.25520316  0.80863467  1
  Se  Se195  1  0.57580703  0.58478032  0.31138078  1
  Se  Se196  1  0.57329787  0.58163678  0.81390034  1
  Se  Se197  1  0.59108724  0.91436688  0.29610676  1
  Se  Se198  1  0.57747638  0.92237686  0.80421843  1
  Se  Se199  1  0.88935345  0.23725971  0.30670400  1
  Se  Se200  1  0.92201607  0.24816198  0.80325024  1
  Se  Se201  1  0.92197102  0.58868461  0.30436780  1
  Se  Se202  1  0.91020545  0.57879517  0.81293746  1
  Se  Se203  1  0.91995680  0.92067231  0.30725221  1
  Se  Se204  1  0.91993802  0.90689442  0.80434020  1
  Se  Se205  1  0.08887619  0.09637015  0.29145837  1
  Se  Se206  1  0.07762517  0.07556915  0.80765665  1
  Se  Se207  1  0.08111980  0.41754895  0.30313403  1
  Se  Se208  1  0.08321344  0.40967466  0.80143590  1
  Se  Se209  1  0.08793521  0.76344787  0.29480323  1
  Se  Se210  1  0.08909176  0.75151204  0.81107018  1
  Se  Se211  1  0.41649465  0.08006833  0.29423658  1
  Se  Se212  1  0.41677189  0.09148539  0.81065966  1
  Se  Se213  1  0.41073314  0.42484813  0.31415115  1
  Se  Se214  1  0.41870045  0.42243282  0.81225599  1
  Se  Se215  1  0.41776515  0.74835862  0.30244123  1
  Se  Se216  1  0.41381452  0.75877093  0.80306222  1
  Se  Se217  1  0.74227061  0.07918373  0.29360466  1
  Se  Se218  1  0.75388579  0.08161030  0.80429940  1
  Se  Se219  1  0.75094403  0.42812066  0.31532852  1
  Se  Se220  1  0.75281416  0.41976599  0.79785798  1
  Se  Se221  1  0.75753140  0.75208597  0.31710553  1
  Se  Se222  1  0.75694430  0.76915198  0.80040612  1
  Se  Se223  1  0.25778577  0.08343922  0.19906330  1
  Se  Se224  1  0.23774545  0.08924732  0.69039608  1
  Se  Se225  1  0.24285319  0.42338711  0.18878571  1
  Se  Se226  1  0.25236738  0.42739805  0.68854310  1
  Se  Se227  1  0.24907060  0.74868632  0.20057129  1
  Se  Se228  1  0.23326670  0.75709448  0.68554853  1
  Se  Se229  1  0.58550515  0.07556649  0.19112454  1
  Se  Se230  1  0.58182951  0.07876294  0.70041940  1
  Se  Se231  1  0.57475664  0.42227650  0.19699747  1
  Se  Se232  1  0.59146793  0.41161999  0.70093235  1
  Se  Se233  1  0.58107101  0.75269349  0.18664468  1
  Se  Se234  1  0.57634732  0.75381183  0.68897574  1
  Se  Se235  1  0.90138717  0.10415606  0.20489400  1
  Se  Se236  1  0.91725630  0.08146513  0.69503689  1
  Se  Se237  1  0.91909839  0.41661024  0.20149118  1
  Se  Se238  1  0.92495952  0.41549441  0.69382259  1
  Se  Se239  1  0.91988252  0.74421277  0.20870192  1
  Se  Se240  1  0.90725613  0.76090275  0.69222141  1
  Se  Se241  1  0.07307932  0.26959682  0.20253382  1
  Se  Se242  1  0.08430655  0.25048308  0.69627978  1
  Se  Se243  1  0.08317314  0.58429324  0.19884422  1
  Se  Se244  1  0.08829251  0.57605683  0.68807541  1
  Se  Se245  1  0.07236077  0.93763022  0.20400537  1
  Se  Se246  1  0.07542704  0.92089142  0.69500754  1
  Se  Se247  1  0.42276471  0.24644869  0.18573651  1
  Se  Se248  1  0.43096466  0.24054475  0.69148932  1
  Se  Se249  1  0.41306941  0.58771069  0.20041603  1
  Se  Se250  1  0.42853867  0.57152400  0.68752435  1
  Se  Se251  1  0.41715750  0.91403854  0.19368090  1
  Se  Se252  1  0.41502311  0.90641337  0.68152498  1
  Se  Se253  1  0.74819631  0.24607526  0.18375164  1
  Se  Se254  1  0.75228997  0.25100513  0.69933061  1
  Se  Se255  1  0.76054642  0.57563957  0.19076891  1
  Se  Se256  1  0.76061637  0.58473431  0.68915542  1
  Se  Se257  1  0.75580736  0.91145101  0.19855227  1
  Se  Se258  1  0.73116610  0.93003123  0.69038011  1
