# generated using pymatgen
data_In86Cu29Se144
_symmetry_space_group_name_H-M   'P 1'
_cell_length_a   17.57601706
_cell_length_b   17.57649650
_cell_length_c   23.44084219
_cell_angle_alpha   89.98797748
_cell_angle_beta   89.97419264
_cell_angle_gamma   90.00841811
_symmetry_Int_Tables_number   1
_chemical_formula_structural   In86Cu29Se144
_chemical_formula_sum   'In86 Cu29 Se144'
_cell_volume   7241.45656801
_cell_formula_units_Z   1
loop_
 _symmetry_equiv_pos_site_id
 _symmetry_equiv_pos_as_xyz
  1  'x, y, z'
loop_
 _atom_site_type_symbol
 _atom_site_label
 _atom_site_symmetry_multiplicity
 _atom_site_fract_x
 _atom_site_fract_y
 _atom_site_fract_z
 _atom_site_occupancy
  In  In0  1  -0.00115197  0.16573944  0.12423285  1
  In  In1  1  -0.00095311  0.17923387  0.62965517  1
  In  In2  1  -0.01279319  0.49495667  0.13192953  1
  In  In3  1  -0.01606803  0.48965173  0.60711518  1
  In  In4  1  0.01530397  0.84114272  0.11237788  1
  In  In5  1  -0.01396523  0.83798311  0.62532110  1
  In  In6  1  0.32794994  0.16916335  0.12144631  1
  In  In7  1  0.34849627  0.16912575  0.64031813  1
  In  In8  1  0.34366922  0.48785858  0.13126421  1
  In  In9  1  0.32630181  0.49133511  0.61373490  1
  In  In10  1  0.33046995  0.85036066  0.13638890  1
  In  In11  1  0.33968382  0.83520600  0.62720666  1
  In  In12  1  0.67025278  0.16716625  0.11035371  1
  In  In13  1  0.66981011  0.15456733  0.63266523  1
  In  In14  1  0.66271443  0.51427125  0.12752762  1
  In  In15  1  0.68011189  0.50377561  0.61146754  1
  In  In16  1  0.66457361  0.81547093  0.12511418  1
  In  In17  1  0.67800648  0.82711402  0.64184198  1
  In  In18  1  0.16638651  0.00175299  0.36513103  1
  In  In19  1  0.17664733  -0.00239228  0.88178197  1
  In  In20  1  0.17317104  0.33781312  0.36720177  1
  In  In21  1  0.15429840  0.32273051  0.86947512  1
  In  In22  1  0.16763248  0.65534578  0.37122830  1
  In  In23  1  0.16984358  0.67066051  0.88354179  1
  In  In24  1  0.49358449  0.00563841  0.36967685  1
  In  In25  1  0.51113929  0.01666615  0.86633684  1
  In  In26  1  0.50022706  0.34303326  0.37765705  1
  In  In27  1  0.49205397  0.34157606  0.88025127  1
  In  In28  1  0.48988680  0.65500529  0.36234212  1
  In  In29  1  0.50494474  0.65608284  0.87802402  1
  In  In30  1  0.83253997  -0.00897841  0.37993613  1
  In  In31  1  0.82826659  0.00141096  0.87461298  1
  In  In32  1  0.83969898  0.32333128  0.38628944  1
  In  In33  1  0.83420560  0.31618189  0.86437430  1
  In  In34  1  0.83216820  0.67600442  0.38212227  1
  In  In35  1  0.82952250  0.68889160  0.87178119  1
  In  In36  1  -0.00876966  0.15733992  0.36806366  1
  In  In37  1  -0.00900955  0.17308798  0.88070459  1
  In  In38  1  0.01573395  0.49873090  0.38393684  1
  In  In39  1  0.00495997  0.49167591  0.86812647  1
  In  In40  1  -0.01795386  0.83040881  0.37271355  1
  In  In41  1  -0.00731535  0.84045778  0.88900113  1
  In  In42  1  0.32809121  0.16209876  0.36309663  1
  In  In43  1  0.33399611  0.16683189  0.87963515  1
  In  In44  1  0.33358775  0.49534042  0.37206709  1
  In  In45  1  0.34474813  0.50400933  0.87627971  1
  In  In46  1  0.33863167  0.83158818  0.35781091  1
  In  In47  1  0.31984011  0.84108721  0.88234789  1
  In  In48  1  0.67503582  0.17635875  0.38218541  1
  In  In49  1  0.67959618  0.15796228  0.88172328  1
  In  In50  1  0.65450599  0.50340267  0.38859213  1
  In  In51  1  0.65436154  0.49914977  0.87004744  1
  In  In52  1  0.68186965  0.82808354  0.37409571  1
  In  In53  1  0.67713541  0.84545968  0.86169870  1
  In  In54  1  0.16536372  0.00335968  0.12257206  1
  In  In55  1  0.17063759  0.01033087  0.62842489  1
  In  In56  1  0.17278836  0.32628897  0.12972375  1
  In  In57  1  0.16458557  0.34149900  0.63002885  1
  In  In58  1  0.16718755  0.68562717  0.12290955  1
  In  In59  1  0.17830178  0.65627826  0.62135107  1
  In  In60  1  0.48846193  0.00248950  0.12335457  1
  In  In61  1  0.50596807  0.00547723  0.64084531  1
  In  In62  1  0.49305092  0.32219966  0.11420978  1
  In  In63  1  0.48983978  0.33006042  0.62591062  1
  In  In64  1  0.50972020  0.66371777  0.13401871  1
  In  In65  1  0.51332097  0.66311883  0.62426981  1
  In  In66  1  0.84504572  0.00872062  0.11826402  1
  In  In67  1  0.82436653  -0.00891862  0.62271645  1
  In  In68  1  0.84293531  0.33080550  0.12823940  1
  In  In69  1  0.83554068  0.33719059  0.61794870  1
  In  In70  1  0.82457827  0.66648200  0.12474002  1
  In  In71  1  0.82928216  0.66173019  0.61823583  1
  In  In72  1  0.66399633  0.33587132  0.26024144  1
  In  In73  1  0.00188802  0.66638384  0.25092454  1
  In  In74  1  -0.00321261  0.66127663  0.74417562  1
  In  In75  1  0.16383089  0.17215858  0.50728619  1
  In  In76  1  0.66210844  -0.00816299  0.24688746  1
  In  In77  1  -0.00428864  0.00555347  0.75910250  1
  In  In78  1  0.66060375  0.32950609  0.74631292  1
  In  In79  1  0.83004857  0.49942497  0.00442781  1
  In  In80  1  0.50612425  0.17196605  0.50816401  1
  In  In81  1  0.15547580  0.82295206  0.49158717  1
  In  In82  1  0.16448537  0.50136543  0.00083158  1
  In  In83  1  0.49915590  0.83477744  0.00583943  1
  In  In84  1  0.33531960  0.66975389  0.75777927  1
  In  In85  1  0.50347124  0.83097873  0.50284404  1
  Cu  Cu86  1  -0.01619897  0.00098113  0.49706781  1
  Cu  Cu87  1  0.83400764  0.16612406  0.25027344  1
  Cu  Cu88  1  0.66546381  0.66767851  0.00063795  1
  Cu  Cu89  1  0.32983572  0.33371412  0.00092805  1
  Cu  Cu90  1  0.33325200  0.33530225  0.49764689  1
  Cu  Cu91  1  0.66573298  0.66839387  0.50136061  1
  Cu  Cu92  1  0.49738735  0.84044569  0.75173221  1
  Cu  Cu93  1  0.16841662  0.48828335  0.74594245  1
  Cu  Cu94  1  0.83337379  0.49978569  0.73791905  1
  Cu  Cu95  1  0.33392843  0.66900550  0.00341320  1
  Cu  Cu96  1  0.16671086  0.84275200  0.24377340  1
  Cu  Cu97  1  0.16264402  0.16763625  0.24300130  1
  Cu  Cu98  1  0.49902357  0.50240239  0.74868291  1
  Cu  Cu99  1  -0.00451212  0.32775893  0.00073165  1
  Cu  Cu100  1  0.67188593  -0.00356756  -0.00711141  1
  Cu  Cu101  1  0.83278355  0.49758113  0.25377734  1
  Cu  Cu102  1  0.00488901  0.00216579  -0.00066083  1
  Cu  Cu103  1  0.66474200  0.33600318  -0.00770925  1
  Cu  Cu104  1  0.48872517  0.16690617  0.24338111  1
  Cu  Cu105  1  0.83802958  0.83469542  0.25039051  1
  Cu  Cu106  1  0.33224533  0.00566894  0.00370415  1
  Cu  Cu107  1  0.33675269  0.65340299  0.49128725  1
  Cu  Cu108  1  0.49956934  0.49617027  0.25185309  1
  Cu  Cu109  1  0.00435247  0.33232107  0.50036744  1
  Cu  Cu110  1  0.66779446  -0.00325868  0.50506818  1
  Cu  Cu111  1  0.17059402  0.49921372  0.25175008  1
  Cu  Cu112  1  0.17992688  0.16807105  0.75339889  1
  Cu  Cu113  1  0.15893737  0.83580290  0.75781788  1
  Cu  Cu114  1  0.33020161  -0.00169641  0.50201188  1
  Se  Se115  1  0.08437826  0.08784519  0.05376546  1
  Se  Se116  1  0.06998766  0.07364375  0.55825119  1
  Se  Se117  1  0.07276240  0.41143450  0.06050364  1
  Se  Se118  1  0.09040297  0.41521036  0.55208398  1
  Se  Se119  1  0.08184203  0.74349119  0.04659875  1
  Se  Se120  1  0.07861235  0.74497224  0.56699685  1
  Se  Se121  1  0.41785725  0.09043423  0.05287936  1
  Se  Se122  1  0.41251590  0.07475513  0.56144903  1
  Se  Se123  1  0.41654181  0.41808730  0.05037991  1
  Se  Se124  1  0.42145091  0.41475250  0.55020428  1
  Se  Se125  1  0.41110157  0.74681587  0.06784092  1
  Se  Se126  1  0.40705376  0.73607251  0.55712011  1
  Se  Se127  1  0.75515619  0.08112232  0.04773043  1
  Se  Se128  1  0.74966869  0.08411455  0.55514170  1
  Se  Se129  1  0.73888409  0.40849198  0.06422115  1
  Se  Se130  1  0.76672570  0.42509976  0.54619011  1
  Se  Se131  1  0.75244209  0.75028760  0.05033540  1
  Se  Se132  1  0.74200569  0.75410767  0.55827875  1
  Se  Se133  1  0.24374187  0.25085773  0.05120052  1
  Se  Se134  1  0.26408923  0.25308826  0.56431635  1
  Se  Se135  1  0.25623869  0.58519901  0.06398259  1
  Se  Se136  1  0.24733739  0.57676101  0.54433146  1
  Se  Se137  1  0.25272184  0.91740856  0.05683820  1
  Se  Se138  1  0.24716455  0.91480369  0.55663065  1
  Se  Se139  1  0.58331136  0.24896842  0.04558401  1
  Se  Se140  1  0.59766024  0.25886465  0.56629103  1
  Se  Se141  1  0.57988060  0.58612601  0.05342255  1
  Se  Se142  1  0.58133187  0.58040500  0.54937535  1
  Se  Se143  1  0.59516118  0.92479324  0.06226635  1
  Se  Se144  1  0.58648941  0.92099771  0.56683312  1
  Se  Se145  1  0.91052217  0.24572386  0.05420760  1
  Se  Se146  1  0.92054555  0.24829309  0.55235300  1
  Se  Se147  1  0.92473140  0.59007738  0.05932714  1
  Se  Se148  1  0.92580486  0.59862780  0.55023843  1
  Se  Se149  1  0.91859665  0.91724967  0.05026234  1
  Se  Se150  1  0.90768445  0.91227247  0.55071196  1
  Se  Se151  1  0.08045615  0.25178691  0.43648323  1
  Se  Se152  1  0.08334713  0.24816865  0.94870267  1
  Se  Se153  1  0.08119551  0.59962501  0.44780412  1
  Se  Se154  1  0.06951899  0.58665464  0.94111659  1
  Se  Se155  1  0.07367634  0.92797347  0.43837115  1
  Se  Se156  1  0.08994984  0.91624760  0.94929015  1
  Se  Se157  1  0.40727700  0.24556142  0.44010580  1
  Se  Se158  1  0.41616675  0.25200811  0.94847590  1
  Se  Se159  1  0.42411749  0.57343891  0.44055833  1
  Se  Se160  1  0.41704402  0.58624925  0.95059620  1
  Se  Se161  1  0.40955203  0.91876380  0.44166695  1
  Se  Se162  1  0.41517484  0.92653488  0.94298153  1
  Se  Se163  1  0.74748174  0.25363495  0.45551265  1
  Se  Se164  1  0.75569610  0.25457253  0.94579622  1
  Se  Se165  1  0.74972023  0.58672380  0.44697865  1
  Se  Se166  1  0.74365364  0.58580422  0.93864852  1
  Se  Se167  1  0.74804902  0.91212151  0.45005079  1
  Se  Se168  1  0.75345109  0.90934688  0.94325443  1
  Se  Se169  1  0.25082218  0.07969598  0.44348246  1
  Se  Se170  1  0.24717158  0.08907108  0.95130010  1
  Se  Se171  1  0.24854228  0.41530068  0.44304182  1
  Se  Se172  1  0.25151317  0.41351008  0.93751560  1
  Se  Se173  1  0.26346957  0.74694836  0.43655842  1
  Se  Se174  1  0.24862433  0.75286860  0.95387175  1
  Se  Se175  1  0.58728692  0.07427797  0.44327759  1
  Se  Se176  1  0.58471033  0.08361759  0.94804815  1
  Se  Se177  1  0.59345783  0.39723514  0.45003422  1
  Se  Se178  1  0.58001337  0.42427548  0.94698689  1
  Se  Se179  1  0.58478630  0.74242833  0.43659084  1
  Se  Se180  1  0.58889147  0.75208767  0.93973879  1
  Se  Se181  1  0.90670685  0.08897337  0.44355780  1
  Se  Se182  1  0.91660285  0.07837639  0.94417139  1
  Se  Se183  1  0.92318457  0.41732548  0.44646474  1
  Se  Se184  1  0.91751945  0.41017054  0.94005847  1
  Se  Se185  1  0.92015864  0.75145784  0.45089178  1
  Se  Se186  1  0.91858624  0.74114462  0.94798775  1
  Se  Se187  1  0.24792942  0.24928749  0.29798694  1
  Se  Se188  1  0.25710845  0.25522643  0.80814576  1
  Se  Se189  1  0.25579923  0.58331947  0.30167796  1
  Se  Se190  1  0.23794787  0.57481656  0.80935965  1
  Se  Se191  1  0.25322681  0.92269519  0.29825575  1
  Se  Se192  1  0.24872849  0.91789897  0.80421081  1
  Se  Se193  1  0.57090010  0.23554357  0.31077305  1
  Se  Se194  1  0.58419888  0.24974755  0.82059865  1
  Se  Se195  1  0.58915042  0.57453641  0.30450926  1
  Se  Se196  1  0.58275578  0.58775014  0.79857743  1
  Se  Se197  1  0.57822578  0.90574953  0.31320315  1
  Se  Se198  1  0.58532594  0.92530553  0.79923257  1
  Se  Se199  1  0.91307244  0.25243905  0.30514363  1
  Se  Se200  1  0.93244481  0.25315144  0.79930313  1
  Se  Se201  1  0.91433721  0.57860457  0.31373123  1
  Se  Se202  1  0.90508914  0.57587732  0.80894279  1
  Se  Se203  1  0.91596090  0.92358089  0.30247861  1
  Se  Se204  1  0.90915531  0.90289236  0.80773528  1
  Se  Se205  1  0.08131711  0.08408319  0.29934604  1
  Se  Se206  1  0.09468511  0.09136142  0.81359468  1
  Se  Se207  1  0.08196181  0.42004173  0.30380582  1
  Se  Se208  1  0.07965926  0.40877331  0.79703641  1
  Se  Se209  1  0.09127941  0.76187562  0.30918200  1
  Se  Se210  1  0.08092040  0.75102782  0.81283892  1
  Se  Se211  1  0.41088112  0.07715693  0.29601210  1
  Se  Se212  1  0.39795843  0.07041673  0.81060630  1
  Se  Se213  1  0.41599569  0.41018746  0.30257418  1
  Se  Se214  1  0.41696156  0.42050707  0.80304337  1
  Se  Se215  1  0.42100159  0.74688556  0.29471180  1
  Se  Se216  1  0.42334745  0.76185087  0.81780660  1
  Se  Se217  1  0.74930585  0.08671110  0.30802850  1
  Se  Se218  1  0.76129500  0.09269674  0.80439556  1
  Se  Se219  1  0.75640709  0.42186719  0.31922647  1
  Se  Se220  1  0.75537000  0.42284544  0.80486317  1
  Se  Se221  1  0.75731447  0.74632337  0.30102302  1
  Se  Se222  1  0.73090896  0.73566390  0.80005124  1
  Se  Se223  1  0.24957296  0.08443757  0.19226402  1
  Se  Se224  1  0.25720724  0.08086889  0.69894970  1
  Se  Se225  1  0.25113434  0.41350703  0.19751078  1
  Se  Se226  1  0.26196028  0.41374954  0.69507268  1
  Se  Se227  1  0.25058412  0.75348433  0.19778788  1
  Se  Se228  1  0.24058461  0.75645672  0.69572908  1
  Se  Se229  1  0.58232553  0.09449567  0.18816970  1
  Se  Se230  1  0.56713379  0.10813161  0.70330966  1
  Se  Se231  1  0.57820906  0.41561519  0.18922230  1
  Se  Se232  1  0.58108626  0.42828978  0.68537103  1
  Se  Se233  1  0.59329354  0.74377262  0.20272347  1
  Se  Se234  1  0.57477435  0.75186927  0.69849794  1
  Se  Se235  1  0.91718008  0.08340533  0.19663899  1
  Se  Se236  1  0.91252613  0.08514957  0.68863992  1
  Se  Se237  1  0.91542896  0.41073976  0.20455363  1
  Se  Se238  1  0.92005296  0.41611461  0.68995156  1
  Se  Se239  1  0.91767582  0.75634682  0.18701980  1
  Se  Se240  1  0.90190402  0.75608037  0.69499836  1
  Se  Se241  1  0.07666948  0.25321606  0.19423411  1
  Se  Se242  1  0.09479982  0.24566308  0.69663054  1
  Se  Se243  1  0.09265453  0.57808114  0.18795643  1
  Se  Se244  1  0.08996566  0.57162873  0.68723038  1
  Se  Se245  1  0.07885127  0.92139864  0.19196190  1
  Se  Se246  1  0.08540782  0.91439114  0.69227012  1
  Se  Se247  1  0.41087715  0.25474110  0.19106719  1
  Se  Se248  1  0.42839385  0.25325114  0.70656444  1
  Se  Se249  1  0.41854656  0.58073717  0.19711014  1
  Se  Se250  1  0.41451003  0.58177179  0.68879437  1
  Se  Se251  1  0.43547248  0.91166818  0.19838656  1
  Se  Se252  1  0.41077135  0.91990319  0.69865083  1
  Se  Se253  1  0.74777899  0.24453396  0.19345292  1
  Se  Se254  1  0.76174105  0.24707995  0.69203951  1
  Se  Se255  1  0.75369866  0.58162815  0.19877727  1
  Se  Se256  1  0.74685428  0.58420235  0.69075414  1
  Se  Se257  1  0.75889454  0.91120949  0.18564065  1
  Se  Se258  1  0.73875361  0.93382014  0.70148368  1
