# generated using pymatgen
data_In86Cu29Se144
_symmetry_space_group_name_H-M   'P 1'
_cell_length_a   17.58063302
_cell_length_b   17.58572009
_cell_length_c   23.44024647
_cell_angle_alpha   89.99109099
_cell_angle_beta   90.00030109
_cell_angle_gamma   90.00583752
_symmetry_Int_Tables_number   1
_chemical_formula_structural   In86Cu29Se144
_chemical_formula_sum   'In86 Cu29 Se144'
_cell_volume   7246.97613620
_cell_formula_units_Z   1
loop_
 _symmetry_equiv_pos_site_id
 _symmetry_equiv_pos_as_xyz
  1  'x, y, z'
loop_
 _atom_site_type_symbol
 _atom_site_label
 _atom_site_symmetry_multiplicity
 _atom_site_fract_x
 _atom_site_fract_y
 _atom_site_fract_z
 _atom_site_occupancy
  In  In0  1  -0.01533068  0.17735187  0.14278098  1
  In  In1  1  0.00516767  0.16108094  0.63069701  1
  In  In2  1  -0.00222163  0.49802145  0.11877370  1
  In  In3  1  -0.00109611  0.48238778  0.62608703  1
  In  In4  1  0.00876884  0.83675039  0.12533041  1
  In  In5  1  -0.00093222  0.84597974  0.62463621  1
  In  In6  1  0.33628026  0.15425621  0.11571536  1
  In  In7  1  0.33316891  0.18462321  0.62735947  1
  In  In8  1  0.33727477  0.49765866  0.11314939  1
  In  In9  1  0.32704165  0.49385429  0.62420437  1
  In  In10  1  0.31956585  0.85315073  0.12600893  1
  In  In11  1  0.32910284  0.81564705  0.62683596  1
  In  In12  1  0.68420611  0.18606620  0.12016036  1
  In  In13  1  0.67479264  0.16889781  0.62930396  1
  In  In14  1  0.66432187  0.48684812  0.12092729  1
  In  In15  1  0.65402678  0.50183296  0.62918534  1
  In  In16  1  0.67186753  0.81851476  0.12491976  1
  In  In17  1  0.66591218  0.83137277  0.61743635  1
  In  In18  1  0.17115755  0.00075736  0.37148083  1
  In  In19  1  0.15243874  0.01271062  0.87488697  1
  In  In20  1  0.15852992  0.34460989  0.37708586  1
  In  In21  1  0.17502684  0.34358923  0.87003975  1
  In  In22  1  0.16220331  0.67008308  0.37729372  1
  In  In23  1  0.16722569  0.64996439  0.88985723  1
  In  In24  1  0.48379683  0.00241644  0.37198874  1
  In  In25  1  0.51094933  -0.00273965  0.87860397  1
  In  In26  1  0.50647616  0.33776523  0.37373474  1
  In  In27  1  0.49932871  0.33825424  0.87824021  1
  In  In28  1  0.50113361  0.66201325  0.38531754  1
  In  In29  1  0.48307934  0.66273071  0.87246539  1
  In  In30  1  0.83743576  -0.00699803  0.36841995  1
  In  In31  1  0.84229619  -0.00484805  0.88547339  1
  In  In32  1  0.83671264  0.33540249  0.35844867  1
  In  In33  1  0.83384108  0.32928848  0.87805805  1
  In  In34  1  0.84804102  0.66851102  0.36919325  1
  In  In35  1  0.84653616  0.66412831  0.89265960  1
  In  In36  1  0.00554408  0.17536605  0.36565649  1
  In  In37  1  -0.00670469  0.15846075  0.87199783  1
  In  In38  1  0.00024646  0.50794470  0.36624194  1
  In  In39  1  0.01326537  0.48900823  0.88906930  1
  In  In40  1  -0.00053709  0.82803710  0.37025409  1
  In  In41  1  -0.00466270  0.84314249  0.88353839  1
  In  In42  1  0.33151528  0.15150739  0.37192807  1
  In  In43  1  0.32850434  0.18737459  0.88359292  1
  In  In44  1  0.33431846  0.50252659  0.38674249  1
  In  In45  1  0.33032931  0.49800809  0.88137737  1
  In  In46  1  0.32384834  0.84020850  0.37845880  1
  In  In47  1  0.33586403  0.81481919  0.87161254  1
  In  In48  1  0.66292471  0.17832910  0.36844069  1
  In  In49  1  0.65414058  0.17910751  0.88634592  1
  In  In50  1  0.66162823  0.48989294  0.37411069  1
  In  In51  1  0.67824846  0.49361684  0.88146234  1
  In  In52  1  0.67144840  0.82903078  0.37787223  1
  In  In53  1  0.67415808  0.83980623  0.88008799  1
  In  In54  1  0.17341018  -0.00660679  0.12943284  1
  In  In55  1  0.14377338  0.00337497  0.62401308  1
  In  In56  1  0.15628964  0.32489327  0.12229901  1
  In  In57  1  0.16434650  0.33442085  0.62407935  1
  In  In58  1  0.14859990  0.65476467  0.10890858  1
  In  In59  1  0.18572077  0.65951819  0.62641833  1
  In  In60  1  0.48295284  0.00399527  0.12537048  1
  In  In61  1  0.51080842  -0.00288668  0.62153300  1
  In  In62  1  0.51611429  0.34988453  0.11554743  1
  In  In63  1  0.48658371  0.34224848  0.63801698  1
  In  In64  1  0.50348554  0.65433025  0.12288844  1
  In  In65  1  0.46787972  0.63722836  0.59886950  1
  In  In66  1  0.85104254  0.01671845  0.12163408  1
  In  In67  1  0.84764346  0.00012248  0.62166023  1
  In  In68  1  0.83175792  0.33093228  0.12533407  1
  In  In69  1  0.83488337  0.32717220  0.63700173  1
  In  In70  1  0.85836339  0.67955980  0.10456479  1
  In  In71  1  0.82543035  0.67118088  0.62344109  1
  In  In72  1  0.83240377  0.50265715  0.49600765  1
  In  In73  1  0.32873127  0.66637972  0.24396960  1
  In  In74  1  0.49847054  0.16776394  0.49812164  1
  In  In75  1  0.00497524  0.66385872  0.75927096  1
  In  In76  1  0.16982396  0.82718132  0.50308127  1
  In  In77  1  0.67003870  0.00472537  0.24667959  1
  In  In78  1  0.67095009  0.00282320  0.75331928  1
  In  In79  1  0.83786167  0.16557696  0.48956609  1
  In  In80  1  0.66501796  0.66886197  0.75043905  1
  In  In81  1  0.32899151  0.00492398  0.75186747  1
  In  In82  1  0.16578305  0.16507034  0.00214692  1
  In  In83  1  0.49987287  0.82883861  0.00082970  1
  In  In84  1  0.33288896  0.33222789  0.24361795  1
  In  In85  1  0.67055111  0.65154926  0.24612138  1
  Cu  Cu86  1  0.83985473  0.83797490  0.75729745  1
  Cu  Cu87  1  0.17158462  0.49872543  0.75355216  1
  Cu  Cu88  1  0.49448363  0.49682372  0.75002276  1
  Cu  Cu89  1  0.16401322  0.83193978  0.74944098  1
  Cu  Cu90  1  0.32656304  0.33317141  0.50316767  1
  Cu  Cu91  1  0.66844896  0.65881733  0.00232459  1
  Cu  Cu92  1  0.66121386  0.33890031  0.50357571  1
  Cu  Cu93  1  0.84390821  0.83364204  0.24209404  1
  Cu  Cu94  1  0.16167793  0.83312034  0.25145014  1
  Cu  Cu95  1  0.49247675  0.83412687  0.25309509  1
  Cu  Cu96  1  0.50194463  0.17156733  0.24665304  1
  Cu  Cu97  1  0.67094197  -0.00004697  0.00481465  1
  Cu  Cu98  1  0.33148567  0.66527356  0.00058206  1
  Cu  Cu99  1  0.15734357  0.50209696  0.24627851  1
  Cu  Cu100  1  0.83532616  0.48946849  0.75764653  1
  Cu  Cu101  1  0.66998312  0.33254438  -0.00171872  1
  Cu  Cu102  1  0.00354410  0.00383777  0.00612675  1
  Cu  Cu103  1  0.00559992  0.32991884  0.49769449  1
  Cu  Cu104  1  0.49715461  0.17577001  0.76027328  1
  Cu  Cu105  1  0.83440305  0.50235302  0.23954236  1
  Cu  Cu106  1  -0.00117093  0.32796023  0.00217998  1
  Cu  Cu107  1  0.49820259  0.82085052  0.74167311  1
  Cu  Cu108  1  0.16792037  0.16363409  0.24643568  1
  Cu  Cu109  1  0.16137772  0.17656568  0.75093194  1
  Cu  Cu110  1  0.66685302  0.67428447  0.49981685  1
  Cu  Cu111  1  0.83106690  0.17023718  0.75568954  1
  Cu  Cu112  1  0.66999692  -0.00681730  0.49465379  1
  Cu  Cu113  1  0.00312602  0.66744537  0.49503683  1
  Cu  Cu114  1  0.32912013  -0.00266214  0.49837311  1
  Se  Se115  1  0.07637087  0.08655405  0.07004714  1
  Se  Se116  1  0.07014812  0.08292913  0.55163335  1
  Se  Se117  1  0.08428540  0.41275561  0.05199879  1
  Se  Se118  1  0.08434697  0.41775112  0.55109098  1
  Se  Se119  1  0.10630722  0.77494903  0.05564758  1
  Se  Se120  1  0.07829821  0.73894985  0.56570973  1
  Se  Se121  1  0.42110187  0.07976084  0.04479795  1
  Se  Se122  1  0.40832764  0.07866226  0.56120480  1
  Se  Se123  1  0.41779454  0.41237495  0.04850217  1
  Se  Se124  1  0.41587932  0.41072823  0.55640918  1
  Se  Se125  1  0.40747224  0.74488606  0.06544291  1
  Se  Se126  1  0.42710551  0.76509592  0.55616053  1
  Se  Se127  1  0.75338288  0.08570230  0.05654250  1
  Se  Se128  1  0.74388062  0.07905454  0.55460645  1
  Se  Se129  1  0.75523839  0.41489848  0.05198428  1
  Se  Se130  1  0.74854490  0.41278603  0.56326026  1
  Se  Se131  1  0.75047024  0.74960858  0.04832354  1
  Se  Se132  1  0.75584642  0.75428464  0.54964534  1
  Se  Se133  1  0.25912372  0.25866770  0.05609257  1
  Se  Se134  1  0.24405899  0.24700132  0.55369676  1
  Se  Se135  1  0.24662288  0.57798432  0.04903306  1
  Se  Se136  1  0.25543370  0.58145481  0.55174773  1
  Se  Se137  1  0.24992875  0.92750750  0.04839372  1
  Se  Se138  1  0.25295414  0.92343136  0.56642768  1
  Se  Se139  1  0.58606428  0.24922728  0.05220794  1
  Se  Se140  1  0.58462535  0.25505740  0.56360139  1
  Se  Se141  1  0.58315660  0.57562261  0.05258007  1
  Se  Se142  1  0.59020700  0.58254194  0.55090142  1
  Se  Se143  1  0.58903797  0.91824444  0.06415666  1
  Se  Se144  1  0.58347393  0.91537926  0.54881865  1
  Se  Se145  1  0.91789708  0.24540853  0.05809796  1
  Se  Se146  1  0.91783493  0.25654710  0.55734811  1
  Se  Se147  1  0.93580350  0.58732705  0.04177639  1
  Se  Se148  1  0.92402866  0.58849854  0.55994147  1
  Se  Se149  1  0.91926372  0.91783454  0.05748959  1
  Se  Se150  1  0.91221759  0.90984335  0.55123875  1
  Se  Se151  1  0.08623878  0.24743166  0.44226041  1
  Se  Se152  1  0.07971464  0.25319263  0.93733042  1
  Se  Se153  1  0.08146026  0.58024874  0.44230653  1
  Se  Se154  1  0.05477020  0.60376069  0.95198822  1
  Se  Se155  1  0.08345054  0.91491063  0.44078422  1
  Se  Se156  1  0.08558863  0.92527162  0.94827273  1
  Se  Se157  1  0.40591305  0.25603458  0.43828171  1
  Se  Se158  1  0.42973519  0.24535256  0.94777135  1
  Se  Se159  1  0.42034977  0.58101810  0.45337907  1
  Se  Se160  1  0.41760951  0.58187710  0.94964615  1
  Se  Se161  1  0.41485081  0.91709859  0.44592244  1
  Se  Se162  1  0.41138189  0.91479666  0.93745764  1
  Se  Se163  1  0.74337307  0.26552753  0.44066982  1
  Se  Se164  1  0.75537489  0.24511482  0.94989756  1
  Se  Se165  1  0.74320910  0.59440176  0.43483437  1
  Se  Se166  1  0.75625927  0.57779515  0.95153482  1
  Se  Se167  1  0.75686357  0.91521880  0.44110367  1
  Se  Se168  1  0.75340584  0.91532477  0.95271250  1
  Se  Se169  1  0.24750583  0.08216097  0.44649510  1
  Se  Se170  1  0.25706314  0.07734988  0.94022545  1
  Se  Se171  1  0.24581196  0.41750540  0.44819728  1
  Se  Se172  1  0.23422978  0.42741436  0.94762632  1
  Se  Se173  1  0.26274494  0.73622820  0.44664559  1
  Se  Se174  1  0.25026190  0.74851443  0.94641814  1
  Se  Se175  1  0.59040947  0.07754265  0.43657716  1
  Se  Se176  1  0.58516546  0.07898727  0.95072965  1
  Se  Se177  1  0.57774351  0.42005652  0.44963693  1
  Se  Se178  1  0.58610078  0.41880656  0.94748321  1
  Se  Se179  1  0.58188721  0.75565682  0.44614964  1
  Se  Se180  1  0.58921442  0.73809587  0.93805394  1
  Se  Se181  1  0.92900278  0.07566786  0.43491303  1
  Se  Se182  1  0.91930733  0.08671327  0.95178607  1
  Se  Se183  1  0.92078148  0.40891368  0.43819864  1
  Se  Se184  1  0.91532884  0.41205488  0.94875913  1
  Se  Se185  1  0.91800077  0.75028034  0.44450296  1
  Se  Se186  1  0.90912766  0.76767739  0.95244404  1
  Se  Se187  1  0.24553721  0.24601440  0.30921933  1
  Se  Se188  1  0.25128859  0.25238206  0.80294646  1
  Se  Se189  1  0.24315854  0.57487196  0.30780629  1
  Se  Se190  1  0.24723505  0.58325885  0.81144682  1
  Se  Se191  1  0.25105295  0.91535741  0.30133355  1
  Se  Se192  1  0.24309808  0.91225914  0.81233982  1
  Se  Se193  1  0.58153128  0.25815149  0.29874480  1
  Se  Se194  1  0.58620957  0.25724351  0.80780511  1
  Se  Se195  1  0.57146796  0.57569895  0.30725826  1
  Se  Se196  1  0.57834397  0.57566456  0.81044533  1
  Se  Se197  1  0.57959663  0.91288723  0.30860756  1
  Se  Se198  1  0.57695023  0.90060650  0.80337152  1
  Se  Se199  1  0.91530166  0.24626329  0.29657842  1
  Se  Se200  1  0.91879143  0.25210253  0.80604551  1
  Se  Se201  1  0.91670314  0.58571993  0.29470194  1
  Se  Se202  1  0.91268363  0.57298182  0.81581707  1
  Se  Se203  1  0.92305434  0.91500092  0.29964493  1
  Se  Se204  1  0.92118295  0.92423822  0.80734796  1
  Se  Se205  1  0.08682234  0.08167104  0.30302334  1
  Se  Se206  1  0.07891333  0.08587997  0.79743913  1
  Se  Se207  1  0.07791580  0.41549147  0.30063656  1
  Se  Se208  1  0.08093600  0.42030173  0.80500138  1
  Se  Se209  1  0.08276674  0.74357721  0.30248692  1
  Se  Se210  1  0.09100329  0.75601512  0.81843886  1
  Se  Se211  1  0.41683656  0.08549874  0.29584005  1
  Se  Se212  1  0.42100793  0.08758454  0.81573970  1
  Se  Se213  1  0.41432540  0.42310656  0.30956648  1
  Se  Se214  1  0.41281444  0.41848032  0.80918581  1
  Se  Se215  1  0.41658021  0.75069953  0.31220668  1
  Se  Se216  1  0.41263314  0.74090784  0.79475000  1
  Se  Se217  1  0.75736014  0.09501406  0.30748641  1
  Se  Se218  1  0.75391473  0.08946586  0.81876638  1
  Se  Se219  1  0.75080804  0.42665806  0.29969791  1
  Se  Se220  1  0.74696535  0.40893657  0.80714780  1
  Se  Se221  1  0.75693975  0.75554347  0.29993031  1
  Se  Se222  1  0.76088411  0.75186589  0.81324425  1
  Se  Se223  1  0.25523769  0.08598456  0.19306279  1
  Se  Se224  1  0.23931571  0.09229210  0.68910163  1
  Se  Se225  1  0.24056096  0.42505399  0.18662083  1
  Se  Se226  1  0.24837496  0.41250388  0.69640789  1
  Se  Se227  1  0.23704487  0.75415390  0.18632750  1
  Se  Se228  1  0.24913383  0.74485610  0.70340998  1
  Se  Se229  1  0.58077673  0.09114892  0.18461693  1
  Se  Se230  1  0.57263474  0.09394568  0.69695983  1
  Se  Se231  1  0.58406356  0.41898718  0.19756450  1
  Se  Se232  1  0.58469832  0.41524414  0.70142101  1
  Se  Se233  1  0.57265788  0.75216097  0.19590183  1
  Se  Se234  1  0.57692434  0.74340364  0.68032356  1
  Se  Se235  1  0.91778825  0.07782508  0.20694271  1
  Se  Se236  1  0.90959635  0.08719115  0.69708533  1
  Se  Se237  1  0.91951204  0.41634959  0.19065396  1
  Se  Se238  1  0.92058365  0.41096408  0.70248291  1
  Se  Se239  1  0.92373317  0.74674211  0.18990426  1
  Se  Se240  1  0.91310034  0.75171659  0.69579797  1
  Se  Se241  1  0.08435584  0.25443760  0.20225610  1
  Se  Se242  1  0.07762017  0.25660290  0.69488163  1
  Se  Se243  1  0.07723709  0.58485685  0.19023029  1
  Se  Se244  1  0.08781405  0.57571887  0.69176230  1
  Se  Se245  1  0.08283866  0.92217932  0.19940018  1
  Se  Se246  1  0.07992284  0.91684423  0.70045615  1
  Se  Se247  1  0.42300551  0.24693811  0.18177586  1
  Se  Se248  1  0.40980199  0.25340308  0.70603062  1
  Se  Se249  1  0.42101847  0.56972990  0.19337612  1
  Se  Se250  1  0.41460695  0.57894331  0.69173995  1
  Se  Se251  1  0.41247096  0.91742440  0.19838953  1
  Se  Se252  1  0.42135773  0.91534637  0.69083992  1
  Se  Se253  1  0.75071100  0.25676651  0.20074152  1
  Se  Se254  1  0.74369011  0.25126324  0.70405354  1
  Se  Se255  1  0.76346530  0.58513102  0.17458268  1
  Se  Se256  1  0.76041224  0.57305188  0.69584317  1
  Se  Se257  1  0.75691048  0.91130667  0.18637803  1
  Se  Se258  1  0.75587475  0.90921667  0.69276927  1
