# generated using pymatgen
data_In86Cu29Se144
_symmetry_space_group_name_H-M   'P 1'
_cell_length_a   17.58415034
_cell_length_b   17.59249147
_cell_length_c   23.45478824
_cell_angle_alpha   89.99700522
_cell_angle_beta   89.99558870
_cell_angle_gamma   90.02092863
_symmetry_Int_Tables_number   1
_chemical_formula_structural   In86Cu29Se144
_chemical_formula_sum   'In86 Cu29 Se144'
_cell_volume   7255.71511754
_cell_formula_units_Z   1
loop_
 _symmetry_equiv_pos_site_id
 _symmetry_equiv_pos_as_xyz
  1  'x, y, z'
loop_
 _atom_site_type_symbol
 _atom_site_label
 _atom_site_symmetry_multiplicity
 _atom_site_fract_x
 _atom_site_fract_y
 _atom_site_fract_z
 _atom_site_occupancy
  In  In0  1  0.00120969  0.17006017  0.11578412  1
  In  In1  1  -0.00608486  0.17409078  0.63963588  1
  In  In2  1  0.01889030  0.47954006  0.14182242  1
  In  In3  1  0.00165210  0.50002387  0.62523455  1
  In  In4  1  -0.01757211  0.84079567  0.13094522  1
  In  In5  1  -0.00324604  0.83361045  0.61916483  1
  In  In6  1  0.33683660  0.18077790  0.12597689  1
  In  In7  1  0.33055002  0.15808516  0.61698122  1
  In  In8  1  0.31428597  0.50647969  0.13694562  1
  In  In9  1  0.32651770  0.49331545  0.61506674  1
  In  In10  1  0.32023210  0.82883713  0.13052757  1
  In  In11  1  0.32455107  0.84380435  0.61687685  1
  In  In12  1  0.66063056  0.16438521  0.12011006  1
  In  In13  1  0.66713137  0.18124239  0.62625773  1
  In  In14  1  0.66424949  0.49980316  0.12278009  1
  In  In15  1  0.67135671  0.49999368  0.62203187  1
  In  In16  1  0.69178146  0.83742320  0.11952981  1
  In  In17  1  0.67026969  0.81515494  0.62554810  1
  In  In18  1  0.14597632  0.01006442  0.36907359  1
  In  In19  1  0.15704821  0.01814360  0.88330914  1
  In  In20  1  0.16844615  0.33441618  0.37057450  1
  In  In21  1  0.15867877  0.33351209  0.88421793  1
  In  In22  1  0.16599457  0.66528477  0.37993133  1
  In  In23  1  0.14707037  0.66971855  0.87378125  1
  In  In24  1  0.51891130  0.00067589  0.37181576  1
  In  In25  1  0.50793254  0.01349124  0.87699536  1
  In  In26  1  0.49434131  0.34154135  0.38153439  1
  In  In27  1  0.50839014  0.32680444  0.87711614  1
  In  In28  1  0.48943020  0.66320139  0.37472993  1
  In  In29  1  0.50595716  0.65003336  0.87301448  1
  In  In30  1  0.83422954  0.00293799  0.36955205  1
  In  In31  1  0.84397103  -0.01022613  0.88145740  1
  In  In32  1  0.85943052  0.33555198  0.37674322  1
  In  In33  1  0.83374591  0.33262619  0.87019454  1
  In  In34  1  0.84348783  0.65787243  0.38424862  1
  In  In35  1  0.84415227  0.66477759  0.87071223  1
  In  In36  1  0.01136406  0.17662666  0.35137674  1
  In  In37  1  0.00380611  0.16046748  0.87637321  1
  In  In38  1  -0.00184902  0.50379986  0.38042583  1
  In  In39  1  0.00026169  0.50280556  0.87061519  1
  In  In40  1  0.00090611  0.83340791  0.37944385  1
  In  In41  1  -0.01264927  0.82317063  0.86834215  1
  In  In42  1  0.32760575  0.19369852  0.36726845  1
  In  In43  1  0.32994927  0.17998377  0.88756885  1
  In  In44  1  0.32917837  0.49800359  0.37871099  1
  In  In45  1  0.32972707  0.48783612  0.87718674  1
  In  In46  1  0.33508103  0.81559532  0.37182109  1
  In  In47  1  0.32467491  0.83496863  0.87647547  1
  In  In48  1  0.67658003  0.15358323  0.37606171  1
  In  In49  1  0.66243511  0.17873684  0.88137891  1
  In  In50  1  0.66869401  0.49899205  0.38473124  1
  In  In51  1  0.69496763  0.50811025  0.85192028  1
  In  In52  1  0.67384021  0.84936016  0.37381342  1
  In  In53  1  0.68540125  0.82863070  0.87671058  1
  In  In54  1  0.14079106  0.01040340  0.13510447  1
  In  In55  1  0.16423987  -0.00602589  0.61948660  1
  In  In56  1  0.15826948  0.33770940  0.12627834  1
  In  In57  1  0.13081799  0.34141154  0.62887775  1
  In  In58  1  0.16567477  0.65784800  0.13409133  1
  In  In59  1  0.15085956  0.65544293  0.61501024  1
  In  In60  1  0.49977330  0.01729322  0.12675359  1
  In  In61  1  0.48617188  0.00213348  0.61958212  1
  In  In62  1  0.50075386  0.32248417  0.12734525  1
  In  In63  1  0.50578362  0.34090898  0.61568545  1
  In  In64  1  0.49632873  0.65389009  0.12769497  1
  In  In65  1  0.52028682  0.66400217  0.62567325  1
  In  In66  1  0.83877991  0.00536597  0.12326565  1
  In  In67  1  0.85057240  0.00352540  0.62350627  1
  In  In68  1  0.86176034  0.32333481  0.12692581  1
  In  In69  1  0.83464325  0.34259253  0.63524986  1
  In  In70  1  0.83699901  0.67883528  0.11806914  1
  In  In71  1  0.83221661  0.66559296  0.62215356  1
  In  In72  1  0.84199575  0.49796204  -0.00590603  1
  In  In73  1  0.33072819  0.33037059  0.75396966  1
  In  In74  1  0.16201971  0.83699350  0.01220950  1
  In  In75  1  0.67001827  0.66846007  0.24584303  1
  In  In76  1  0.66916623  -0.00049157  0.75325550  1
  In  In77  1  0.50432241  0.48887563  -0.00048016  1
  In  In78  1  0.16473951  0.17218921  0.49274277  1
  In  In79  1  0.32408133  0.00047806  0.74853825  1
  In  In80  1  0.50373652  0.83015078  0.49922649  1
  In  In81  1  0.33182142  -0.00059619  0.24878101  1
  In  In82  1  0.32852471  0.66427421  0.73584735  1
  In  In83  1  0.83782565  0.17216437  0.50027563  1
  In  In84  1  0.50194124  0.83835115  -0.00788177  1
  In  In85  1  0.67320149  0.32745829  0.24703523  1
  Cu  Cu86  1  0.32830754  0.33649708  0.00481227  1
  Cu  Cu87  1  0.00070438  0.66937677  0.50178615  1
  Cu  Cu88  1  0.67028918  0.00086560  0.49675392  1
  Cu  Cu89  1  0.67153148  0.66361736  0.50158800  1
  Cu  Cu90  1  0.66371040  0.33255286  0.50381400  1
  Cu  Cu91  1  0.16407908  0.49923438  0.25845450  1
  Cu  Cu92  1  0.16194199  0.50361993  0.75157068  1
  Cu  Cu93  1  0.83659856  0.82906419  0.74675259  1
  Cu  Cu94  1  0.16646295  0.82090421  0.25487723  1
  Cu  Cu95  1  0.83872842  0.83622862  0.25061340  1
  Cu  Cu96  1  0.50243341  0.16868854  0.24963137  1
  Cu  Cu97  1  0.14970663  0.83559033  0.74529484  1
  Cu  Cu98  1  0.33002503  0.33093746  0.49789672  1
  Cu  Cu99  1  0.67723162  0.33725786  -0.00193728  1
  Cu  Cu100  1  -0.00050196  0.00213470  0.49666644  1
  Cu  Cu101  1  0.51481804  0.49485992  0.74310171  1
  Cu  Cu102  1  -0.00190556  0.65989656  -0.00065542  1
  Cu  Cu103  1  0.33377701  0.66324437  0.49743176  1
  Cu  Cu104  1  0.33389154  0.00276959  0.49227981  1
  Cu  Cu105  1  0.50601656  0.83136124  0.25277266  1
  Cu  Cu106  1  0.66760991  0.00717788  -0.00086895  1
  Cu  Cu107  1  -0.00440620  -0.00053442  0.00229389  1
  Cu  Cu108  1  0.84105668  0.50073395  0.25508876  1
  Cu  Cu109  1  0.49907078  0.82415585  0.75465497  1
  Cu  Cu110  1  0.32810723  0.66468885  0.00947741  1
  Cu  Cu111  1  0.33492403  0.01413060  0.00879931  1
  Cu  Cu112  1  0.49992012  0.17231994  0.75073225  1
  Cu  Cu113  1  0.83763880  0.16562249  0.75498569  1
  Cu  Cu114  1  0.48676091  0.49748230  0.25554205  1
  Se  Se115  1  0.08625514  0.08139471  0.04816523  1
  Se  Se116  1  0.07361574  0.08764451  0.55823462  1
  Se  Se117  1  0.08601500  0.42629779  0.05461698  1
  Se  Se118  1  0.09596328  0.43561880  0.55217162  1
  Se  Se119  1  0.07190687  0.74146017  0.06531357  1
  Se  Se120  1  0.08665662  0.75713436  0.55034903  1
  Se  Se121  1  0.42135720  0.09808656  0.05639747  1
  Se  Se122  1  0.41715275  0.08543311  0.54492417  1
  Se  Se123  1  0.40882254  0.41628418  0.06665371  1
  Se  Se124  1  0.41553271  0.41609331  0.54872401  1
  Se  Se125  1  0.41290019  0.74966955  0.05920264  1
  Se  Se126  1  0.41300317  0.74153078  0.56199402  1
  Se  Se127  1  0.75166239  0.08625080  0.05494232  1
  Se  Se128  1  0.74558837  0.08037430  0.56153655  1
  Se  Se129  1  0.75405077  0.41128823  0.06333495  1
  Se  Se130  1  0.75216033  0.40970898  0.55711878  1
  Se  Se131  1  0.74586902  0.74291983  0.04766094  1
  Se  Se132  1  0.75394870  0.75292594  0.54895987  1
  Se  Se133  1  0.24569384  0.25358342  0.05842423  1
  Se  Se134  1  0.24680179  0.25935322  0.56223099  1
  Se  Se135  1  0.24235922  0.58125900  0.05771603  1
  Se  Se136  1  0.24772906  0.58322932  0.55087524  1
  Se  Se137  1  0.25383983  0.93270238  0.06625639  1
  Se  Se138  1  0.24722691  0.92220268  0.54408879  1
  Se  Se139  1  0.58772624  0.25894394  0.05222073  1
  Se  Se140  1  0.57973573  0.24381109  0.55095777  1
  Se  Se141  1  0.59087265  0.59228978  0.05287609  1
  Se  Se142  1  0.58410173  0.57958053  0.55005039  1
  Se  Se143  1  0.58603113  0.92531243  0.05948262  1
  Se  Se144  1  0.59173760  0.92203627  0.56166603  1
  Se  Se145  1  0.91693739  0.24724300  0.04436849  1
  Se  Se146  1  0.92532113  0.25957019  0.56233051  1
  Se  Se147  1  0.92598986  0.57901821  0.06536646  1
  Se  Se148  1  0.91913550  0.58439187  0.55564148  1
  Se  Se149  1  0.91066224  0.91291709  0.05121576  1
  Se  Se150  1  0.91510133  0.91828001  0.54829134  1
  Se  Se151  1  0.06734293  0.25751477  0.43774064  1
  Se  Se152  1  0.09766530  0.22935262  0.94563179  1
  Se  Se153  1  0.08379581  0.58416781  0.44970583  1
  Se  Se154  1  0.08272892  0.57995201  0.94545666  1
  Se  Se155  1  0.08699627  0.92130008  0.44498988  1
  Se  Se156  1  0.07436838  0.91373003  0.94166392  1
  Se  Se157  1  0.41469943  0.24799453  0.44602495  1
  Se  Se158  1  0.42007130  0.26088075  0.95114334  1
  Se  Se159  1  0.41847024  0.57896674  0.44712642  1
  Se  Se160  1  0.40733328  0.58679118  0.94610530  1
  Se  Se161  1  0.41613698  0.91939147  0.43494950  1
  Se  Se162  1  0.40342910  0.93354296  0.94068297  1
  Se  Se163  1  0.74517185  0.25984596  0.43937609  1
  Se  Se164  1  0.75792965  0.25133740  0.94566546  1
  Se  Se165  1  0.75545275  0.57854562  0.45090226  1
  Se  Se166  1  0.74580980  0.58674546  0.93979615  1
  Se  Se167  1  0.75808028  0.92177677  0.44602154  1
  Se  Se168  1  0.74852668  0.91872623  0.94918856  1
  Se  Se169  1  0.25504262  0.08205410  0.43059731  1
  Se  Se170  1  0.24986928  0.08900112  0.95087477  1
  Se  Se171  1  0.24475518  0.41298384  0.44528047  1
  Se  Se172  1  0.24642187  0.41870750  0.94986484  1
  Se  Se173  1  0.25185072  0.75097740  0.44817713  1
  Se  Se174  1  0.24932104  0.74425874  0.94680259  1
  Se  Se175  1  0.58505863  0.08523192  0.44791334  1
  Se  Se176  1  0.58108655  0.09253277  0.95068823  1
  Se  Se177  1  0.58159951  0.41784793  0.45017622  1
  Se  Se178  1  0.60356738  0.41938163  0.93403431  1
  Se  Se179  1  0.59387612  0.74323173  0.43615930  1
  Se  Se180  1  0.58874524  0.74097121  0.93855418  1
  Se  Se181  1  0.92721530  0.08825097  0.43572138  1
  Se  Se182  1  0.91449093  0.08403127  0.94763999  1
  Se  Se183  1  0.90511379  0.43153688  0.44935348  1
  Se  Se184  1  0.93100156  0.40351007  0.94067859  1
  Se  Se185  1  0.91584982  0.75338209  0.44933893  1
  Se  Se186  1  0.91686118  0.74568073  0.94671971  1
  Se  Se187  1  0.22404632  0.23553939  0.29914532  1
  Se  Se188  1  0.24110464  0.24015674  0.81020584  1
  Se  Se189  1  0.24991906  0.58361767  0.30965096  1
  Se  Se190  1  0.24804337  0.58132490  0.80957562  1
  Se  Se191  1  0.24456046  0.90950914  0.31157805  1
  Se  Se192  1  0.23248404  0.90961227  0.80856707  1
  Se  Se193  1  0.58089381  0.24764780  0.31343965  1
  Se  Se194  1  0.58707481  0.25177745  0.80208057  1
  Se  Se195  1  0.58064723  0.57570312  0.30739061  1
  Se  Se196  1  0.58911335  0.58431284  0.79771534  1
  Se  Se197  1  0.59131011  0.91828412  0.29770232  1
  Se  Se198  1  0.57593796  0.90802792  0.81316183  1
  Se  Se199  1  0.88641894  0.22766633  0.30725475  1
  Se  Se200  1  0.92265102  0.24731235  0.80752488  1
  Se  Se201  1  0.92079067  0.58827339  0.30630658  1
  Se  Se202  1  0.90372761  0.56694028  0.80286033  1
  Se  Se203  1  0.92145897  0.91610882  0.30729873  1
  Se  Se204  1  0.91454055  0.91633818  0.80115626  1
  Se  Se205  1  0.07474506  0.07478662  0.28764418  1
  Se  Se206  1  0.07416331  0.07014303  0.80393907  1
  Se  Se207  1  0.07673841  0.41827029  0.30988317  1
  Se  Se208  1  0.08876660  0.41580577  0.80818152  1
  Se  Se209  1  0.08038480  0.74552264  0.31110066  1
  Se  Se210  1  0.07362399  0.74520372  0.79785254  1
  Se  Se211  1  0.42177254  0.08808558  0.31138763  1
  Se  Se212  1  0.41627424  0.09317393  0.80887381  1
  Se  Se213  1  0.40812959  0.41078597  0.30785073  1
  Se  Se214  1  0.43017274  0.42387214  0.80647632  1
  Se  Se215  1  0.42049273  0.74508030  0.29841878  1
  Se  Se216  1  0.41249451  0.74727501  0.81058497  1
  Se  Se217  1  0.74897416  0.08050115  0.29977579  1
  Se  Se218  1  0.75457938  0.08791836  0.81615242  1
  Se  Se219  1  0.75447798  0.42191517  0.31044116  1
  Se  Se220  1  0.75356112  0.40250131  0.79272415  1
  Se  Se221  1  0.75784054  0.75357151  0.31054761  1
  Se  Se222  1  0.75535317  0.74677898  0.80264136  1
  Se  Se223  1  0.24572347  0.09112956  0.19036735  1
  Se  Se224  1  0.23698310  0.09233195  0.69014769  1
  Se  Se225  1  0.24311537  0.41251316  0.20241463  1
  Se  Se226  1  0.24334031  0.42228966  0.69305528  1
  Se  Se227  1  0.25248759  0.74103932  0.20166178  1
  Se  Se228  1  0.23634250  0.76091753  0.68526669  1
  Se  Se229  1  0.58753996  0.08602357  0.19885944  1
  Se  Se230  1  0.57377503  0.08437664  0.69106045  1
  Se  Se231  1  0.57475963  0.42455787  0.19533263  1
  Se  Se232  1  0.59162336  0.40773338  0.68980781  1
  Se  Se233  1  0.58181276  0.75805783  0.18330426  1
  Se  Se234  1  0.58702096  0.74759819  0.70179779  1
  Se  Se235  1  0.94478374  0.06624906  0.18518283  1
  Se  Se236  1  0.91804042  0.07869632  0.70306338  1
  Se  Se237  1  0.92008662  0.40900650  0.20607477  1
  Se  Se238  1  0.92884080  0.41594673  0.69841380  1
  Se  Se239  1  0.91407296  0.74408575  0.19873978  1
  Se  Se240  1  0.91869095  0.74914277  0.68988955  1
  Se  Se241  1  0.06186123  0.26373947  0.18930748  1
  Se  Se242  1  0.09054597  0.24560029  0.70328124  1
  Se  Se243  1  0.07971406  0.58444780  0.20593090  1
  Se  Se244  1  0.08130335  0.58791279  0.69719844  1
  Se  Se245  1  0.08726335  0.90070143  0.19561203  1
  Se  Se246  1  0.07518931  0.92239481  0.68921798  1
  Se  Se247  1  0.41651351  0.25436933  0.20268854  1
  Se  Se248  1  0.41805751  0.24486331  0.68678143  1
  Se  Se249  1  0.41085690  0.58447887  0.19968847  1
  Se  Se250  1  0.42506059  0.56982625  0.68595161  1
  Se  Se251  1  0.42563631  0.90944309  0.18886384  1
  Se  Se252  1  0.42120477  0.90504870  0.69433345  1
  Se  Se253  1  0.76053068  0.23995082  0.18657597  1
  Se  Se254  1  0.75569557  0.24600827  0.69805705  1
  Se  Se255  1  0.76070011  0.57389435  0.18982849  1
  Se  Se256  1  0.73349961  0.59996314  0.68795582  1
  Se  Se257  1  0.75762009  0.91989785  0.19511989  1
  Se  Se258  1  0.75612308  0.91294935  0.68810400  1
