# generated using pymatgen
data_In86Cu29Se144
_symmetry_space_group_name_H-M   'P 1'
_cell_length_a   17.59482678
_cell_length_b   17.58102157
_cell_length_c   23.44808707
_cell_angle_alpha   89.98471781
_cell_angle_beta   90.00214566
_cell_angle_gamma   90.01411393
_symmetry_Int_Tables_number   1
_chemical_formula_structural   In86Cu29Se144
_chemical_formula_sum   'In86 Cu29 Se144'
_cell_volume   7253.31421780
_cell_formula_units_Z   1
loop_
 _symmetry_equiv_pos_site_id
 _symmetry_equiv_pos_as_xyz
  1  'x, y, z'
loop_
 _atom_site_type_symbol
 _atom_site_label
 _atom_site_symmetry_multiplicity
 _atom_site_fract_x
 _atom_site_fract_y
 _atom_site_fract_z
 _atom_site_occupancy
  In  In0  1  -0.01202270  0.15479229  0.12282110  1
  In  In1  1  -0.00073771  0.16431949  0.62263847  1
  In  In2  1  0.00407457  0.48051223  0.12090633  1
  In  In3  1  -0.00282743  0.48466075  0.62540972  1
  In  In4  1  0.01157413  0.84002722  0.12531233  1
  In  In5  1  0.00482998  0.85492467  0.61203596  1
  In  In6  1  0.32595209  0.17787438  0.13430088  1
  In  In7  1  0.32402475  0.16485195  0.60397332  1
  In  In8  1  0.33448974  0.49763200  0.12743239  1
  In  In9  1  0.32705024  0.50257117  0.62149520  1
  In  In10  1  0.31838743  0.84761519  0.13758810  1
  In  In11  1  0.32519050  0.84466938  0.61852504  1
  In  In12  1  0.68241400  0.16492016  0.13275544  1
  In  In13  1  0.66933095  0.16861844  0.62635706  1
  In  In14  1  0.65322466  0.50332371  0.12087297  1
  In  In15  1  0.67614487  0.48438745  0.63555754  1
  In  In16  1  0.67634716  0.84681105  0.12306825  1
  In  In17  1  0.68068777  0.82823940  0.62751961  1
  In  In18  1  0.16382192  -0.00073372  0.37444734  1
  In  In19  1  0.15253409  0.01043545  0.88623332  1
  In  In20  1  0.18313701  0.31604750  0.38903826  1
  In  In21  1  0.16515556  0.33581762  0.87705108  1
  In  In22  1  0.16746791  0.66457375  0.37629443  1
  In  In23  1  0.17019210  0.66496509  0.88364335  1
  In  In24  1  0.51344911  0.01440324  0.36568778  1
  In  In25  1  0.51055025  -0.00765540  0.87489730  1
  In  In26  1  0.48867515  0.32016225  0.36978073  1
  In  In27  1  0.51513958  0.33696379  0.87843733  1
  In  In28  1  0.49426667  0.67793045  0.36924579  1
  In  In29  1  0.50465867  0.65706621  0.88245385  1
  In  In30  1  0.82820315  0.00184733  0.38118458  1
  In  In31  1  0.84045772  0.01386564  0.86123821  1
  In  In32  1  0.81439248  0.31918312  0.36529123  1
  In  In33  1  0.82532796  0.31078563  0.86134411  1
  In  In34  1  0.84532067  0.66750112  0.37662251  1
  In  In35  1  0.82513629  0.67684882  0.87355208  1
  In  In36  1  0.00055441  0.14485408  0.38729686  1
  In  In37  1  0.00139941  0.16704028  0.86691049  1
  In  In38  1  0.00609591  0.50573703  0.37495667  1
  In  In39  1  0.01388218  0.49003630  0.87775953  1
  In  In40  1  -0.01464386  0.85598221  0.39407227  1
  In  In41  1  -0.00661695  0.84873104  0.87664747  1
  In  In42  1  0.33813056  0.16868564  0.37207498  1
  In  In43  1  0.32400851  0.15596849  0.87920196  1
  In  In44  1  0.31643577  0.48663382  0.36316053  1
  In  In45  1  0.33268057  0.50417073  0.88648448  1
  In  In46  1  0.32181748  0.82600298  0.36438828  1
  In  In47  1  0.33149530  0.82507342  0.87993817  1
  In  In48  1  0.66409541  0.16301566  0.37975445  1
  In  In49  1  0.67392594  0.16897813  0.86914810  1
  In  In50  1  0.67108859  0.47670167  0.36977916  1
  In  In51  1  0.66496863  0.49612703  0.87792242  1
  In  In52  1  0.66120502  0.84768636  0.37498232  1
  In  In53  1  0.68035662  0.84372288  0.86308287  1
  In  In54  1  0.16164345  0.00503327  0.12968152  1
  In  In55  1  0.15552827  -0.00032594  0.60932001  1
  In  In56  1  0.17138337  0.33831831  0.12042996  1
  In  In57  1  0.14482596  0.30558364  0.59905602  1
  In  In58  1  0.17434804  0.67228442  0.12398529  1
  In  In59  1  0.16546469  0.67092434  0.61933365  1
  In  In60  1  0.50313921  0.00033630  0.13159755  1
  In  In61  1  0.49884885  0.01363379  0.62177680  1
  In  In62  1  0.49588635  0.33710955  0.12901652  1
  In  In63  1  0.50989612  0.33210100  0.62408250  1
  In  In64  1  0.49835164  0.65102771  0.12152265  1
  In  In65  1  0.50947698  0.67303138  0.62485843  1
  In  In66  1  0.81937650  0.02377819  0.14881372  1
  In  In67  1  0.83886726  0.01015783  0.62282643  1
  In  In68  1  0.83922876  0.31523939  0.13240623  1
  In  In69  1  0.85665512  0.30010961  0.65353599  1
  In  In70  1  0.82420705  0.67549815  0.12282248  1
  In  In71  1  0.82344620  0.66411938  0.62800460  1
  In  In72  1  0.83892703  0.49300566  -0.00297658  1
  In  In73  1  0.49549690  0.49777639  0.49750456  1
  In  In74  1  0.33723068  0.66526795  0.75777635  1
  In  In75  1  0.66161620  0.66807457  0.24104660  1
  In  In76  1  0.49443555  0.83818449  0.49815266  1
  In  In77  1  0.83344271  0.49518481  0.49965503  1
  In  In78  1  0.33499116  -0.00067082  0.74805907  1
  In  In79  1  0.00556478  0.66701189  0.25452755  1
  In  In80  1  0.49964465  0.83224970  0.00516522  1
  In  In81  1  0.49703007  0.17066338  -0.00133405  1
  In  In82  1  0.83725764  0.84146477  -0.00131221  1
  In  In83  1  -0.00488648  0.67067832  0.75525506  1
  In  In84  1  0.00204652  0.32218499  0.25753721  1
  In  In85  1  0.33526561  0.33487230  0.74279369  1
  Cu  Cu86  1  0.17279476  0.49695926  0.24909888  1
  Cu  Cu87  1  0.16466870  0.84220991  0.74800024  1
  Cu  Cu88  1  0.15998656  0.48886614  0.74703604  1
  Cu  Cu89  1  0.49257665  0.83763592  0.24838361  1
  Cu  Cu90  1  0.66975039  0.33332743  -0.00220373  1
  Cu  Cu91  1  0.32364026  -0.00039493  0.00862351  1
  Cu  Cu92  1  0.83982821  0.84020176  0.74484142  1
  Cu  Cu93  1  0.82905088  0.49648099  0.75472642  1
  Cu  Cu94  1  0.32869962  0.66707684  0.00601949  1
  Cu  Cu95  1  0.83602782  0.83654930  0.25680641  1
  Cu  Cu96  1  0.49914840  0.50004378  0.24801196  1
  Cu  Cu97  1  -0.00019342  0.00300530  0.00149446  1
  Cu  Cu98  1  -0.00829389  0.33416919  0.50035708  1
  Cu  Cu99  1  0.50549096  0.17034222  0.25020793  1
  Cu  Cu100  1  0.50614932  0.50210913  0.75598627  1
  Cu  Cu101  1  0.16246084  0.16359733  0.74408998  1
  Cu  Cu102  1  0.00251776  0.67315241  0.49945438  1
  Cu  Cu103  1  0.33237448  0.33710969  0.00688192  1
  Cu  Cu104  1  0.33041024  -0.00074702  0.48790076  1
  Cu  Cu105  1  0.16654915  0.16791349  0.25579135  1
  Cu  Cu106  1  0.51718776  0.83355390  0.74755483  1
  Cu  Cu107  1  0.50618592  0.16851574  0.74613182  1
  Cu  Cu108  1  0.00843264  0.66063402  0.00341395  1
  Cu  Cu109  1  0.67033042  0.31999440  0.50407083  1
  Cu  Cu110  1  0.15841695  0.84093978  0.25401077  1
  Cu  Cu111  1  0.00366188  0.31852214  -0.00166430  1
  Cu  Cu112  1  0.67024274  0.00281034  0.49981072  1
  Cu  Cu113  1  0.32599026  0.66225202  0.49418218  1
  Cu  Cu114  1  0.67284871  0.66379653  0.50424000  1
  Se  Se115  1  0.08361077  0.08597444  0.05552798  1
  Se  Se116  1  0.10181452  0.11163400  0.55236974  1
  Se  Se117  1  0.08447743  0.41011090  0.04620699  1
  Se  Se118  1  0.07831772  0.42037319  0.54773417  1
  Se  Se119  1  0.08394269  0.74965127  0.05707711  1
  Se  Se120  1  0.08450820  0.75666883  0.55361018  1
  Se  Se121  1  0.40993587  0.08098969  0.06233645  1
  Se  Se122  1  0.41411421  0.07672469  0.54580429  1
  Se  Se123  1  0.41981751  0.41909087  0.05590964  1
  Se  Se124  1  0.40952749  0.40809710  0.55908985  1
  Se  Se125  1  0.40447723  0.75085433  0.06742727  1
  Se  Se126  1  0.40625599  0.73982130  0.55753870  1
  Se  Se127  1  0.75547027  0.08128838  0.06071280  1
  Se  Se128  1  0.74927222  0.08833726  0.55439217  1
  Se  Se129  1  0.75015152  0.40902473  0.06266382  1
  Se  Se130  1  0.75170874  0.40279200  0.56145858  1
  Se  Se131  1  0.73729343  0.74811463  0.04976910  1
  Se  Se132  1  0.75704002  0.74954261  0.55217946  1
  Se  Se133  1  0.25063681  0.24740088  0.05417431  1
  Se  Se134  1  0.26039167  0.26395675  0.53990037  1
  Se  Se135  1  0.24819661  0.57879288  0.05819036  1
  Se  Se136  1  0.24512835  0.58328699  0.55279435  1
  Se  Se137  1  0.23959315  0.91539469  0.05933863  1
  Se  Se138  1  0.24765170  0.91830591  0.54496464  1
  Se  Se139  1  0.59000375  0.25415857  0.06082663  1
  Se  Se140  1  0.57855255  0.24222437  0.55406938  1
  Se  Se141  1  0.59007875  0.59352025  0.04867443  1
  Se  Se142  1  0.59309368  0.57991982  0.56044084  1
  Se  Se143  1  0.59166068  0.93183525  0.05353765  1
  Se  Se144  1  0.58975818  0.91940965  0.56010165  1
  Se  Se145  1  0.91399629  0.24502278  0.05309136  1
  Se  Se146  1  0.91104824  0.25250165  0.55778704  1
  Se  Se147  1  0.92260166  0.58785566  0.06286330  1
  Se  Se148  1  0.92354918  0.58917917  0.56023570  1
  Se  Se149  1  0.91896916  0.92793588  0.06517713  1
  Se  Se150  1  0.92318471  0.93984748  0.54588892  1
  Se  Se151  1  0.07192307  0.25180209  0.44343782  1
  Se  Se152  1  0.08767904  0.24160637  0.94000054  1
  Se  Se153  1  0.08237991  0.58595122  0.44733007  1
  Se  Se154  1  0.08757590  0.57698529  0.94795572  1
  Se  Se155  1  0.09958505  0.90898208  0.44845884  1
  Se  Se156  1  0.08143636  0.91248044  0.95136360  1
  Se  Se157  1  0.41498399  0.24923492  0.44645457  1
  Se  Se158  1  0.40571458  0.26114856  0.93739704  1
  Se  Se159  1  0.40967205  0.58770499  0.43424384  1
  Se  Se160  1  0.41620467  0.58715405  0.95331310  1
  Se  Se161  1  0.41329519  0.92077752  0.42850721  1
  Se  Se162  1  0.40710794  0.92691985  0.94513473  1
  Se  Se163  1  0.75489776  0.24205353  0.44796593  1
  Se  Se164  1  0.74999626  0.24803116  0.94454229  1
  Se  Se165  1  0.74139757  0.58304035  0.43650307  1
  Se  Se166  1  0.74802157  0.59054737  0.94515890  1
  Se  Se167  1  0.74719612  0.91119514  0.44946737  1
  Se  Se168  1  0.75167273  0.93075046  0.93683987  1
  Se  Se169  1  0.24893341  0.08775994  0.43890901  1
  Se  Se170  1  0.24372631  0.08540704  0.95413028  1
  Se  Se171  1  0.24180579  0.42801877  0.44580610  1
  Se  Se172  1  0.24839509  0.41552993  0.94742029  1
  Se  Se173  1  0.24860205  0.75296469  0.44362760  1
  Se  Se174  1  0.24781899  0.75229186  0.95204472  1
  Se  Se175  1  0.57881670  0.08221549  0.45039648  1
  Se  Se176  1  0.58969383  0.08129042  0.94239392  1
  Se  Se177  1  0.58937513  0.40300723  0.44519503  1
  Se  Se178  1  0.58330615  0.42126197  0.95313255  1
  Se  Se179  1  0.58884402  0.74177399  0.44459022  1
  Se  Se180  1  0.59129450  0.75893772  0.93503076  1
  Se  Se181  1  0.92260958  0.05968445  0.45742806  1
  Se  Se182  1  0.92238182  0.08160354  0.93877352  1
  Se  Se183  1  0.91613705  0.40835392  0.43218677  1
  Se  Se184  1  0.92131414  0.39782888  0.93625526  1
  Se  Se185  1  0.91080943  0.75182112  0.45143968  1
  Se  Se186  1  0.92734225  0.74057008  0.94335284  1
  Se  Se187  1  0.25198872  0.25389133  0.30377414  1
  Se  Se188  1  0.24754110  0.24043851  0.80378404  1
  Se  Se189  1  0.24832326  0.58980516  0.30116889  1
  Se  Se190  1  0.23923677  0.57044091  0.80730707  1
  Se  Se191  1  0.24943973  0.92315376  0.30108265  1
  Se  Se192  1  0.24615049  0.91476420  0.81330408  1
  Se  Se193  1  0.58831763  0.25082755  0.30726322  1
  Se  Se194  1  0.58181655  0.25163077  0.80508518  1
  Se  Se195  1  0.58029889  0.57726249  0.31078021  1
  Se  Se196  1  0.58787266  0.58635699  0.80846491  1
  Se  Se197  1  0.58244048  0.91704525  0.29846962  1
  Se  Se198  1  0.59193498  0.92600395  0.79794721  1
  Se  Se199  1  0.91407349  0.22965999  0.31462420  1
  Se  Se200  1  0.91527423  0.23873778  0.79358786  1
  Se  Se201  1  0.90759367  0.57213976  0.30326123  1
  Se  Se202  1  0.91055491  0.57424157  0.81634331  1
  Se  Se203  1  0.91542068  0.92119817  0.31060964  1
  Se  Se204  1  0.92417401  0.92193421  0.79788034  1
  Se  Se205  1  0.08196016  0.08465071  0.30598030  1
  Se  Se206  1  0.08711935  0.07775648  0.80143902  1
  Se  Se207  1  0.09392255  0.41790580  0.31126670  1
  Se  Se208  1  0.08006666  0.40549594  0.80163322  1
  Se  Se209  1  0.07952079  0.76356291  0.31774069  1
  Se  Se210  1  0.09258702  0.75857220  0.81206790  1
  Se  Se211  1  0.41824360  0.08640182  0.30028403  1
  Se  Se212  1  0.42589104  0.09064496  0.80928478  1
  Se  Se213  1  0.41808508  0.41638632  0.30329999  1
  Se  Se214  1  0.41823729  0.42392673  0.81158684  1
  Se  Se215  1  0.41134765  0.74809736  0.29565905  1
  Se  Se216  1  0.43237959  0.76040474  0.80968624  1
  Se  Se217  1  0.73601021  0.07060688  0.31224737  1
  Se  Se218  1  0.74301869  0.08233502  0.79696799  1
  Se  Se219  1  0.75466174  0.41481492  0.29458391  1
  Se  Se220  1  0.74556968  0.41416694  0.80814581  1
  Se  Se221  1  0.75158583  0.75141489  0.31016250  1
  Se  Se222  1  0.75619159  0.75295104  0.79517224  1
  Se  Se223  1  0.24825882  0.08534910  0.19837846  1
  Se  Se224  1  0.24780599  0.08645777  0.68496451  1
  Se  Se225  1  0.25293961  0.41091803  0.19554340  1
  Se  Se226  1  0.23742043  0.41419558  0.68290346  1
  Se  Se227  1  0.24044314  0.75370782  0.20203336  1
  Se  Se228  1  0.24818772  0.75755767  0.69483630  1
  Se  Se229  1  0.58682890  0.08654357  0.19568640  1
  Se  Se230  1  0.58549066  0.08074930  0.69455048  1
  Se  Se231  1  0.58444321  0.41886501  0.19526940  1
  Se  Se232  1  0.57924699  0.41303112  0.70066418  1
  Se  Se233  1  0.57266983  0.76226850  0.18274993  1
  Se  Se234  1  0.59469335  0.74502527  0.69539373  1
  Se  Se235  1  0.92706849  0.08391450  0.20682997  1
  Se  Se236  1  0.90910961  0.09762540  0.69528462  1
  Se  Se237  1  0.91570491  0.41749278  0.19627146  1
  Se  Se238  1  0.91808695  0.41810939  0.70305490  1
  Se  Se239  1  0.91115606  0.75670020  0.19343557  1
  Se  Se240  1  0.91911595  0.75838601  0.68439520  1
  Se  Se241  1  0.08955057  0.24361861  0.18786130  1
  Se  Se242  1  0.08498603  0.25206539  0.69068311  1
  Se  Se243  1  0.08689530  0.57248795  0.18947003  1
  Se  Se244  1  0.08540171  0.58184057  0.69262198  1
  Se  Se245  1  0.07650650  0.92449314  0.20091680  1
  Se  Se246  1  0.08661098  0.92282057  0.68970196  1
  Se  Se247  1  0.41811787  0.25351843  0.19964798  1
  Se  Se248  1  0.41712771  0.23553808  0.68464428  1
  Se  Se249  1  0.41493434  0.58428469  0.19724958  1
  Se  Se250  1  0.42541859  0.57743427  0.69228871  1
  Se  Se251  1  0.41157824  0.92708111  0.19935611  1
  Se  Se252  1  0.42749106  0.90591057  0.68907383  1
  Se  Se253  1  0.74860406  0.25510909  0.20491656  1
  Se  Se254  1  0.72482779  0.27299726  0.69360098  1
  Se  Se255  1  0.75710128  0.57562008  0.18874325  1
  Se  Se256  1  0.74926213  0.58086054  0.70006428  1
  Se  Se257  1  0.74727023  0.91580667  0.20375788  1
  Se  Se258  1  0.75654462  0.92188706  0.69040337  1
