# generated using pymatgen
data_In86Cu29Se144
_symmetry_space_group_name_H-M   'P 1'
_cell_length_a   17.57840170
_cell_length_b   17.57868833
_cell_length_c   23.43445207
_cell_angle_alpha   89.97734074
_cell_angle_beta   89.99256369
_cell_angle_gamma   89.99588105
_symmetry_Int_Tables_number   1
_chemical_formula_structural   In86Cu29Se144
_chemical_formula_sum   'In86 Cu29 Se144'
_cell_volume   7241.36795357
_cell_formula_units_Z   1
loop_
 _symmetry_equiv_pos_site_id
 _symmetry_equiv_pos_as_xyz
  1  'x, y, z'
loop_
 _atom_site_type_symbol
 _atom_site_label
 _atom_site_symmetry_multiplicity
 _atom_site_fract_x
 _atom_site_fract_y
 _atom_site_fract_z
 _atom_site_occupancy
  In  In0  1  -0.01459186  0.15856086  0.11253115  1
  In  In1  1  -0.00447122  0.18151903  0.61916282  1
  In  In2  1  0.00638701  0.50868886  0.13098905  1
  In  In3  1  0.01868750  0.51415695  0.60311428  1
  In  In4  1  -0.00158023  0.83130917  0.12965427  1
  In  In5  1  -0.00281113  0.83089563  0.62034286  1
  In  In6  1  0.31723847  0.16428686  0.11957890  1
  In  In7  1  0.34555260  0.17216164  0.62950010  1
  In  In8  1  0.34136649  0.50138633  0.12953447  1
  In  In9  1  0.33531550  0.50880498  0.62476715  1
  In  In10  1  0.32637486  0.83824032  0.13260611  1
  In  In11  1  0.31713069  0.81476227  0.60771417  1
  In  In12  1  0.67423879  0.15679697  0.13336998  1
  In  In13  1  0.67331728  0.15562412  0.62583081  1
  In  In14  1  0.66247218  0.49665725  0.14607196  1
  In  In15  1  0.66953561  0.50204148  0.61247267  1
  In  In16  1  0.67880341  0.82631081  0.13912422  1
  In  In17  1  0.67467885  0.84178732  0.61178959  1
  In  In18  1  0.15020665  -0.01689437  0.36618063  1
  In  In19  1  0.16323350  0.00030213  0.88407733  1
  In  In20  1  0.17060270  0.33816798  0.38045112  1
  In  In21  1  0.17205526  0.32509801  0.87689001  1
  In  In22  1  0.16550091  0.66870125  0.37702917  1
  In  In23  1  0.16714690  0.67677748  0.86802973  1
  In  In24  1  0.48959279  -0.01006979  0.36647878  1
  In  In25  1  0.50635386  -0.01271317  0.87158264  1
  In  In26  1  0.51194164  0.33461934  0.37302995  1
  In  In27  1  0.49797629  0.34645308  0.87566872  1
  In  In28  1  0.50130163  0.66171095  0.37274525  1
  In  In29  1  0.49269233  0.68034977  0.87042912  1
  In  In30  1  0.83444951  -0.00890151  0.37064870  1
  In  In31  1  0.83086978  0.00515641  0.87951606  1
  In  In32  1  0.82611081  0.34484925  0.38652022  1
  In  In33  1  0.83253373  0.32411979  0.88320575  1
  In  In34  1  0.82767238  0.67336329  0.36788710  1
  In  In35  1  0.84967361  0.66582880  0.87312320  1
  In  In36  1  -0.00605355  0.14741872  0.37073961  1
  In  In37  1  0.00363227  0.16671563  0.89109743  1
  In  In38  1  -0.01527228  0.51438426  0.38985391  1
  In  In39  1  -0.00448122  0.51555629  0.86780899  1
  In  In40  1  -0.00450889  0.83318687  0.37323902  1
  In  In41  1  0.00313235  0.82763474  0.88343629  1
  In  In42  1  0.34208429  0.16480125  0.37254946  1
  In  In43  1  0.32149811  0.16851286  0.87906515  1
  In  In44  1  0.32166871  0.50713182  0.38488480  1
  In  In45  1  0.32973470  0.50515446  0.86557202  1
  In  In46  1  0.33265580  0.82984450  0.37572621  1
  In  In47  1  0.32684247  0.82212185  0.87192434  1
  In  In48  1  0.67561352  0.17222849  0.36422714  1
  In  In49  1  0.68679423  0.16439103  0.88245522  1
  In  In50  1  0.66352646  0.50327461  0.37162197  1
  In  In51  1  0.66702250  0.49288221  0.87934195  1
  In  In52  1  0.67028833  0.82759869  0.36782924  1
  In  In53  1  0.66238793  0.84701850  0.87521765  1
  In  In54  1  0.16315334  -0.00542422  0.12578277  1
  In  In55  1  0.17172438  -0.01266814  0.62282707  1
  In  In56  1  0.16795608  0.32225075  0.11517956  1
  In  In57  1  0.16642155  0.35769563  0.62429590  1
  In  In58  1  0.15253140  0.67974842  0.13746658  1
  In  In59  1  0.16965536  0.67119181  0.62513661  1
  In  In60  1  0.50900464  -0.01165199  0.13667666  1
  In  In61  1  0.51316075  0.00482974  0.62196385  1
  In  In62  1  0.50843318  0.34325665  0.12992734  1
  In  In63  1  0.48975061  0.33868368  0.62664172  1
  In  In64  1  0.49345709  0.65720473  0.14306735  1
  In  In65  1  0.49176581  0.65796814  0.61254767  1
  In  In66  1  0.83493988  -0.00356598  0.13244965  1
  In  In67  1  0.82632643  -0.00642494  0.61375752  1
  In  In68  1  0.82854663  0.32024912  0.12200865  1
  In  In69  1  0.84794420  0.33605398  0.60641187  1
  In  In70  1  0.82386232  0.68031216  0.14418931  1
  In  In71  1  0.84310244  0.67712998  0.61370376  1
  In  In72  1  0.66435623  0.67390274  0.74505222  1
  In  In73  1  0.33328833  0.33125387  0.24478805  1
  In  In74  1  0.67133534  0.33121978  0.75522550  1
  In  In75  1  -0.00310719  0.33443708  0.24876433  1
  In  In76  1  0.50012764  0.16501307  0.00778953  1
  In  In77  1  0.00312734  0.33952723  0.75298495  1
  In  In78  1  0.16754643  0.49841271  0.00112549  1
  In  In79  1  -0.00062272  -0.00453612  0.74420145  1
  In  In80  1  0.33678339  -0.00430487  0.75110477  1
  In  In81  1  0.50669019  0.16979555  0.50133715  1
  In  In82  1  0.49750347  0.83022827  0.00170825  1
  In  In83  1  0.16363107  0.16155648  0.50195289  1
  In  In84  1  0.50127751  0.49771424  0.00596845  1
  In  In85  1  0.83769310  0.49616877  0.00261181  1
  Cu  Cu86  1  -0.00607824  -0.00814938  0.49377787  1
  Cu  Cu87  1  0.83049515  0.49951781  0.26009399  1
  Cu  Cu88  1  0.16948363  0.83181713  0.25313888  1
  Cu  Cu89  1  0.66892832  0.33840047  0.49489098  1
  Cu  Cu90  1  0.84078129  0.50530432  0.74292384  1
  Cu  Cu91  1  0.67778385  -0.00060600  0.00467174  1
  Cu  Cu92  1  0.50348207  0.17035561  0.74875446  1
  Cu  Cu93  1  0.16895587  0.16874665  0.75556857  1
  Cu  Cu94  1  0.67459815  0.66813080  0.01157060  1
  Cu  Cu95  1  0.82939444  0.83784189  0.74162103  1
  Cu  Cu96  1  0.66810238  0.66670494  0.49010182  1
  Cu  Cu97  1  0.16576059  0.15846349  0.24438802  1
  Cu  Cu98  1  -0.00169746  -0.00429618  0.00661590  1
  Cu  Cu99  1  0.00030863  0.67096632  0.49524023  1
  Cu  Cu100  1  0.49822268  0.82807110  0.25595114  1
  Cu  Cu101  1  0.83428391  0.16391275  0.24807726  1
  Cu  Cu102  1  0.33300874  0.66752550  0.49698811  1
  Cu  Cu103  1  0.16538558  0.50392440  0.25585934  1
  Cu  Cu104  1  0.66569033  -0.00115852  0.49034906  1
  Cu  Cu105  1  0.49805827  0.83665193  0.74286494  1
  Cu  Cu106  1  0.17424508  0.51056478  0.74402508  1
  Cu  Cu107  1  0.32656578  0.66722488  0.00121112  1
  Cu  Cu108  1  0.33044955  -0.00573407  0.49197906  1
  Cu  Cu109  1  0.33175579  0.34514695  0.50523558  1
  Cu  Cu110  1  -0.00339516  0.67592153  0.00493038  1
  Cu  Cu111  1  0.50169554  0.16116443  0.25045881  1
  Cu  Cu112  1  0.32390624  -0.00243079  0.00467086  1
  Cu  Cu113  1  0.82995468  0.16227896  0.75109747  1
  Cu  Cu114  1  0.49703092  0.50496453  0.74641963  1
  Se  Se115  1  0.08565645  0.08113842  0.05484108  1
  Se  Se116  1  0.07096401  0.06919825  0.56121036  1
  Se  Se117  1  0.07057241  0.41269074  0.05876399  1
  Se  Se118  1  0.06127402  0.38987982  0.55366029  1
  Se  Se119  1  0.08598344  0.75423718  0.05646313  1
  Se  Se120  1  0.08365103  0.74957200  0.55368141  1
  Se  Se121  1  0.41447836  0.06570364  0.06399402  1
  Se  Se122  1  0.40714166  0.07692046  0.55373307  1
  Se  Se123  1  0.40622295  0.40392556  0.05786367  1
  Se  Se124  1  0.42079005  0.42564885  0.55505260  1
  Se  Se125  1  0.41238408  0.73888097  0.06384936  1
  Se  Se126  1  0.42189930  0.75314651  0.54513535  1
  Se  Se127  1  0.75686840  0.08294646  0.05987448  1
  Se  Se128  1  0.74623123  0.08296840  0.54719556  1
  Se  Se129  1  0.73936271  0.42003225  0.06531655  1
  Se  Se130  1  0.75591950  0.42061365  0.54695991  1
  Se  Se131  1  0.75635001  0.75307846  0.06126889  1
  Se  Se132  1  0.75003580  0.74955593  0.54672497  1
  Se  Se133  1  0.25436832  0.25085205  0.04549207  1
  Se  Se134  1  0.25573371  0.25487087  0.56185784  1
  Se  Se135  1  0.25034049  0.58975993  0.06584258  1
  Se  Se136  1  0.25014059  0.58632923  0.55465019  1
  Se  Se137  1  0.24567335  0.90855651  0.05619997  1
  Se  Se138  1  0.24396155  0.91370819  0.54484685  1
  Se  Se139  1  0.59234715  0.25323135  0.06500097  1
  Se  Se140  1  0.59451572  0.26153413  0.56387750  1
  Se  Se141  1  0.58970988  0.58944165  0.06637615  1
  Se  Se142  1  0.58533849  0.58419655  0.54654944  1
  Se  Se143  1  0.59382625  0.91536439  0.05958503  1
  Se  Se144  1  0.58121734  0.92048339  0.54721985  1
  Se  Se145  1  0.92062425  0.26086336  0.05033753  1
  Se  Se146  1  0.90445717  0.23047251  0.54320174  1
  Se  Se147  1  0.91778665  0.59282879  0.06370076  1
  Se  Se148  1  0.91368645  0.58400294  0.54531606  1
  Se  Se149  1  0.91488207  0.91379255  0.06055965  1
  Se  Se150  1  0.91202338  0.90882162  0.55023247  1
  Se  Se151  1  0.07741072  0.24457227  0.43570282  1
  Se  Se152  1  0.08599487  0.25840572  0.94875419  1
  Se  Se153  1  0.08841571  0.58321721  0.44967667  1
  Se  Se154  1  0.07639165  0.59280131  0.94474275  1
  Se  Se155  1  0.08323402  0.90954430  0.44710322  1
  Se  Se156  1  0.08208830  0.91481262  0.95045982  1
  Se  Se157  1  0.40935855  0.26061043  0.44536577  1
  Se  Se158  1  0.41603286  0.25406387  0.94205622  1
  Se  Se159  1  0.41848150  0.58315067  0.44662336  1
  Se  Se160  1  0.41264034  0.59110138  0.94279102  1
  Se  Se161  1  0.41971378  0.91246174  0.44448941  1
  Se  Se162  1  0.40536661  0.92154135  0.94138293  1
  Se  Se163  1  0.74523640  0.24628922  0.44456991  1
  Se  Se164  1  0.75288432  0.24968045  0.95531211  1
  Se  Se165  1  0.75296189  0.58321162  0.43821902  1
  Se  Se166  1  0.74561986  0.59077488  0.94218278  1
  Se  Se167  1  0.74895101  0.91214290  0.44069161  1
  Se  Se168  1  0.75252564  0.91350726  0.94644897  1
  Se  Se169  1  0.25034299  0.07741180  0.43460753  1
  Se  Se170  1  0.24659340  0.08497425  0.95038189  1
  Se  Se171  1  0.24080814  0.42167123  0.45448523  1
  Se  Se172  1  0.26325073  0.41539443  0.94122564  1
  Se  Se173  1  0.24759867  0.75203386  0.44675425  1
  Se  Se174  1  0.24529449  0.74946316  0.94630737  1
  Se  Se175  1  0.58418551  0.08138744  0.43271160  1
  Se  Se176  1  0.58814511  0.07179692  0.94469616  1
  Se  Se177  1  0.58209310  0.42057555  0.44520832  1
  Se  Se178  1  0.59672567  0.40262736  0.95120366  1
  Se  Se179  1  0.58365165  0.75068404  0.43888775  1
  Se  Se180  1  0.59343503  0.73981956  0.94374455  1
  Se  Se181  1  0.91029857  0.07778792  0.44507421  1
  Se  Se182  1  0.91597608  0.08001718  0.95112117  1
  Se  Se183  1  0.92984651  0.40461171  0.44923908  1
  Se  Se184  1  0.93095267  0.41562445  0.93715355  1
  Se  Se185  1  0.91316080  0.74931645  0.44167539  1
  Se  Se186  1  0.90863180  0.75286588  0.95005985  1
  Se  Se187  1  0.23993558  0.24188656  0.30653028  1
  Se  Se188  1  0.25581926  0.25365525  0.80225290  1
  Se  Se189  1  0.25036544  0.58543594  0.30761000  1
  Se  Se190  1  0.25319990  0.59526344  0.80055788  1
  Se  Se191  1  0.25435567  0.91707446  0.30478958  1
  Se  Se192  1  0.23814112  0.91335048  0.80870050  1
  Se  Se193  1  0.58225421  0.25042000  0.29974139  1
  Se  Se194  1  0.58120672  0.24239284  0.81677375  1
  Se  Se195  1  0.58824496  0.58872735  0.30139357  1
  Se  Se196  1  0.57954903  0.57905273  0.81043738  1
  Se  Se197  1  0.58382471  0.91555132  0.30235239  1
  Se  Se198  1  0.58533424  0.91595238  0.79555107  1
  Se  Se199  1  0.90846900  0.24712057  0.31122500  1
  Se  Se200  1  0.91478665  0.24009998  0.80934142  1
  Se  Se201  1  0.91846891  0.58312335  0.30680029  1
  Se  Se202  1  0.92150330  0.59380603  0.79256354  1
  Se  Se203  1  0.93860811  0.93442833  0.30444812  1
  Se  Se204  1  0.90901308  0.91229889  0.80806673  1
  Se  Se205  1  0.08079667  0.07826229  0.29813756  1
  Se  Se206  1  0.08368852  0.08930925  0.80981639  1
  Se  Se207  1  0.08341249  0.42227707  0.31320190  1
  Se  Se208  1  0.09805145  0.43101280  0.81019658  1
  Se  Se209  1  0.08437232  0.75030043  0.30669864  1
  Se  Se210  1  0.06321528  0.74102462  0.80711425  1
  Se  Se211  1  0.41179411  0.08110905  0.29924311  1
  Se  Se212  1  0.42403879  0.09014420  0.81240381  1
  Se  Se213  1  0.40880138  0.41535642  0.31660844  1
  Se  Se214  1  0.41766957  0.42001837  0.80194856  1
  Se  Se215  1  0.41267956  0.74511798  0.30648508  1
  Se  Se216  1  0.41387422  0.75521841  0.79677345  1
  Se  Se217  1  0.75226767  0.07824614  0.30136485  1
  Se  Se218  1  0.74755125  0.07956506  0.80440388  1
  Se  Se219  1  0.74740697  0.41092312  0.30739116  1
  Se  Se220  1  0.76822404  0.42602596  0.80893604  1
  Se  Se221  1  0.76354355  0.76509054  0.29526172  1
  Se  Se222  1  0.75526273  0.75769097  0.80914270  1
  Se  Se223  1  0.25231109  0.07697334  0.19350622  1
  Se  Se224  1  0.24412491  0.08921059  0.69088319  1
  Se  Se225  1  0.23379075  0.42038694  0.18972588  1
  Se  Se226  1  0.25680645  0.42142701  0.69600116  1
  Se  Se227  1  0.25424420  0.74606591  0.20117509  1
  Se  Se228  1  0.25367331  0.75348814  0.69352890  1
  Se  Se229  1  0.58868679  0.07698317  0.20152798  1
  Se  Se230  1  0.58558080  0.08513294  0.69804531  1
  Se  Se231  1  0.56457143  0.42572932  0.20861633  1
  Se  Se232  1  0.58540155  0.42532489  0.69282641  1
  Se  Se233  1  0.58172041  0.74768074  0.19964556  1
  Se  Se234  1  0.57693364  0.75780374  0.68023604  1
  Se  Se235  1  0.92272605  0.08520919  0.19570525  1
  Se  Se236  1  0.91106982  0.08963777  0.68661059  1
  Se  Se237  1  0.90426692  0.42495596  0.18983249  1
  Se  Se238  1  0.91816457  0.42200047  0.68462639  1
  Se  Se239  1  0.93689821  0.73387280  0.19965402  1
  Se  Se240  1  0.91399319  0.75259231  0.69257555  1
  Se  Se241  1  0.08488595  0.24239525  0.18817522  1
  Se  Se242  1  0.09273219  0.24787483  0.69140475  1
  Se  Se243  1  0.07915435  0.58757745  0.20573973  1
  Se  Se244  1  0.08248494  0.58094449  0.68845136  1
  Se  Se245  1  0.08503069  0.91367527  0.19810729  1
  Se  Se246  1  0.09398405  0.90196738  0.69439402  1
  Se  Se247  1  0.42288944  0.23774725  0.18542507  1
  Se  Se248  1  0.41832640  0.25620020  0.70193715  1
  Se  Se249  1  0.40908015  0.57477530  0.20799010  1
  Se  Se250  1  0.41774116  0.59235094  0.69486309  1
  Se  Se251  1  0.41633056  0.91285865  0.20085513  1
  Se  Se252  1  0.41815623  0.91436812  0.68010041  1
  Se  Se253  1  0.74946133  0.25140969  0.19974847  1
  Se  Se254  1  0.76151469  0.25100246  0.68847756  1
  Se  Se255  1  0.74719867  0.58515854  0.20730053  1
  Se  Se256  1  0.75440969  0.58229395  0.68655545  1
  Se  Se257  1  0.74962624  0.92056683  0.20337567  1
  Se  Se258  1  0.74560057  0.92093806  0.69020468  1
