# generated using pymatgen
data_In86Cu29Se144
_symmetry_space_group_name_H-M   'P 1'
_cell_length_a   17.58477006
_cell_length_b   17.58820419
_cell_length_c   23.45180194
_cell_angle_alpha   90.01214350
_cell_angle_beta   90.00642207
_cell_angle_gamma   90.00059751
_symmetry_Int_Tables_number   1
_chemical_formula_structural   In86Cu29Se144
_chemical_formula_sum   'In86 Cu29 Se144'
_cell_volume   7253.27924695
_cell_formula_units_Z   1
loop_
 _symmetry_equiv_pos_site_id
 _symmetry_equiv_pos_as_xyz
  1  'x, y, z'
loop_
 _atom_site_type_symbol
 _atom_site_label
 _atom_site_symmetry_multiplicity
 _atom_site_fract_x
 _atom_site_fract_y
 _atom_site_fract_z
 _atom_site_occupancy
  In  In0  1  0.00698941  0.15693113  0.12609174  1
  In  In1  1  -0.00273125  0.15967830  0.61682459  1
  In  In2  1  0.00191614  0.50378919  0.11627851  1
  In  In3  1  -0.00840429  0.50360053  0.62487632  1
  In  In4  1  0.01215792  0.83178943  0.12501776  1
  In  In5  1  0.00592394  0.84621538  0.62343789  1
  In  In6  1  0.32557787  0.15441559  0.11392798  1
  In  In7  1  0.33331968  0.16236024  0.62200586  1
  In  In8  1  0.34627189  0.51352090  0.11669502  1
  In  In9  1  0.34233019  0.49475277  0.63785250  1
  In  In10  1  0.33486847  0.83606011  0.12911248  1
  In  In11  1  0.33686447  0.83452361  0.63111603  1
  In  In12  1  0.65938569  0.18015742  0.13311449  1
  In  In13  1  0.65942712  0.16375628  0.61574174  1
  In  In14  1  0.65221702  0.48835381  0.12291831  1
  In  In15  1  0.66246127  0.49915851  0.62106600  1
  In  In16  1  0.65628269  0.84369791  0.12931005  1
  In  In17  1  0.66179742  0.82912521  0.61298537  1
  In  In18  1  0.17895771  0.00894605  0.36903288  1
  In  In19  1  0.17396376  0.00280172  0.87638563  1
  In  In20  1  0.16705934  0.32569839  0.37689272  1
  In  In21  1  0.17678741  0.31906341  0.88299531  1
  In  In22  1  0.18146521  0.66304568  0.36985738  1
  In  In23  1  0.17961042  0.65558030  0.88320265  1
  In  In24  1  0.49856178  -0.00399491  0.37843767  1
  In  In25  1  0.45915712  0.02844535  0.90773185  1
  In  In26  1  0.50059115  0.32132177  0.37880732  1
  In  In27  1  0.49438442  0.34687157  0.88163739  1
  In  In28  1  0.49087064  0.67316895  0.37694205  1
  In  In29  1  0.49004831  0.67653641  0.88386962  1
  In  In30  1  0.84464927  -0.01036502  0.37894427  1
  In  In31  1  0.84404667  -0.01025191  0.86974088  1
  In  In32  1  0.82271901  0.34194524  0.38274839  1
  In  In33  1  0.84015554  0.33564384  0.87372033  1
  In  In34  1  0.82331540  0.67053376  0.38087110  1
  In  In35  1  0.82257889  0.66280030  0.87354823  1
  In  In36  1  0.01301315  0.15285874  0.38476811  1
  In  In37  1  0.01798455  0.16313874  0.87381971  1
  In  In38  1  -0.00168453  0.48855835  0.37609300  1
  In  In39  1  -0.00408338  0.50343010  0.88157759  1
  In  In40  1  -0.01652579  0.84084182  0.37105366  1
  In  In41  1  0.00517731  0.85062389  0.87108513  1
  In  In42  1  0.35840553  0.14123966  0.40428757  1
  In  In43  1  0.32949152  0.17172379  0.87176289  1
  In  In44  1  0.33736354  0.50953579  0.37223331  1
  In  In45  1  0.33511053  0.49849757  0.87571853  1
  In  In46  1  0.35028425  0.84837588  0.35728750  1
  In  In47  1  0.33632461  0.83526432  0.87876210  1
  In  In48  1  0.65658497  0.17692998  0.38206640  1
  In  In49  1  0.65707479  0.15479235  0.87352745  1
  In  In50  1  0.66748164  0.49405734  0.37484488  1
  In  In51  1  0.66639288  0.49923238  0.88309864  1
  In  In52  1  0.66434549  0.83423813  0.37807990  1
  In  In53  1  0.65880989  0.82597884  0.87491797  1
  In  In54  1  0.17217242  -0.00317498  0.12263699  1
  In  In55  1  0.16874004  0.00488635  0.62809997  1
  In  In56  1  0.16778081  0.33393622  0.11508034  1
  In  In57  1  0.18889145  0.33200880  0.62312545  1
  In  In58  1  0.18234494  0.68677505  0.11012183  1
  In  In59  1  0.17223732  0.67747028  0.63126911  1
  In  In60  1  0.47037219  -0.02050951  0.10363508  1
  In  In61  1  0.48864751  -0.00734800  0.61292475  1
  In  In62  1  0.50377342  0.33904920  0.12410402  1
  In  In63  1  0.47199378  0.31899302  0.60706193  1
  In  In64  1  0.48745305  0.65784025  0.12746231  1
  In  In65  1  0.49474882  0.66292995  0.62176908  1
  In  In66  1  0.83906453  0.00703607  0.13376153  1
  In  In67  1  0.84095159  0.00772905  0.61354531  1
  In  In68  1  0.81636965  0.33588435  0.13240716  1
  In  In69  1  0.83437919  0.33252342  0.61944288  1
  In  In70  1  0.84527424  0.66404173  0.12712683  1
  In  In71  1  0.82321144  0.66058520  0.61541537  1
  In  In72  1  0.65751626  -0.00683853  0.74844229  1
  In  In73  1  0.00040765  0.33023036  0.25748727  1
  In  In74  1  0.66019091  0.33601100  0.74702111  1
  In  In75  1  0.17141510  0.83691433  0.50416312  1
  In  In76  1  0.16786003  0.49831982  0.50039002  1
  In  In77  1  0.83187061  0.17458088  0.00691403  1
  In  In78  1  0.83082956  0.82919016  -0.00204430  1
  In  In79  1  0.00386322  0.66923546  0.75510796  1
  In  In80  1  0.00773831  0.32944570  0.74447057  1
  In  In81  1  0.66108009  0.00661919  0.25412198  1
  In  In82  1  0.00662013  0.67189031  0.24839492  1
  In  In83  1  0.66109687  0.66607868  0.74452505  1
  In  In84  1  0.33475884  0.32671255  0.25193624  1
  In  In85  1  0.66208066  0.66845676  0.25356550  1
  Cu  Cu86  1  0.16799135  0.83991343  0.24291191  1
  Cu  Cu87  1  0.49540981  0.50145648  0.75068666  1
  Cu  Cu88  1  0.66457694  0.66359648  0.49422002  1
  Cu  Cu89  1  0.66601316  0.65920860  0.00473061  1
  Cu  Cu90  1  0.17782651  0.50823869  0.24157014  1
  Cu  Cu91  1  0.83526128  0.16608748  0.25682429  1
  Cu  Cu92  1  0.83987407  0.83877137  0.74025023  1
  Cu  Cu93  1  0.17469960  0.15887167  0.75128183  1
  Cu  Cu94  1  0.00601029  0.00262438  0.00016185  1
  Cu  Cu95  1  -0.00091443  -0.00485067  0.49954502  1
  Cu  Cu96  1  0.33417542  0.66659699  -0.00010687  1
  Cu  Cu97  1  0.66516275  0.33596557  0.00388669  1
  Cu  Cu98  1  -0.00910486  0.66379384  0.49687979  1
  Cu  Cu99  1  0.00113772  0.66563147  -0.00076556  1
  Cu  Cu100  1  -0.00484489  0.33021227  0.49931423  1
  Cu  Cu101  1  0.49128002  0.84230717  0.75700470  1
  Cu  Cu102  1  -0.00167639  0.33815760  -0.00209893  1
  Cu  Cu103  1  0.17196037  0.15844632  0.25131080  1
  Cu  Cu104  1  0.49369815  0.15966970  0.25321907  1
  Cu  Cu105  1  0.17863135  0.83955751  0.75249512  1
  Cu  Cu106  1  0.48759939  0.16681229  0.74891675  1
  Cu  Cu107  1  0.33912309  0.66879323  0.50231895  1
  Cu  Cu108  1  0.83942383  0.15843733  0.74109512  1
  Cu  Cu109  1  0.65907407  0.00235798  0.00342954  1
  Cu  Cu110  1  0.66731772  0.33670245  0.50031055  1
  Cu  Cu111  1  0.83029264  0.50092283  0.25360589  1
  Cu  Cu112  1  0.66796924  0.00065031  0.49528253  1
  Cu  Cu113  1  0.17080178  0.49669964  0.75841868  1
  Cu  Cu114  1  0.33412010  0.33276424  -0.00099245  1
  Se  Se115  1  0.08933517  0.08508709  0.05363807  1
  Se  Se116  1  0.08489435  0.07581575  0.55300050  1
  Se  Se117  1  0.08488782  0.42022159  0.04983146  1
  Se  Se118  1  0.07645195  0.40837187  0.56247166  1
  Se  Se119  1  0.08184829  0.75627781  0.04677971  1
  Se  Se120  1  0.07515473  0.73955929  0.55694335  1
  Se  Se121  1  0.41725626  0.08823777  0.04232523  1
  Se  Se122  1  0.42924767  0.09765602  0.55142079  1
  Se  Se123  1  0.41782633  0.41487063  0.05349518  1
  Se  Se124  1  0.41708400  0.43625853  0.55521351  1
  Se  Se125  1  0.41423593  0.74728801  0.05864443  1
  Se  Se126  1  0.41676123  0.75569505  0.55768031  1
  Se  Se127  1  0.74263506  0.07880437  0.06354430  1
  Se  Se128  1  0.74879386  0.08521264  0.54979508  1
  Se  Se129  1  0.75094721  0.41845687  0.05581177  1
  Se  Se130  1  0.75041056  0.41846260  0.55506424  1
  Se  Se131  1  0.74311497  0.74463528  0.06452790  1
  Se  Se132  1  0.74908214  0.74881995  0.54705652  1
  Se  Se133  1  0.24872602  0.24827628  0.04928345  1
  Se  Se134  1  0.24991044  0.24352665  0.55105766  1
  Se  Se135  1  0.24775950  0.58064463  0.05050580  1
  Se  Se136  1  0.25379768  0.59092235  0.56194681  1
  Se  Se137  1  0.24693798  0.90621505  0.05671924  1
  Se  Se138  1  0.26312431  0.92793341  0.55852682  1
  Se  Se139  1  0.58261588  0.25002987  0.05484435  1
  Se  Se140  1  0.58116960  0.25332642  0.55071871  1
  Se  Se141  1  0.57818544  0.58168416  0.05810601  1
  Se  Se142  1  0.58308526  0.58591243  0.55429354  1
  Se  Se143  1  0.58044258  0.90950951  0.04959862  1
  Se  Se144  1  0.58234478  0.91708665  0.54798705  1
  Se  Se145  1  0.92396806  0.26285423  0.06743029  1
  Se  Se146  1  0.91254720  0.24554032  0.55216329  1
  Se  Se147  1  0.91369794  0.58457056  0.04999999  1
  Se  Se148  1  0.91227451  0.57779823  0.55093729  1
  Se  Se149  1  0.91897014  0.92452677  0.05708221  1
  Se  Se150  1  0.91532727  0.90948200  0.55050498  1
  Se  Se151  1  0.08403258  0.25114097  0.44883957  1
  Se  Se152  1  0.08017033  0.24871859  0.94983896  1
  Se  Se153  1  0.07832834  0.59113968  0.43746578  1
  Se  Se154  1  0.08477354  0.58068814  0.94780678  1
  Se  Se155  1  0.08134178  0.91869751  0.43737968  1
  Se  Se156  1  0.08718711  0.91926012  0.94566081  1
  Se  Se157  1  0.40934934  0.26090784  0.45279894  1
  Se  Se158  1  0.41630818  0.25199412  0.94222584  1
  Se  Se159  1  0.41750251  0.58254489  0.44792437  1
  Se  Se160  1  0.41710412  0.58006305  0.94749019  1
  Se  Se161  1  0.41377110  0.91065184  0.44339432  1
  Se  Se162  1  0.43177117  0.89791876  0.94981436  1
  Se  Se163  1  0.75028603  0.24886975  0.44964234  1
  Se  Se164  1  0.74053370  0.25540548  0.93846180  1
  Se  Se165  1  0.74937279  0.57725251  0.44507343  1
  Se  Se166  1  0.75283815  0.58279028  0.94918186  1
  Se  Se167  1  0.75139317  0.91433746  0.44485437  1
  Se  Se168  1  0.74180259  0.92723625  0.94052149  1
  Se  Se169  1  0.23588582  0.08900776  0.44996026  1
  Se  Se170  1  0.24832816  0.09277562  0.94324641  1
  Se  Se171  1  0.25794962  0.41287927  0.43938289  1
  Se  Se172  1  0.25028703  0.41702351  0.94520694  1
  Se  Se173  1  0.25812286  0.74715464  0.44225200  1
  Se  Se174  1  0.25095626  0.75166766  0.94750740  1
  Se  Se175  1  0.58021088  0.08250187  0.44543960  1
  Se  Se176  1  0.58013983  0.09183145  0.95313946  1
  Se  Se177  1  0.58276074  0.41347130  0.44305118  1
  Se  Se178  1  0.58163377  0.42133442  0.95182563  1
  Se  Se179  1  0.58098617  0.74989569  0.44429408  1
  Se  Se180  1  0.58799210  0.74593079  0.95000997  1
  Se  Se181  1  0.91502455  0.08177398  0.44903186  1
  Se  Se182  1  0.91791905  0.08102690  0.94311084  1
  Se  Se183  1  0.91489219  0.41930263  0.44955777  1
  Se  Se184  1  0.91046403  0.41846761  0.94756035  1
  Se  Se185  1  0.91482434  0.75211229  0.44329853  1
  Se  Se186  1  0.92438427  0.74524453  0.93405636  1
  Se  Se187  1  0.25064350  0.23536981  0.31375486  1
  Se  Se188  1  0.24910008  0.25428148  0.79999956  1
  Se  Se189  1  0.26102105  0.58776109  0.29639928  1
  Se  Se190  1  0.25521296  0.58447589  0.80491008  1
  Se  Se191  1  0.25152019  0.92268648  0.29715736  1
  Se  Se192  1  0.25944477  0.92140963  0.80802341  1
  Se  Se193  1  0.57882307  0.24517478  0.30274245  1
  Se  Se194  1  0.57317017  0.24381850  0.80803950  1
  Se  Se195  1  0.57459649  0.57722604  0.31100616  1
  Se  Se196  1  0.57693985  0.57969123  0.81147824  1
  Se  Se197  1  0.57411705  0.90578818  0.30480518  1
  Se  Se198  1  0.57018825  0.91944604  0.81904760  1
  Se  Se199  1  0.91337260  0.24411129  0.32057462  1
  Se  Se200  1  0.91424876  0.23829042  0.80584721  1
  Se  Se201  1  0.91459490  0.58088135  0.30948441  1
  Se  Se202  1  0.90770771  0.57586450  0.80503070  1
  Se  Se203  1  0.91945672  0.92639573  0.29689673  1
  Se  Se204  1  0.92386308  0.91958734  0.79367355  1
  Se  Se205  1  0.08128990  0.08089936  0.30308735  1
  Se  Se206  1  0.08651880  0.07740908  0.80178780  1
  Se  Se207  1  0.09995016  0.42822108  0.30409559  1
  Se  Se208  1  0.08650896  0.41747564  0.81447948  1
  Se  Se209  1  0.09422696  0.76228654  0.31129988  1
  Se  Se210  1  0.09753686  0.75708033  0.81220978  1
  Se  Se211  1  0.41338033  0.08168504  0.31199710  1
  Se  Se212  1  0.41615306  0.08055266  0.80915167  1
  Se  Se213  1  0.42416503  0.41756524  0.30936400  1
  Se  Se214  1  0.41496137  0.41454082  0.80358893  1
  Se  Se215  1  0.40360502  0.73524393  0.30108583  1
  Se  Se216  1  0.41460567  0.74894187  0.80630970  1
  Se  Se217  1  0.75340157  0.08899752  0.31790233  1
  Se  Se218  1  0.75736216  0.08477274  0.80503605  1
  Se  Se219  1  0.74919539  0.41322986  0.30289476  1
  Se  Se220  1  0.75276919  0.42284631  0.80745614  1
  Se  Se221  1  0.75843484  0.76086372  0.30530304  1
  Se  Se222  1  0.75767426  0.76189536  0.80107660  1
  Se  Se223  1  0.25431795  0.08039900  0.19336186  1
  Se  Se224  1  0.25915680  0.07805680  0.69694229  1
  Se  Se225  1  0.25048741  0.41752214  0.18589679  1
  Se  Se226  1  0.25137693  0.41458197  0.70171486  1
  Se  Se227  1  0.24907798  0.74868933  0.19597582  1
  Se  Se228  1  0.25736022  0.74997466  0.70181800  1
  Se  Se229  1  0.57010320  0.08290170  0.18675907  1
  Se  Se230  1  0.57256511  0.08915665  0.69032238  1
  Se  Se231  1  0.59247925  0.40179596  0.19863481  1
  Se  Se232  1  0.56735017  0.41925680  0.68636118  1
  Se  Se233  1  0.57117649  0.75578410  0.19303971  1
  Se  Se234  1  0.57266317  0.76550907  0.69337868  1
  Se  Se235  1  0.92086810  0.09015371  0.20115669  1
  Se  Se236  1  0.92344373  0.07573993  0.69082398  1
  Se  Se237  1  0.91667896  0.42446551  0.19385927  1
  Se  Se238  1  0.90758120  0.42006125  0.69607894  1
  Se  Se239  1  0.91083692  0.76341733  0.19470799  1
  Se  Se240  1  0.91411768  0.74862784  0.68471327  1
  Se  Se241  1  0.09451167  0.24697288  0.19495202  1
  Se  Se242  1  0.09610545  0.23748599  0.68669506  1
  Se  Se243  1  0.09378021  0.58592300  0.18342944  1
  Se  Se244  1  0.09207568  0.57347344  0.69384644  1
  Se  Se245  1  0.08112259  0.92301394  0.19403267  1
  Se  Se246  1  0.09068297  0.91484647  0.69660163  1
  Se  Se247  1  0.41868017  0.23753561  0.18627011  1
  Se  Se248  1  0.40968383  0.25238866  0.69356376  1
  Se  Se249  1  0.42258423  0.56836988  0.20044183  1
  Se  Se250  1  0.41660441  0.59316849  0.70041526  1
  Se  Se251  1  0.41514418  0.92527922  0.19531026  1
  Se  Se252  1  0.41725368  0.92570670  0.69641432  1
  Se  Se253  1  0.74982206  0.24770987  0.20508183  1
  Se  Se254  1  0.75295882  0.24063337  0.69002774  1
  Se  Se255  1  0.75326041  0.57977841  0.19063752  1
  Se  Se256  1  0.75621217  0.57349313  0.69377178  1
  Se  Se257  1  0.75507946  0.91383723  0.19566480  1
  Se  Se258  1  0.75180234  0.91337193  0.68312903  1
