# generated using pymatgen
data_In86Cu29Se144
_symmetry_space_group_name_H-M   'P 1'
_cell_length_a   17.59126922
_cell_length_b   17.59769730
_cell_length_c   23.44546036
_cell_angle_alpha   90.00291191
_cell_angle_beta   90.01205902
_cell_angle_gamma   89.97178454
_symmetry_Int_Tables_number   1
_chemical_formula_structural   In86Cu29Se144
_chemical_formula_sum   'In86 Cu29 Se144'
_cell_volume   7257.91236802
_cell_formula_units_Z   1
loop_
 _symmetry_equiv_pos_site_id
 _symmetry_equiv_pos_as_xyz
  1  'x, y, z'
loop_
 _atom_site_type_symbol
 _atom_site_label
 _atom_site_symmetry_multiplicity
 _atom_site_fract_x
 _atom_site_fract_y
 _atom_site_fract_z
 _atom_site_occupancy
  In  In0  1  -0.00292849  0.18404710  0.13186390  1
  In  In1  1  0.00430081  0.18590632  0.61329943  1
  In  In2  1  -0.01825474  0.48460975  0.12045493  1
  In  In3  1  -0.02419112  0.46526472  0.59037751  1
  In  In4  1  -0.00700220  0.84126194  0.12087351  1
  In  In5  1  -0.00177846  0.83364373  0.62813552  1
  In  In6  1  0.34174608  0.14991270  0.13356033  1
  In  In7  1  0.33447907  0.15692636  0.61715581  1
  In  In8  1  0.33701024  0.51261100  0.12553156  1
  In  In9  1  0.32163715  0.49322149  0.60963407  1
  In  In10  1  0.35077573  0.82414709  0.14194540  1
  In  In11  1  0.35554479  0.83530472  0.61911053  1
  In  In12  1  0.65517621  0.16462989  0.11265052  1
  In  In13  1  0.65766360  0.15636283  0.61604719  1
  In  In14  1  0.69823197  0.50769943  0.12830071  1
  In  In15  1  0.67649868  0.51411684  0.62077669  1
  In  In16  1  0.66655367  0.83544295  0.13403068  1
  In  In17  1  0.66051533  0.84207107  0.63399783  1
  In  In18  1  0.18154758  0.00301069  0.38196859  1
  In  In19  1  0.17607434  -0.00431999  0.87112884  1
  In  In20  1  0.15552670  0.33558092  0.38651407  1
  In  In21  1  0.16474809  0.34734681  0.87538971  1
  In  In22  1  0.17331312  0.65319506  0.37449503  1
  In  In23  1  0.15510669  0.65933012  0.87795040  1
  In  In24  1  0.50400097  -0.00376927  0.37264360  1
  In  In25  1  0.50148727  -0.00453637  0.87567552  1
  In  In26  1  0.50489995  0.33236425  0.38366836  1
  In  In27  1  0.48950971  0.32737306  0.87908269  1
  In  In28  1  0.50144803  0.66771196  0.37179521  1
  In  In29  1  0.51567588  0.66569290  0.87657766  1
  In  In30  1  0.82372529  0.00433388  0.37041926  1
  In  In31  1  0.81886190  0.00546986  0.88178669  1
  In  In32  1  0.83998275  0.33087488  0.38193393  1
  In  In33  1  0.83613253  0.32691242  0.87587636  1
  In  In34  1  0.81352207  0.66048382  0.36524057  1
  In  In35  1  0.82479895  0.67245977  0.88627207  1
  In  In36  1  -0.01268424  0.18180000  0.39147043  1
  In  In37  1  -0.01864569  0.17030314  0.87321990  1
  In  In38  1  0.00602204  0.48477716  0.38416601  1
  In  In39  1  -0.00012908  0.49483136  0.87797766  1
  In  In40  1  -0.00590944  0.83953718  0.37215118  1
  In  In41  1  -0.00335815  0.82002245  0.88072858  1
  In  In42  1  0.34480267  0.14710067  0.39334525  1
  In  In43  1  0.34801427  0.15963793  0.87665027  1
  In  In44  1  0.33306152  0.50950270  0.37438432  1
  In  In45  1  0.32491629  0.48993425  0.87837367  1
  In  In46  1  0.36570494  0.85586975  0.35015599  1
  In  In47  1  0.33294695  0.84962732  0.87434423  1
  In  In48  1  0.66985984  0.15876025  0.37822820  1
  In  In49  1  0.67799436  0.15748947  0.88115499  1
  In  In50  1  0.66409498  0.50232584  0.38008783  1
  In  In51  1  0.66971366  0.51483369  0.87012540  1
  In  In52  1  0.63928611  0.81133380  0.34110685  1
  In  In53  1  0.66120996  0.83138876  0.88060779  1
  In  In54  1  0.18011921  0.00423599  0.13044810  1
  In  In55  1  0.17500189  0.01912402  0.61960977  1
  In  In56  1  0.14899735  0.33295062  0.13018533  1
  In  In57  1  0.15686725  0.32712441  0.61696048  1
  In  In58  1  0.18105438  0.66232219  0.12617198  1
  In  In59  1  0.16807400  0.65408880  0.61970724  1
  In  In60  1  0.50282106  -0.00306579  0.13022871  1
  In  In61  1  0.50332431  -0.00041086  0.62475338  1
  In  In62  1  0.51704839  0.32399556  0.12143838  1
  In  In63  1  0.49507728  0.32881096  0.61366148  1
  In  In64  1  0.50006686  0.68160359  0.13656568  1
  In  In65  1  0.50716171  0.67791723  0.61686709  1
  In  In66  1  0.81156723  -0.01298469  0.11347469  1
  In  In67  1  0.81591594  -0.00076125  0.62513420  1
  In  In68  1  0.83708588  0.34193385  0.11503991  1
  In  In69  1  0.83616717  0.33722042  0.62112390  1
  In  In70  1  0.82343328  0.66375213  0.12947247  1
  In  In71  1  0.82601778  0.64574776  0.62680513  1
  In  In72  1  0.32940835  0.33253098  0.26502798  1
  In  In73  1  0.17871145  0.82848960  0.49863482  1
  In  In74  1  0.82254689  0.83211699  0.49294313  1
  In  In75  1  0.00000798  0.00671417  0.25140722  1
  In  In76  1  0.16539293  0.16649960  0.00975362  1
  In  In77  1  0.33349111  0.32780533  0.74997728  1
  In  In78  1  0.50720918  0.49944632  0.00278348  1
  In  In79  1  0.16519636  0.83067590  -0.00228844  1
  In  In80  1  0.67561926  0.33710863  0.24532164  1
  In  In81  1  -0.00728516  0.00631432  0.75225475  1
  In  In82  1  0.66775229  0.33547216  0.75224414  1
  In  In83  1  0.33811504  0.66869501  0.74257462  1
  In  In84  1  -0.00089421  0.65935162  0.24723562  1
  In  In85  1  -0.00158007  0.66863927  0.75042115  1
  Cu  Cu86  1  0.17720580  0.84283398  0.74492037  1
  Cu  Cu87  1  0.65800306  -0.00493638  0.49692406  1
  Cu  Cu88  1  0.82197354  0.82973372  0.75930599  1
  Cu  Cu89  1  0.33827022  0.66823899  0.00602867  1
  Cu  Cu90  1  0.50783309  0.15364017  0.75009306  1
  Cu  Cu91  1  0.83458194  0.16920730  0.25082930  1
  Cu  Cu92  1  0.16609061  0.17248202  0.74270095  1
  Cu  Cu93  1  -0.00984273  0.00535290  0.00110000  1
  Cu  Cu94  1  -0.00542131  0.65621717  0.00275925  1
  Cu  Cu95  1  0.16539003  0.16751016  0.25920067  1
  Cu  Cu96  1  0.50569456  0.83444311  0.74980961  1
  Cu  Cu97  1  0.17247987  0.83070499  0.25331897  1
  Cu  Cu98  1  0.66588059  0.67057771  0.00619975  1
  Cu  Cu99  1  -0.00203578  0.66051217  0.49459005  1
  Cu  Cu100  1  0.16582687  0.49525548  0.25413943  1
  Cu  Cu101  1  0.50357125  0.50410948  0.74153774  1
  Cu  Cu102  1  0.15689195  0.50030824  0.74808394  1
  Cu  Cu103  1  -0.00103090  0.33494959  0.00035853  1
  Cu  Cu104  1  0.66252955  0.67244925  0.49402363  1
  Cu  Cu105  1  0.34467605  -0.00476117  0.00599677  1
  Cu  Cu106  1  -0.00514348  0.00391405  0.49965357  1
  Cu  Cu107  1  0.33397251  0.33602536  0.49505852  1
  Cu  Cu108  1  0.32853522  0.32977617  0.00144788  1
  Cu  Cu109  1  0.50034248  0.16458009  0.25182915  1
  Cu  Cu110  1  0.66962842  0.33317941  0.49954064  1
  Cu  Cu111  1  0.34465030  0.67203755  0.49055589  1
  Cu  Cu112  1  0.50980262  0.51041080  0.24986932  1
  Cu  Cu113  1  0.83142790  0.16909658  0.75038563  1
  Cu  Cu114  1  0.65960493  -0.00424538  0.00123333  1
  Se  Se115  1  0.07351733  0.07393588  0.06638978  1
  Se  Se116  1  0.07854724  0.08455666  0.55359002  1
  Se  Se117  1  0.08274232  0.41708757  0.05447342  1
  Se  Se118  1  0.11255076  0.44243836  0.55770575  1
  Se  Se119  1  0.07705990  0.73946459  0.06105377  1
  Se  Se120  1  0.07354008  0.74417775  0.55573761  1
  Se  Se121  1  0.42350507  0.08383284  0.05728608  1
  Se  Se122  1  0.43330234  0.09018659  0.55483343  1
  Se  Se123  1  0.41246958  0.40911291  0.06188784  1
  Se  Se124  1  0.41878694  0.42007690  0.54753749  1
  Se  Se125  1  0.41823524  0.75222527  0.05928850  1
  Se  Se126  1  0.42649292  0.75572481  0.54368449  1
  Se  Se127  1  0.74644024  0.08514610  0.04708857  1
  Se  Se128  1  0.74641368  0.07710206  0.54758956  1
  Se  Se129  1  0.73020188  0.40458453  0.05569221  1
  Se  Se130  1  0.74750167  0.41855824  0.55485133  1
  Se  Se131  1  0.74826927  0.75322513  0.06135380  1
  Se  Se132  1  0.74242282  0.74504464  0.56252491  1
  Se  Se133  1  0.25729125  0.25346787  0.07091967  1
  Se  Se134  1  0.25760073  0.25514167  0.55695463  1
  Se  Se135  1  0.25162065  0.58069628  0.05000326  1
  Se  Se136  1  0.25606886  0.59380061  0.54384899  1
  Se  Se137  1  0.25697798  0.91459397  0.06015782  1
  Se  Se138  1  0.26121895  0.92366671  0.55837226  1
  Se  Se139  1  0.58315262  0.25279824  0.04138494  1
  Se  Se140  1  0.58351567  0.24803251  0.54913403  1
  Se  Se141  1  0.58802155  0.58969254  0.06855787  1
  Se  Se142  1  0.58489225  0.58629310  0.55166585  1
  Se  Se143  1  0.58284926  0.91328913  0.06037628  1
  Se  Se144  1  0.58250961  0.91016393  0.55566786  1
  Se  Se145  1  0.91832221  0.24796475  0.05202194  1
  Se  Se146  1  0.90077686  0.24377742  0.55028853  1
  Se  Se147  1  0.90687073  0.58148290  0.05888159  1
  Se  Se148  1  0.90886457  0.58485920  0.54795353  1
  Se  Se149  1  0.90996793  0.91472768  0.04913764  1
  Se  Se150  1  0.91703502  0.91868773  0.55783512  1
  Se  Se151  1  0.08505175  0.24720085  0.45691546  1
  Se  Se152  1  0.08019012  0.25159960  0.94129490  1
  Se  Se153  1  0.08682877  0.58102592  0.44477803  1
  Se  Se154  1  0.08190908  0.57724738  0.94961566  1
  Se  Se155  1  0.07683627  0.91889153  0.44463721  1
  Se  Se156  1  0.07457388  0.92848345  0.94067764  1
  Se  Se157  1  0.42124166  0.24934583  0.44985945  1
  Se  Se158  1  0.41332533  0.24580014  0.95176240  1
  Se  Se159  1  0.42545131  0.58050330  0.44287116  1
  Se  Se160  1  0.41170585  0.58612849  0.93985994  1
  Se  Se161  1  0.41675488  0.91723569  0.44085125  1
  Se  Se162  1  0.42140334  0.91128753  0.94827768  1
  Se  Se163  1  0.74874564  0.24824103  0.44421559  1
  Se  Se164  1  0.74677085  0.25442853  0.94391152  1
  Se  Se165  1  0.74984006  0.58620543  0.44791623  1
  Se  Se166  1  0.74405610  0.58268571  0.95170959  1
  Se  Se167  1  0.73267697  0.91603348  0.43192514  1
  Se  Se168  1  0.74704899  0.91294778  0.94890200  1
  Se  Se169  1  0.24479571  0.08377040  0.45904967  1
  Se  Se170  1  0.25611513  0.07456794  0.94918768  1
  Se  Se171  1  0.25391342  0.42042863  0.44089454  1
  Se  Se172  1  0.24536268  0.41617606  0.95283058  1
  Se  Se173  1  0.26326489  0.74988677  0.42892540  1
  Se  Se174  1  0.25878811  0.74087487  0.93746035  1
  Se  Se175  1  0.57893579  0.08416324  0.44515594  1
  Se  Se176  1  0.58201051  0.08089609  0.94392170  1
  Se  Se177  1  0.58470283  0.41910198  0.45006506  1
  Se  Se178  1  0.58783370  0.41491995  0.93342192  1
  Se  Se179  1  0.58638624  0.75702090  0.43626729  1
  Se  Se180  1  0.57880982  0.74999548  0.95286622  1
  Se  Se181  1  0.90753319  0.07773672  0.44380242  1
  Se  Se182  1  0.90951867  0.08781230  0.94597105  1
  Se  Se183  1  0.92039287  0.41024717  0.45459132  1
  Se  Se184  1  0.91395362  0.41556360  0.94588246  1
  Se  Se185  1  0.91848490  0.74188341  0.43612030  1
  Se  Se186  1  0.91552939  0.74859893  0.95442363  1
  Se  Se187  1  0.24653786  0.23886088  0.32446631  1
  Se  Se188  1  0.24370382  0.24136904  0.81477942  1
  Se  Se189  1  0.25306757  0.58217411  0.29763710  1
  Se  Se190  1  0.24377657  0.57890112  0.80480715  1
  Se  Se191  1  0.24762394  0.92220345  0.30421633  1
  Se  Se192  1  0.25960129  0.92600716  0.79692614  1
  Se  Se193  1  0.58160373  0.24977741  0.30678784  1
  Se  Se194  1  0.57626351  0.24283193  0.81056572  1
  Se  Se195  1  0.59403121  0.58735771  0.30585566  1
  Se  Se196  1  0.58223415  0.58636766  0.79807718  1
  Se  Se197  1  0.59366816  0.93590475  0.29648429  1
  Se  Se198  1  0.58711930  0.91562607  0.80685191  1
  Se  Se199  1  0.91630506  0.24834604  0.30775178  1
  Se  Se200  1  0.91667715  0.25523963  0.79770120  1
  Se  Se201  1  0.91875830  0.57343992  0.31493822  1
  Se  Se202  1  0.91126956  0.58598915  0.81540676  1
  Se  Se203  1  0.90524802  0.91115745  0.30114953  1
  Se  Se204  1  0.91153601  0.90843807  0.81385553  1
  Se  Se205  1  0.08341256  0.08906497  0.32026550  1
  Se  Se206  1  0.09000522  0.09426833  0.81050169  1
  Se  Se207  1  0.08472451  0.41164752  0.30683590  1
  Se  Se208  1  0.07792013  0.41531859  0.80271668  1
  Se  Se209  1  0.08775138  0.75314627  0.31034962  1
  Se  Se210  1  0.09732176  0.76294834  0.80523570  1
  Se  Se211  1  0.41641966  0.08634612  0.30800440  1
  Se  Se212  1  0.41786627  0.07650996  0.80331092  1
  Se  Se213  1  0.43268750  0.42508212  0.30874656  1
  Se  Se214  1  0.42445141  0.42716739  0.80511005  1
  Se  Se215  1  0.41713358  0.73986027  0.29778057  1
  Se  Se216  1  0.42216008  0.75473349  0.81000553  1
  Se  Se217  1  0.74617079  0.08778072  0.29912419  1
  Se  Se218  1  0.75044423  0.08218336  0.80200574  1
  Se  Se219  1  0.75830696  0.42123333  0.31281121  1
  Se  Se220  1  0.75984731  0.42540176  0.80772676  1
  Se  Se221  1  0.76337436  0.76101189  0.29691585  1
  Se  Se222  1  0.74229509  0.74442528  0.81160756  1
  Se  Se223  1  0.24944804  0.08611687  0.20595545  1
  Se  Se224  1  0.25419410  0.08868539  0.69675386  1
  Se  Se225  1  0.24946653  0.41762640  0.19207143  1
  Se  Se226  1  0.24529842  0.42135739  0.69269753  1
  Se  Se227  1  0.25176617  0.74502902  0.19978475  1
  Se  Se228  1  0.24539636  0.75759268  0.68219442  1
  Se  Se229  1  0.58528656  0.09056387  0.19286676  1
  Se  Se230  1  0.59293946  0.07534333  0.69537988  1
  Se  Se231  1  0.58167230  0.42805499  0.18711667  1
  Se  Se232  1  0.57776966  0.41661000  0.68463027  1
  Se  Se233  1  0.58644824  0.75474158  0.20628762  1
  Se  Se234  1  0.58372944  0.74563163  0.69703116  1
  Se  Se235  1  0.90828758  0.08624813  0.18610744  1
  Se  Se236  1  0.90997794  0.09121468  0.68500387  1
  Se  Se237  1  0.91501415  0.40421505  0.19623902  1
  Se  Se238  1  0.91678305  0.42513710  0.68584662  1
  Se  Se239  1  0.91428549  0.75834493  0.19224045  1
  Se  Se240  1  0.90168750  0.75798313  0.69246843  1
  Se  Se241  1  0.08239969  0.25088312  0.20713437  1
  Se  Se242  1  0.07946835  0.25485260  0.69429285  1
  Se  Se243  1  0.08911298  0.57061962  0.18638369  1
  Se  Se244  1  0.07813975  0.57699928  0.68654139  1
  Se  Se245  1  0.09181966  0.90959579  0.19233088  1
  Se  Se246  1  0.08916912  0.92061316  0.68986405  1
  Se  Se247  1  0.42215117  0.25271452  0.19581868  1
  Se  Se248  1  0.42800260  0.24018242  0.69297041  1
  Se  Se249  1  0.41864564  0.58620762  0.19769467  1
  Se  Se250  1  0.41758262  0.57456732  0.67975882  1
  Se  Se251  1  0.40342603  0.93582016  0.19904747  1
  Se  Se252  1  0.42122262  0.91630755  0.69655402  1
  Se  Se253  1  0.75477659  0.24117437  0.18349479  1
  Se  Se254  1  0.74803567  0.24258662  0.68733018  1
  Se  Se255  1  0.75790832  0.58477850  0.20895335  1
  Se  Se256  1  0.74557078  0.58172936  0.70378354  1
  Se  Se257  1  0.74515361  0.92836739  0.19886757  1
  Se  Se258  1  0.74889153  0.91865791  0.70276551  1
