# generated using pymatgen
data_In86Cu29Se144
_symmetry_space_group_name_H-M   'P 1'
_cell_length_a   17.58359142
_cell_length_b   17.58500922
_cell_length_c   23.43907995
_cell_angle_alpha   90.00649528
_cell_angle_beta   90.01685884
_cell_angle_gamma   90.02706045
_symmetry_Int_Tables_number   1
_chemical_formula_structural   In86Cu29Se144
_chemical_formula_sum   'In86 Cu29 Se144'
_cell_volume   7247.54089130
_cell_formula_units_Z   1
loop_
 _symmetry_equiv_pos_site_id
 _symmetry_equiv_pos_as_xyz
  1  'x, y, z'
loop_
 _atom_site_type_symbol
 _atom_site_label
 _atom_site_symmetry_multiplicity
 _atom_site_fract_x
 _atom_site_fract_y
 _atom_site_fract_z
 _atom_site_occupancy
  In  In0  1  -0.00130942  0.17080250  0.12788300  1
  In  In1  1  0.00575497  0.15217643  0.62192008  1
  In  In2  1  -0.00600493  0.50480251  0.13510895  1
  In  In3  1  -0.00378434  0.51616145  0.62341360  1
  In  In4  1  -0.00769597  0.83819197  0.14332443  1
  In  In5  1  -0.00186728  0.82017519  0.62131744  1
  In  In6  1  0.31937661  0.17687426  0.12724042  1
  In  In7  1  0.33350971  0.16792469  0.61860538  1
  In  In8  1  0.35415854  0.48434812  0.14533177  1
  In  In9  1  0.34422206  0.49579166  0.62502944  1
  In  In10  1  0.34357479  0.82343470  0.13165736  1
  In  In11  1  0.32602014  0.84441212  0.62480943  1
  In  In12  1  0.67300007  0.16196971  0.13341575  1
  In  In13  1  0.65398778  0.16892151  0.62203955  1
  In  In14  1  0.63727737  0.52017438  0.15153434  1
  In  In15  1  0.66446782  0.50939438  0.60650240  1
  In  In16  1  0.65724568  0.84398805  0.13415802  1
  In  In17  1  0.67454365  0.84038616  0.62369222  1
  In  In18  1  0.17074647  0.00099777  0.37414481  1
  In  In19  1  0.17835145  -0.00059486  0.87588184  1
  In  In20  1  0.16510083  0.32550301  0.36976659  1
  In  In21  1  0.15979644  0.33389997  0.88084745  1
  In  In22  1  0.18004779  0.67190997  0.37309217  1
  In  In23  1  0.17113849  0.66292126  0.86057083  1
  In  In24  1  0.50947761  0.00821411  0.36976315  1
  In  In25  1  0.48474698  -0.00583401  0.86751782  1
  In  In26  1  0.49865802  0.33130033  0.36552682  1
  In  In27  1  0.51156171  0.33107152  0.88187520  1
  In  In28  1  0.50309952  0.65614538  0.36767406  1
  In  In29  1  0.48964108  0.67691799  0.88226574  1
  In  In30  1  0.82989191  -0.01638456  0.35975751  1
  In  In31  1  0.83561204  0.01044330  0.88064509  1
  In  In32  1  0.83947013  0.34332465  0.37193189  1
  In  In33  1  0.82302945  0.33202544  0.88142642  1
  In  In34  1  0.82055121  0.65537592  0.36338973  1
  In  In35  1  0.84766714  0.65866074  0.87545619  1
  In  In36  1  0.01053058  0.17104218  0.37175517  1
  In  In37  1  -0.00053352  0.16813871  0.88726037  1
  In  In38  1  -0.00732185  0.48862325  0.37287595  1
  In  In39  1  -0.00365322  0.51180989  0.86934292  1
  In  In40  1  0.00801439  0.84222026  0.36655623  1
  In  In41  1  0.01257123  0.82370473  0.87496578  1
  In  In42  1  0.33638927  0.16607427  0.37008196  1
  In  In43  1  0.33916760  0.15237088  0.87844531  1
  In  In44  1  0.35266911  0.50613277  0.35716886  1
  In  In45  1  0.33055192  0.51460220  0.87637712  1
  In  In46  1  0.32439274  0.82807762  0.37250924  1
  In  In47  1  0.33124616  0.83686321  0.86994606  1
  In  In48  1  0.66038386  0.15375053  0.36948894  1
  In  In49  1  0.67220052  0.17064337  0.88069857  1
  In  In50  1  0.66482548  0.50336498  0.36899178  1
  In  In51  1  0.66443676  0.48998246  0.87733069  1
  In  In52  1  0.66287340  0.82507114  0.36337156  1
  In  In53  1  0.64850431  0.83136404  0.87788429  1
  In  In54  1  0.15951643  0.00843100  0.13009073  1
  In  In55  1  0.17738379  0.01192886  0.61311056  1
  In  In56  1  0.17872133  0.32062717  0.13117694  1
  In  In57  1  0.18168438  0.33132714  0.61852413  1
  In  In58  1  0.16727033  0.66738143  0.13486447  1
  In  In59  1  0.15623644  0.67186608  0.62644967  1
  In  In60  1  0.50365560  -0.00815160  0.13106151  1
  In  In61  1  0.48808864  0.01096994  0.63394798  1
  In  In62  1  0.48988138  0.34457918  0.13763161  1
  In  In63  1  0.49746327  0.33696869  0.61365173  1
  In  In64  1  0.49350278  0.66867819  0.12670807  1
  In  In65  1  0.49906297  0.65175460  0.62101383  1
  In  In66  1  0.82079856  0.00944926  0.13747103  1
  In  In67  1  0.82866817  -0.01394511  0.62685383  1
  In  In68  1  0.83228917  0.33234172  0.13048897  1
  In  In69  1  0.81858551  0.33736660  0.61739173  1
  In  In70  1  0.83115199  0.67277576  0.14026661  1
  In  In71  1  0.83825111  0.66729264  0.62183848  1
  In  In72  1  0.66432822  0.66840660  0.74358945  1
  In  In73  1  0.82553985  0.83954977  0.01716984  1
  In  In74  1  0.16884343  0.83773284  -0.00078328  1
  In  In75  1  0.17216008  0.49685258  0.49645739  1
  In  In76  1  0.83284305  0.82592977  0.49538292  1
  In  In77  1  0.17378325  0.49798059  0.00367766  1
  In  In78  1  0.00181177  -0.00771322  0.75285556  1
  In  In79  1  0.00146595  0.34218042  0.75013002  1
  In  In80  1  0.33580425  0.33372114  0.74746635  1
  In  In81  1  0.49857105  0.16857759  0.00320200  1
  In  In82  1  0.66366851  0.33522879  0.75651472  1
  In  In83  1  0.50223602  0.82919936  0.48944511  1
  In  In84  1  0.83687170  0.16882878  0.48900174  1
  In  In85  1  0.83053377  0.49258280  0.00285196  1
  Cu  Cu86  1  0.49666448  0.83415884  0.25308747  1
  Cu  Cu87  1  0.33792762  0.66391779  0.00336032  1
  Cu  Cu88  1  0.50182944  0.50088206  0.74777935  1
  Cu  Cu89  1  0.17218477  0.83768294  0.25240981  1
  Cu  Cu90  1  0.00163655  0.33202257  0.49450818  1
  Cu  Cu91  1  0.33679194  0.66613430  0.49378843  1
  Cu  Cu92  1  0.33333155  0.00652699  0.49797165  1
  Cu  Cu93  1  0.00008093  0.66730255  0.49785283  1
  Cu  Cu94  1  0.00988964  -0.00065184  0.49133722  1
  Cu  Cu95  1  0.66417154  0.00203259  0.00815929  1
  Cu  Cu96  1  0.00406160  0.67016067  0.00406764  1
  Cu  Cu97  1  0.82744786  0.16329149  0.75755657  1
  Cu  Cu98  1  0.65689627  0.34040131  0.49211798  1
  Cu  Cu99  1  0.33588683  -0.00249001  -0.00138447  1
  Cu  Cu100  1  0.66592328  0.33811873  0.00954771  1
  Cu  Cu101  1  -0.00135556  0.01503557  0.00647419  1
  Cu  Cu102  1  0.49378488  0.83458024  0.75218940  1
  Cu  Cu103  1  0.83100626  0.49386425  0.25136977  1
  Cu  Cu104  1  0.66203614  0.00362123  0.49914346  1
  Cu  Cu105  1  0.50077855  0.16143382  0.24629280  1
  Cu  Cu106  1  0.65424734  0.65829140  0.00556108  1
  Cu  Cu107  1  0.83759365  0.16875837  0.25538121  1
  Cu  Cu108  1  0.33784593  0.33098531  0.49151353  1
  Cu  Cu109  1  0.16248300  0.49921716  0.25485881  1
  Cu  Cu110  1  0.16607317  0.16360122  0.25022020  1
  Cu  Cu111  1  0.16727503  0.83129860  0.74511053  1
  Cu  Cu112  1  0.82706730  0.82893155  0.74926100  1
  Cu  Cu113  1  0.00433200  0.32947282  0.00832664  1
  Cu  Cu114  1  0.17185340  0.16510827  0.74614504  1
  Se  Se115  1  0.08772635  0.09349669  0.05712923  1
  Se  Se116  1  0.08713368  0.08812028  0.54476667  1
  Se  Se117  1  0.07835384  0.41652665  0.06586458  1
  Se  Se118  1  0.07798239  0.41191441  0.55958977  1
  Se  Se119  1  0.07906659  0.75353461  0.06384266  1
  Se  Se120  1  0.08493488  0.75108127  0.54851300  1
  Se  Se121  1  0.41100833  0.07694502  0.06353255  1
  Se  Se122  1  0.42045648  0.08469829  0.55248713  1
  Se  Se123  1  0.41516328  0.41637920  0.05997017  1
  Se  Se124  1  0.41447708  0.41992218  0.54636722  1
  Se  Se125  1  0.41886509  0.75406181  0.05208526  1
  Se  Se126  1  0.41216214  0.74844246  0.55750613  1
  Se  Se127  1  0.75056573  0.08441996  0.05735598  1
  Se  Se128  1  0.75233127  0.07834723  0.55604636  1
  Se  Se129  1  0.73710992  0.42370772  0.07166839  1
  Se  Se130  1  0.74703313  0.41852486  0.54384136  1
  Se  Se131  1  0.73677714  0.73739286  0.06469873  1
  Se  Se132  1  0.73759314  0.73987387  0.55492376  1
  Se  Se133  1  0.25017480  0.25426328  0.04969032  1
  Se  Se134  1  0.25320217  0.24896488  0.54586090  1
  Se  Se135  1  0.25745886  0.58907872  0.06554395  1
  Se  Se136  1  0.25732546  0.58854885  0.55887775  1
  Se  Se137  1  0.25683506  0.92115616  0.06374508  1
  Se  Se138  1  0.25021819  0.91780851  0.54693959  1
  Se  Se139  1  0.58682798  0.25377249  0.06723719  1
  Se  Se140  1  0.58270341  0.25213348  0.54866643  1
  Se  Se141  1  0.57406296  0.57606497  0.06088477  1
  Se  Se142  1  0.57091968  0.58136800  0.54274453  1
  Se  Se143  1  0.58044560  0.91451364  0.05500223  1
  Se  Se144  1  0.58228504  0.92078353  0.55761977  1
  Se  Se145  1  0.91267321  0.25239567  0.05819562  1
  Se  Se146  1  0.92349053  0.25294548  0.55999855  1
  Se  Se147  1  0.91664173  0.59221570  0.05942930  1
  Se  Se148  1  0.91293893  0.58512600  0.54785815  1
  Se  Se149  1  0.92533594  0.92917299  0.06610219  1
  Se  Se150  1  0.92546973  0.92336488  0.55294363  1
  Se  Se151  1  0.08797318  0.24883514  0.44689401  1
  Se  Se152  1  0.08729157  0.24881976  0.95249698  1
  Se  Se153  1  0.08027700  0.58596591  0.43735065  1
  Se  Se154  1  0.08288949  0.59243243  0.94270829  1
  Se  Se155  1  0.09119961  0.91113429  0.44273960  1
  Se  Se156  1  0.07151884  0.93040024  0.94338070  1
  Se  Se157  1  0.42147716  0.24740582  0.43934197  1
  Se  Se158  1  0.40811179  0.25730014  0.94267069  1
  Se  Se159  1  0.41656284  0.58201137  0.44024628  1
  Se  Se160  1  0.42019197  0.58010097  0.94921000  1
  Se  Se161  1  0.41170990  0.92573549  0.43661027  1
  Se  Se162  1  0.41409670  0.91223910  0.94357527  1
  Se  Se163  1  0.73996019  0.25686843  0.43533198  1
  Se  Se164  1  0.74715718  0.25283888  0.95482044  1
  Se  Se165  1  0.75294031  0.57711037  0.44051780  1
  Se  Se166  1  0.74309047  0.59100984  0.94283978  1
  Se  Se167  1  0.73956834  0.92026117  0.44002352  1
  Se  Se168  1  0.74236603  0.92075650  0.94439755  1
  Se  Se169  1  0.25081219  0.08834249  0.44217095  1
  Se  Se170  1  0.24920350  0.08244682  0.95009088  1
  Se  Se171  1  0.26078867  0.41459882  0.43133180  1
  Se  Se172  1  0.26199483  0.41010324  0.94140269  1
  Se  Se173  1  0.24931432  0.75287999  0.45053259  1
  Se  Se174  1  0.25246324  0.73924539  0.94127375  1
  Se  Se175  1  0.57895262  0.08787316  0.44818563  1
  Se  Se176  1  0.58373558  0.07514105  0.94160211  1
  Se  Se177  1  0.57559987  0.42013695  0.43544651  1
  Se  Se178  1  0.58419872  0.41891571  0.95284734  1
  Se  Se179  1  0.59610677  0.73603255  0.43874147  1
  Se  Se180  1  0.57929971  0.74948435  0.95279851  1
  Se  Se181  1  0.91952099  0.06954173  0.43265820  1
  Se  Se182  1  0.90891790  0.09213606  0.95402363  1
  Se  Se183  1  0.91395645  0.41750272  0.45077147  1
  Se  Se184  1  0.93024910  0.41046439  0.94174965  1
  Se  Se185  1  0.92346728  0.74416938  0.43229813  1
  Se  Se186  1  0.91849280  0.75291405  0.94959873  1
  Se  Se187  1  0.25178975  0.24823083  0.30078274  1
  Se  Se188  1  0.24453827  0.24642506  0.81042427  1
  Se  Se189  1  0.25093597  0.58414466  0.30151997  1
  Se  Se190  1  0.25965825  0.58387494  0.79714933  1
  Se  Se191  1  0.25654039  0.92227495  0.30370066  1
  Se  Se192  1  0.24585688  0.91704290  0.80054057  1
  Se  Se193  1  0.58461479  0.24257242  0.30133135  1
  Se  Se194  1  0.57370294  0.23668376  0.80736106  1
  Se  Se195  1  0.58588228  0.58233740  0.29522883  1
  Se  Se196  1  0.57936592  0.58107699  0.81102979  1
  Se  Se197  1  0.58526971  0.91879448  0.30115434  1
  Se  Se198  1  0.58028804  0.91570839  0.80414226  1
  Se  Se199  1  0.92077413  0.25259607  0.30798912  1
  Se  Se200  1  0.91197624  0.24620058  0.81129684  1
  Se  Se201  1  0.91749190  0.57643208  0.30351496  1
  Se  Se202  1  0.91557889  0.58501186  0.79702724  1
  Se  Se203  1  0.92516107  0.91674386  0.29456140  1
  Se  Se204  1  0.90827214  0.90471283  0.81425044  1
  Se  Se205  1  0.08350595  0.07984629  0.30412744  1
  Se  Se206  1  0.08706335  0.09232364  0.80945290  1
  Se  Se207  1  0.08054634  0.41141207  0.30478096  1
  Se  Se208  1  0.09634938  0.42938580  0.80810518  1
  Se  Se209  1  0.09201977  0.75025782  0.30541342  1
  Se  Se210  1  0.08233768  0.74803277  0.79726274  1
  Se  Se211  1  0.41685440  0.07948764  0.30127381  1
  Se  Se212  1  0.41371858  0.08627899  0.80000429  1
  Se  Se213  1  0.41395771  0.40526432  0.29287354  1
  Se  Se214  1  0.42753265  0.41918365  0.81131677  1
  Se  Se215  1  0.41765072  0.75001678  0.30895173  1
  Se  Se216  1  0.41280549  0.74782715  0.80412074  1
  Se  Se217  1  0.75062573  0.08010024  0.30064355  1
  Se  Se218  1  0.74549626  0.08078564  0.81045935  1
  Se  Se219  1  0.74590815  0.41107795  0.30333940  1
  Se  Se220  1  0.76414067  0.42820295  0.80602465  1
  Se  Se221  1  0.76674575  0.76499571  0.30161769  1
  Se  Se222  1  0.75136968  0.75103877  0.81461372  1
  Se  Se223  1  0.25237772  0.08248415  0.19702208  1
  Se  Se224  1  0.25370689  0.08478541  0.69068367  1
  Se  Se225  1  0.24481278  0.41657134  0.19992837  1
  Se  Se226  1  0.24148631  0.42584504  0.69229078  1
  Se  Se227  1  0.25277596  0.75047881  0.20018768  1
  Se  Se228  1  0.25043578  0.75021018  0.68998027  1
  Se  Se229  1  0.58772231  0.07600358  0.19775250  1
  Se  Se230  1  0.59871812  0.07147223  0.69075167  1
  Se  Se231  1  0.59056696  0.40273692  0.20530652  1
  Se  Se232  1  0.58195319  0.42317608  0.68656678  1
  Se  Se233  1  0.57841049  0.75163070  0.19654535  1
  Se  Se234  1  0.57172083  0.75986833  0.68587696  1
  Se  Se235  1  0.91816146  0.08637395  0.19798091  1
  Se  Se236  1  0.90823332  0.08638708  0.69483740  1
  Se  Se237  1  0.91782426  0.41233710  0.19947930  1
  Se  Se238  1  0.90733996  0.41979055  0.68584758  1
  Se  Se239  1  0.93908098  0.72734787  0.20102229  1
  Se  Se240  1  0.91277476  0.75051872  0.69511151  1
  Se  Se241  1  0.08318322  0.25081509  0.19821875  1
  Se  Se242  1  0.08922300  0.24540081  0.68887820  1
  Se  Se243  1  0.08183436  0.58468612  0.20090092  1
  Se  Se244  1  0.08391831  0.58143621  0.69464356  1
  Se  Se245  1  0.08681594  0.92084325  0.20097151  1
  Se  Se246  1  0.08876209  0.91414144  0.68352678  1
  Se  Se247  1  0.41390849  0.24442957  0.19639810  1
  Se  Se248  1  0.42788716  0.24644484  0.68873453  1
  Se  Se249  1  0.40699403  0.59840076  0.19994162  1
  Se  Se250  1  0.41610218  0.58383095  0.69716230  1
  Se  Se251  1  0.41327943  0.91793245  0.19987604  1
  Se  Se252  1  0.41081845  0.91819874  0.69748597  1
  Se  Se253  1  0.75190920  0.24932523  0.20103136  1
  Se  Se254  1  0.75457898  0.24433904  0.69379049  1
  Se  Se255  1  0.74911000  0.58536100  0.20472989  1
  Se  Se256  1  0.75146981  0.57408175  0.68681297  1
  Se  Se257  1  0.77117398  0.89305141  0.19291403  1
  Se  Se258  1  0.74533093  0.91793867  0.70213694  1
