# generated using pymatgen
data_In86Cu29Se144
_symmetry_space_group_name_H-M   'P 1'
_cell_length_a   17.58682779
_cell_length_b   17.58731304
_cell_length_c   23.44731185
_cell_angle_alpha   90.00591259
_cell_angle_beta   90.00013415
_cell_angle_gamma   90.03218235
_symmetry_Int_Tables_number   1
_chemical_formula_structural   In86Cu29Se144
_chemical_formula_sum   'In86 Cu29 Se144'
_cell_volume   7252.37068089
_cell_formula_units_Z   1
loop_
 _symmetry_equiv_pos_site_id
 _symmetry_equiv_pos_as_xyz
  1  'x, y, z'
loop_
 _atom_site_type_symbol
 _atom_site_label
 _atom_site_symmetry_multiplicity
 _atom_site_fract_x
 _atom_site_fract_y
 _atom_site_fract_z
 _atom_site_occupancy
  In  In0  1  -0.01382030  0.16368800  0.12593672  1
  In  In1  1  0.01528354  0.14870853  0.62850253  1
  In  In2  1  0.01131890  0.49042386  0.12162125  1
  In  In3  1  0.00299714  0.50859325  0.61918275  1
  In  In4  1  0.00735862  0.84245691  0.12044476  1
  In  In5  1  0.00308268  0.84308999  0.63328366  1
  In  In6  1  0.33241999  0.16847847  0.13725270  1
  In  In7  1  0.33945182  0.17944032  0.60611964  1
  In  In8  1  0.33958942  0.50416911  0.12750353  1
  In  In9  1  0.33090325  0.50694815  0.61792779  1
  In  In10  1  0.33637892  0.82763498  0.12798900  1
  In  In11  1  0.33721305  0.81953047  0.62218920  1
  In  In12  1  0.67388128  0.15777389  0.13512181  1
  In  In13  1  0.65545161  0.17645262  0.62129663  1
  In  In14  1  0.64385037  0.50723657  0.12532398  1
  In  In15  1  0.66761003  0.50542697  0.62219344  1
  In  In16  1  0.67772444  0.84844392  0.09943599  1
  In  In17  1  0.64950395  0.83656713  0.62726415  1
  In  In18  1  0.16984429  -0.00105202  0.36870585  1
  In  In19  1  0.15393710  -0.00175418  0.87288818  1
  In  In20  1  0.19331629  0.30950913  0.40090283  1
  In  In21  1  0.18884477  0.33696771  0.86835758  1
  In  In22  1  0.18295993  0.64635489  0.38585414  1
  In  In23  1  0.18032165  0.65478761  0.88321379  1
  In  In24  1  0.49774663  0.00035652  0.37122619  1
  In  In25  1  0.49735547  -0.00818104  0.88193374  1
  In  In26  1  0.49330578  0.33027200  0.37890258  1
  In  In27  1  0.50360515  0.34755034  0.87530496  1
  In  In28  1  0.48174470  0.66815446  0.39078421  1
  In  In29  1  0.49975773  0.66441998  0.86952568  1
  In  In30  1  0.83295576  0.00311824  0.36322899  1
  In  In31  1  0.84608048  -0.02213994  0.89118989  1
  In  In32  1  0.83156547  0.34306840  0.37329111  1
  In  In33  1  0.82207243  0.33247016  0.88255558  1
  In  In34  1  0.82357826  0.66363568  0.37595148  1
  In  In35  1  0.83396053  0.68972012  0.86868474  1
  In  In36  1  0.00873850  0.15804149  0.37686366  1
  In  In37  1  0.00279448  0.14986416  0.87259151  1
  In  In38  1  0.01007264  0.48479429  0.38641474  1
  In  In39  1  0.01198323  0.51050234  0.87381218  1
  In  In40  1  -0.00089151  0.83835378  0.36794519  1
  In  In41  1  -0.00583522  0.84174392  0.88232073  1
  In  In42  1  0.33665401  0.16816137  0.37550104  1
  In  In43  1  0.32714977  0.17066164  0.87196368  1
  In  In44  1  0.33363915  0.49353472  0.37721291  1
  In  In45  1  0.33447673  0.50497743  0.87186698  1
  In  In46  1  0.33824370  0.83398061  0.37073119  1
  In  In47  1  0.35308396  0.80758330  0.88911249  1
  In  In48  1  0.65615209  0.15720390  0.36549766  1
  In  In49  1  0.66843545  0.17612833  0.88136882  1
  In  In50  1  0.66825628  0.49489969  0.37612051  1
  In  In51  1  0.64779737  0.50181461  0.87897422  1
  In  In52  1  0.64908151  0.82978173  0.37104920  1
  In  In53  1  0.68085679  0.81276207  0.89447692  1
  In  In54  1  0.17656864  -0.01002367  0.13830807  1
  In  In55  1  0.15590853  0.00335092  0.62045038  1
  In  In56  1  0.17537917  0.34577857  0.12535705  1
  In  In57  1  0.20059856  0.36219612  0.59411441  1
  In  In58  1  0.17597956  0.67446976  0.12050205  1
  In  In59  1  0.18047893  0.66056152  0.63419346  1
  In  In60  1  0.50528277  -0.01092826  0.13539928  1
  In  In61  1  0.49611162  -0.00266724  0.61251344  1
  In  In62  1  0.48926267  0.34420381  0.13587158  1
  In  In63  1  0.47747203  0.33497298  0.60350631  1
  In  In64  1  0.50414748  0.66110943  0.11600450  1
  In  In65  1  0.49537699  0.66673951  0.62221010  1
  In  In66  1  0.83031703  0.00200547  0.12269329  1
  In  In67  1  0.84058857  0.00923091  0.62844269  1
  In  In68  1  0.83867351  0.31967780  0.12607971  1
  In  In69  1  0.82039860  0.33735043  0.62325481  1
  In  In70  1  0.81548678  0.67979499  0.11729096  1
  In  In71  1  0.83474974  0.65953197  0.63147326  1
  In  In72  1  0.50426062  0.16119469  0.00855476  1
  In  In73  1  0.17018065  0.83074628  0.49824603  1
  In  In74  1  0.67127027  -0.00577243  0.75771006  1
  In  In75  1  0.32530149  -0.00199484  0.75295840  1
  In  In76  1  0.83265269  0.16794106  0.49639681  1
  In  In77  1  0.65791585  0.33853123  0.74356429  1
  In  In78  1  0.82839574  0.83400990  0.50721280  1
  In  In79  1  0.83607878  0.50228408  0.00088790  1
  In  In80  1  0.16457492  0.16624782  0.00039896  1
  In  In81  1  0.00534915  0.32622740  0.25546099  1
  In  In82  1  0.00554507  0.67379533  0.74706037  1
  In  In83  1  0.65780644  0.66892018  0.24328893  1
  In  In84  1  0.00507121  0.66850277  0.25111853  1
  In  In85  1  0.00746854  0.32975210  0.74282641  1
  Cu  Cu86  1  0.32542040  -0.01013566  0.00874179  1
  Cu  Cu87  1  0.49507724  0.17310330  0.25375345  1
  Cu  Cu88  1  0.49491367  0.82351435  0.75078090  1
  Cu  Cu89  1  0.33481390  0.00053298  0.49019958  1
  Cu  Cu90  1  0.33513471  0.65938359  0.00087053  1
  Cu  Cu91  1  0.82977289  0.84125447  0.24089898  1
  Cu  Cu92  1  0.66733857  0.33198206  0.00735225  1
  Cu  Cu93  1  0.16825141  0.83457114  0.75477697  1
  Cu  Cu94  1  -0.00388034  0.67139557  0.50656476  1
  Cu  Cu95  1  0.66025176  0.33597444  0.49933341  1
  Cu  Cu96  1  0.49685310  0.50173214  0.25459499  1
  Cu  Cu97  1  0.49438505  0.16786507  0.73861785  1
  Cu  Cu98  1  0.48911808  0.50188445  0.74588308  1
  Cu  Cu99  1  0.17510335  0.17376134  0.74363686  1
  Cu  Cu100  1  0.17984742  0.49855098  0.25399642  1
  Cu  Cu101  1  -0.01135256  0.33291771  0.50246348  1
  Cu  Cu102  1  0.66288019  -0.00071535  0.49270317  1
  Cu  Cu103  1  0.84060085  0.16121935  0.75560919  1
  Cu  Cu104  1  0.49662283  0.83195786  0.24928817  1
  Cu  Cu105  1  0.82582413  0.16096758  0.24626029  1
  Cu  Cu106  1  -0.00252286  -0.00107542  0.00253319  1
  Cu  Cu107  1  0.16681991  0.16700524  0.25732239  1
  Cu  Cu108  1  0.34293326  0.34305254  -0.00013055  1
  Cu  Cu109  1  0.83389191  0.50104248  0.25497867  1
  Cu  Cu110  1  0.66265570  0.65962591  0.49767411  1
  Cu  Cu111  1  0.82703118  0.50547981  0.74827412  1
  Cu  Cu112  1  0.01029545  0.33055080  0.00073440  1
  Cu  Cu113  1  0.17299009  0.82694724  0.24827475  1
  Cu  Cu114  1  0.00341160  0.66780426  -0.00271825  1
  Se  Se115  1  0.08127988  0.07557041  0.06414313  1
  Se  Se116  1  0.08311275  0.08199131  0.54581377  1
  Se  Se117  1  0.09394432  0.41644982  0.04901211  1
  Se  Se118  1  0.07502124  0.41768464  0.55141091  1
  Se  Se119  1  0.08359746  0.75002272  0.05545853  1
  Se  Se120  1  0.07853200  0.74809002  0.56613196  1
  Se  Se121  1  0.40433127  0.07717985  0.06460532  1
  Se  Se122  1  0.41878475  0.08397548  0.54509918  1
  Se  Se123  1  0.42474895  0.42369027  0.05597814  1
  Se  Se124  1  0.41855131  0.44005268  0.54027114  1
  Se  Se125  1  0.41428566  0.74694344  0.05478304  1
  Se  Se126  1  0.42892991  0.75997597  0.55105880  1
  Se  Se127  1  0.75720225  0.09715840  0.05773839  1
  Se  Se128  1  0.73948696  0.07735607  0.55787974  1
  Se  Se129  1  0.74863532  0.41503039  0.06597676  1
  Se  Se130  1  0.74566548  0.41825321  0.55153952  1
  Se  Se131  1  0.73811261  0.74164933  0.03852869  1
  Se  Se132  1  0.73823912  0.74037672  0.56241926  1
  Se  Se133  1  0.26211927  0.25602819  0.05624058  1
  Se  Se134  1  0.23828000  0.24036896  0.54038118  1
  Se  Se135  1  0.25114355  0.57905494  0.05695183  1
  Se  Se136  1  0.23887784  0.58657883  0.55248333  1
  Se  Se137  1  0.24298384  0.90745296  0.06148094  1
  Se  Se138  1  0.25971864  0.92416312  0.55889025  1
  Se  Se139  1  0.58498605  0.25711472  0.07004708  1
  Se  Se140  1  0.57586146  0.24946662  0.54799184  1
  Se  Se141  1  0.60170452  0.59758865  0.04707154  1
  Se  Se142  1  0.57923057  0.58107409  0.55432902  1
  Se  Se143  1  0.57135403  0.92552393  0.05080659  1
  Se  Se144  1  0.58314062  0.91392334  0.54760960  1
  Se  Se145  1  0.92188200  0.25052954  0.05040624  1
  Se  Se146  1  0.91744236  0.25023279  0.56653156  1
  Se  Se147  1  0.92512180  0.59235658  0.06449374  1
  Se  Se148  1  0.90974677  0.58542314  0.55453977  1
  Se  Se149  1  0.91283962  0.91474472  0.05499438  1
  Se  Se150  1  0.92569866  0.92616514  0.55692352  1
  Se  Se151  1  0.07083447  0.25229712  0.44679637  1
  Se  Se152  1  0.08363686  0.25523134  0.93226150  1
  Se  Se153  1  0.07458456  0.58998785  0.44745480  1
  Se  Se154  1  0.08786816  0.57955503  0.95188712  1
  Se  Se155  1  0.07722829  0.92023386  0.44161831  1
  Se  Se156  1  0.08518800  0.91868387  0.95024139  1
  Se  Se157  1  0.39896384  0.26217673  0.44733607  1
  Se  Se158  1  0.41650144  0.25208251  0.94259173  1
  Se  Se159  1  0.42328690  0.56063784  0.45258631  1
  Se  Se160  1  0.41987252  0.58179429  0.94260325  1
  Se  Se161  1  0.41917896  0.91447113  0.44182446  1
  Se  Se162  1  0.41177015  0.91632455  0.95103996  1
  Se  Se163  1  0.73985809  0.25467824  0.43769914  1
  Se  Se164  1  0.75127490  0.24879996  0.95601281  1
  Se  Se165  1  0.75004996  0.57948052  0.44643497  1
  Se  Se166  1  0.75499707  0.58381326  0.93073262  1
  Se  Se167  1  0.74531072  0.91827914  0.43620609  1
  Se  Se168  1  0.74045835  0.92108959  0.95291127  1
  Se  Se169  1  0.24777281  0.08109763  0.43974940  1
  Se  Se170  1  0.25673611  0.07409939  0.94293650  1
  Se  Se171  1  0.22376679  0.44058751  0.44149209  1
  Se  Se172  1  0.25517990  0.41891257  0.94466169  1
  Se  Se173  1  0.26693025  0.74066983  0.44745270  1
  Se  Se174  1  0.24812327  0.74779893  0.95330397  1
  Se  Se175  1  0.57912675  0.08465544  0.44250915  1
  Se  Se176  1  0.59243043  0.07611835  0.94437668  1
  Se  Se177  1  0.57990601  0.41797158  0.44347149  1
  Se  Se178  1  0.58353026  0.41395403  0.95376365  1
  Se  Se179  1  0.58242635  0.74777090  0.44690555  1
  Se  Se180  1  0.55445965  0.76851262  0.93736453  1
  Se  Se181  1  0.91864796  0.06987771  0.44220999  1
  Se  Se182  1  0.91811904  0.08502907  0.94799323  1
  Se  Se183  1  0.90736907  0.41817602  0.44952123  1
  Se  Se184  1  0.92893746  0.41182723  0.93940782  1
  Se  Se185  1  0.91995844  0.74813822  0.44112532  1
  Se  Se186  1  0.91642963  0.75045714  0.94850261  1
  Se  Se187  1  0.24872185  0.25359448  0.30818634  1
  Se  Se188  1  0.26230967  0.25327273  0.79512059  1
  Se  Se189  1  0.26145612  0.58584832  0.30461576  1
  Se  Se190  1  0.24833737  0.58405156  0.80346706  1
  Se  Se191  1  0.25275978  0.91384752  0.30268776  1
  Se  Se192  1  0.25127491  0.90515858  0.82030695  1
  Se  Se193  1  0.58059406  0.25558469  0.30593503  1
  Se  Se194  1  0.57422596  0.24243301  0.80524689  1
  Se  Se195  1  0.57642833  0.58545877  0.31332675  1
  Se  Se196  1  0.58005516  0.57773376  0.79988040  1
  Se  Se197  1  0.58100744  0.91806053  0.29977575  1
  Se  Se198  1  0.57310085  0.90657486  0.80970576  1
  Se  Se199  1  0.90683936  0.23711761  0.31115529  1
  Se  Se200  1  0.91341402  0.25166212  0.81215698  1
  Se  Se201  1  0.91795477  0.57629161  0.31348349  1
  Se  Se202  1  0.91157013  0.58096609  0.80751589  1
  Se  Se203  1  0.91653049  0.91650738  0.29805317  1
  Se  Se204  1  0.92146340  0.92173587  0.80769004  1
  Se  Se205  1  0.08003277  0.07900669  0.30096102  1
  Se  Se206  1  0.09337395  0.08941546  0.79788640  1
  Se  Se207  1  0.09687960  0.41669335  0.31077610  1
  Se  Se208  1  0.09276087  0.42110369  0.80557165  1
  Se  Se209  1  0.09918765  0.74854325  0.31574331  1
  Se  Se210  1  0.09014120  0.75454804  0.81703048  1
  Se  Se211  1  0.41342807  0.08404601  0.30393892  1
  Se  Se212  1  0.42516758  0.08850889  0.80784081  1
  Se  Se213  1  0.41588182  0.41469303  0.30570037  1
  Se  Se214  1  0.41571061  0.41462029  0.80388976  1
  Se  Se215  1  0.42161748  0.74469797  0.30650906  1
  Se  Se216  1  0.40777818  0.74068898  0.80012687  1
  Se  Se217  1  0.74077861  0.07620416  0.29730375  1
  Se  Se218  1  0.75649386  0.08911584  0.81670959  1
  Se  Se219  1  0.74663269  0.41622692  0.30111092  1
  Se  Se220  1  0.75067699  0.42219134  0.80852911  1
  Se  Se221  1  0.75490892  0.75798759  0.30351659  1
  Se  Se222  1  0.74038304  0.75842988  0.80294981  1
  Se  Se223  1  0.25054015  0.08326318  0.20354145  1
  Se  Se224  1  0.25281704  0.08975657  0.68302477  1
  Se  Se225  1  0.26060688  0.41569266  0.19772779  1
  Se  Se226  1  0.25858725  0.41242288  0.68572719  1
  Se  Se227  1  0.25604265  0.74133786  0.19855451  1
  Se  Se228  1  0.25222329  0.75542718  0.69948095  1
  Se  Se229  1  0.57567773  0.08795615  0.19906976  1
  Se  Se230  1  0.57872135  0.08155188  0.68977298  1
  Se  Se231  1  0.58370635  0.42065268  0.20178191  1
  Se  Se232  1  0.56542734  0.42050950  0.68221782  1
  Se  Se233  1  0.57905546  0.76415933  0.18218723  1
  Se  Se234  1  0.58058333  0.74489743  0.69577600  1
  Se  Se235  1  0.91453694  0.07854489  0.19754337  1
  Se  Se236  1  0.92453772  0.08184447  0.70126547  1
  Se  Se237  1  0.91641999  0.42152092  0.19448593  1
  Se  Se238  1  0.90805914  0.42392522  0.69096687  1
  Se  Se239  1  0.90964166  0.75246857  0.18863131  1
  Se  Se240  1  0.90603689  0.76310852  0.69589645  1
  Se  Se241  1  0.09269555  0.24231129  0.18708229  1
  Se  Se242  1  0.10027874  0.25215256  0.67893495  1
  Se  Se243  1  0.09389322  0.57375917  0.19375174  1
  Se  Se244  1  0.09102963  0.57049318  0.69787620  1
  Se  Se245  1  0.08270732  0.90988093  0.20135775  1
  Se  Se246  1  0.09102646  0.92134666  0.70017879  1
  Se  Se247  1  0.41000617  0.25745083  0.20324358  1
  Se  Se248  1  0.41577634  0.25231135  0.68427407  1
  Se  Se249  1  0.42603731  0.58806863  0.19362983  1
  Se  Se250  1  0.40997748  0.58774009  0.69189893  1
  Se  Se251  1  0.40922039  0.91670190  0.19983176  1
  Se  Se252  1  0.42247161  0.91465876  0.69264213  1
  Se  Se253  1  0.74911706  0.25557827  0.19922716  1
  Se  Se254  1  0.75584771  0.23778740  0.69597329  1
  Se  Se255  1  0.75738617  0.57781609  0.18963778  1
  Se  Se256  1  0.74089391  0.58684693  0.69795007  1
  Se  Se257  1  0.74102496  0.91563973  0.18646122  1
  Se  Se258  1  0.75589609  0.91294874  0.68745090  1
