# generated using pymatgen
data_In86Cu29Se144
_symmetry_space_group_name_H-M   'P 1'
_cell_length_a   17.56917690
_cell_length_b   17.56777473
_cell_length_c   23.41806082
_cell_angle_alpha   89.99022697
_cell_angle_beta   89.98384857
_cell_angle_gamma   90.00686780
_symmetry_Int_Tables_number   1
_chemical_formula_structural   In86Cu29Se144
_chemical_formula_sum   'In86 Cu29 Se144'
_cell_volume   7228.01545574
_cell_formula_units_Z   1
loop_
 _symmetry_equiv_pos_site_id
 _symmetry_equiv_pos_as_xyz
  1  'x, y, z'
loop_
 _atom_site_type_symbol
 _atom_site_label
 _atom_site_symmetry_multiplicity
 _atom_site_fract_x
 _atom_site_fract_y
 _atom_site_fract_z
 _atom_site_occupancy
  In  In0  1  -0.01179042  0.16080319  0.13474856  1
  In  In1  1  -0.00327137  0.17672518  0.62128469  1
  In  In2  1  0.00585390  0.50961529  0.12409135  1
  In  In3  1  0.00169997  0.51176461  0.61907372  1
  In  In4  1  0.01012595  0.82729150  0.14131343  1
  In  In5  1  -0.01216848  0.81904448  0.62536961  1
  In  In6  1  0.34578086  0.17204205  0.13000614  1
  In  In7  1  0.35657314  0.15134734  0.62717778  1
  In  In8  1  0.32944625  0.51184271  0.13627359  1
  In  In9  1  0.32247600  0.50055418  0.61428364  1
  In  In10  1  0.32679420  0.82764474  0.12513570  1
  In  In11  1  0.34297524  0.83776242  0.60180214  1
  In  In12  1  0.67608533  0.17227162  0.13155657  1
  In  In13  1  0.65604245  0.16944046  0.61434445  1
  In  In14  1  0.66144832  0.49202281  0.12576020  1
  In  In15  1  0.66969104  0.49952048  0.61676075  1
  In  In16  1  0.65773166  0.84166601  0.12520370  1
  In  In17  1  0.67046153  0.83448978  0.63198173  1
  In  In18  1  0.15461329  0.00138957  0.37698847  1
  In  In19  1  0.18277386  -0.01616022  0.86908100  1
  In  In20  1  0.18987614  0.32636923  0.37184539  1
  In  In21  1  0.18345955  0.33868107  0.87139326  1
  In  In22  1  0.16677404  0.66871901  0.38396040  1
  In  In23  1  0.15074423  0.67029889  0.86733769  1
  In  In24  1  0.49092785  -0.00368135  0.39421551  1
  In  In25  1  0.48651231  -0.01493817  0.86351761  1
  In  In26  1  0.49729339  0.33881021  0.38532407  1
  In  In27  1  0.49781980  0.33068305  0.86274076  1
  In  In28  1  0.48518665  0.66967213  0.39439282  1
  In  In29  1  0.51333420  0.66407754  0.86839528  1
  In  In30  1  0.83743188  -0.00137296  0.38596701  1
  In  In31  1  0.82757440  0.00648154  0.86739485  1
  In  In32  1  0.81864278  0.34584520  0.38894074  1
  In  In33  1  0.84060968  0.34580731  0.86805599  1
  In  In34  1  0.84249419  0.66099236  0.37872637  1
  In  In35  1  0.82411550  0.65735691  0.85651720  1
  In  In36  1  0.00458369  0.15185461  0.37592901  1
  In  In37  1  -0.01221170  0.16234699  0.87361076  1
  In  In38  1  -0.00927373  0.51125514  0.37820993  1
  In  In39  1  -0.00836783  0.50802415  0.87862592  1
  In  In40  1  0.00014086  0.83492802  0.38095591  1
  In  In41  1  0.01189194  0.81306105  0.86366201  1
  In  In42  1  0.32701767  0.17727184  0.37344611  1
  In  In43  1  0.33795984  0.16600875  0.86714497  1
  In  In44  1  0.33099428  0.50124907  0.38773333  1
  In  In45  1  0.33729163  0.49168343  0.87289131  1
  In  In46  1  0.34038851  0.81810560  0.39771707  1
  In  In47  1  0.33486757  0.84956680  0.86447078  1
  In  In48  1  0.64858661  0.19034556  0.39807310  1
  In  In49  1  0.66363356  0.16514759  0.86076166  1
  In  In50  1  0.66464981  0.48572475  0.39414276  1
  In  In51  1  0.67562048  0.50709841  0.86041160  1
  In  In52  1  0.66090236  0.84115207  0.38736760  1
  In  In53  1  0.65583970  0.81779957  0.85625504  1
  In  In54  1  0.16409154  -0.01688720  0.13005312  1
  In  In55  1  0.18997438  -0.00804259  0.62546318  1
  In  In56  1  0.16436977  0.35252576  0.12906708  1
  In  In57  1  0.16950786  0.34708457  0.62155729  1
  In  In58  1  0.17360729  0.66389364  0.13392496  1
  In  In59  1  0.16502588  0.65982321  0.61246451  1
  In  In60  1  0.50202002  -0.00101545  0.12172605  1
  In  In61  1  0.49809564  0.00529203  0.61572372  1
  In  In62  1  0.50187906  0.33513503  0.13866681  1
  In  In63  1  0.50570098  0.32982833  0.61912870  1
  In  In64  1  0.49054589  0.66425459  0.12754148  1
  In  In65  1  0.50485928  0.67611911  0.61182653  1
  In  In66  1  0.83330692  0.01043019  0.13293843  1
  In  In67  1  0.81532923  -0.02152941  0.61979661  1
  In  In68  1  0.81985109  0.33613344  0.12987751  1
  In  In69  1  0.80842071  0.31485216  0.59714573  1
  In  In70  1  0.84556853  0.66940088  0.12784407  1
  In  In71  1  0.83529057  0.67204978  0.62732075  1
  In  In72  1  0.49939926  0.16689707  0.00447186  1
  In  In73  1  -0.00221448  0.34423498  0.74155560  1
  In  In74  1  0.33280642  0.66904122  0.73480781  1
  In  In75  1  0.00275736  0.33187737  0.25646029  1
  In  In76  1  0.16998127  0.82629925  -0.00528218  1
  In  In77  1  0.16825984  0.16484911  0.49537358  1
  In  In78  1  0.66329851  0.65964039  0.26459468  1
  In  In79  1  0.66967463  0.00611891  0.25328857  1
  In  In80  1  0.50174499  0.50003224  -0.00075239  1
  In  In81  1  0.82791756  0.17380884  0.00857945  1
  In  In82  1  0.00145434  0.00005522  0.74848227  1
  In  In83  1  0.83247677  0.83244230  -0.00336974  1
  In  In84  1  0.16421050  0.16956655  -0.00823012  1
  In  In85  1  0.32397200  -0.00064035  0.25520114  1
  Cu  Cu86  1  0.00168334  -0.00332596  0.50651056  1
  Cu  Cu87  1  0.00185348  -0.00810862  0.00655623  1
  Cu  Cu88  1  0.66860315  0.67230624  0.50296613  1
  Cu  Cu89  1  0.16708791  0.82756110  0.26042929  1
  Cu  Cu90  1  0.67307172  0.66776635  -0.01266649  1
  Cu  Cu91  1  0.82188127  0.16560483  0.73533709  1
  Cu  Cu92  1  0.00126706  0.34266258  0.49873123  1
  Cu  Cu93  1  0.33437684  0.32758878  0.50249865  1
  Cu  Cu94  1  0.83164942  0.49439802  0.73846669  1
  Cu  Cu95  1  0.50440670  0.16792617  0.74107467  1
  Cu  Cu96  1  0.50436805  0.49354121  0.73981180  1
  Cu  Cu97  1  0.49407027  0.82893713  0.26088030  1
  Cu  Cu98  1  0.67183427  0.34157184  -0.00405326  1
  Cu  Cu99  1  -0.00175209  0.65940043  -0.00178467  1
  Cu  Cu100  1  -0.00357807  0.67078545  0.49922815  1
  Cu  Cu101  1  0.16948691  0.50389095  0.74232954  1
  Cu  Cu102  1  0.17324505  0.50392906  0.25707662  1
  Cu  Cu103  1  0.84550815  0.83461378  0.26153240  1
  Cu  Cu104  1  0.65211180  -0.01068621  -0.00790376  1
  Cu  Cu105  1  0.00309917  0.34755569  0.00034511  1
  Cu  Cu106  1  0.67290697  -0.00400360  0.50766599  1
  Cu  Cu107  1  0.50035543  0.17743354  0.26228017  1
  Cu  Cu108  1  0.82867296  0.49764286  0.25861101  1
  Cu  Cu109  1  0.49612878  0.83646635  0.73608914  1
  Cu  Cu110  1  0.17772410  0.16629486  0.74889804  1
  Cu  Cu111  1  0.33207565  0.67063130  0.00294916  1
  Cu  Cu112  1  0.83024486  0.16853151  0.26139477  1
  Cu  Cu113  1  0.49290432  0.49514915  0.26106853  1
  Cu  Cu114  1  0.32906953  0.34127507  0.00297534  1
  Se  Se115  1  0.07842307  0.08030409  0.06098735  1
  Se  Se116  1  0.08330565  0.07833869  0.56436406  1
  Se  Se117  1  0.08864684  0.42768913  0.05345069  1
  Se  Se118  1  0.08477590  0.42352784  0.55272500  1
  Se  Se119  1  0.07656485  0.74386348  0.05911362  1
  Se  Se120  1  0.07936614  0.75260272  0.55314490  1
  Se  Se121  1  0.40331949  0.07389487  0.05585927  1
  Se  Se122  1  0.42180268  0.08791641  0.54249532  1
  Se  Se123  1  0.41458997  0.41390338  0.06470563  1
  Se  Se124  1  0.41438319  0.41334664  0.55530915  1
  Se  Se125  1  0.41662198  0.75108864  0.05699975  1
  Se  Se126  1  0.39758301  0.72370124  0.54521182  1
  Se  Se127  1  0.73338331  0.06968149  0.05641569  1
  Se  Se128  1  0.75476550  0.08484758  0.55745667  1
  Se  Se129  1  0.75178502  0.42173133  0.05445165  1
  Se  Se130  1  0.75698305  0.42978074  0.54270967  1
  Se  Se131  1  0.74160945  0.74432722  0.06070819  1
  Se  Se132  1  0.75114878  0.75429778  0.55805128  1
  Se  Se133  1  0.25185180  0.25567179  0.06072742  1
  Se  Se134  1  0.25436637  0.24729466  0.56448539  1
  Se  Se135  1  0.25367321  0.58751732  0.05919132  1
  Se  Se136  1  0.24777477  0.58203908  0.54181405  1
  Se  Se137  1  0.25510237  0.92292699  0.05336403  1
  Se  Se138  1  0.25071083  0.92293305  0.54128360  1
  Se  Se139  1  0.59353529  0.26254898  0.06003067  1
  Se  Se140  1  0.59164560  0.26339912  0.54210166  1
  Se  Se141  1  0.59309553  0.59462138  0.05593541  1
  Se  Se142  1  0.58417503  0.58297463  0.54877369  1
  Se  Se143  1  0.57232936  0.90933545  0.05056612  1
  Se  Se144  1  0.58794380  0.91283111  0.55922099  1
  Se  Se145  1  0.92682848  0.26424918  0.06272235  1
  Se  Se146  1  0.92158183  0.24885357  0.54435094  1
  Se  Se147  1  0.91294176  0.58159811  0.05477658  1
  Se  Se148  1  0.91133724  0.58824390  0.55254498  1
  Se  Se149  1  0.91971992  0.91557668  0.06822914  1
  Se  Se150  1  0.91589897  0.91168336  0.55603075  1
  Se  Se151  1  0.07910846  0.26000603  0.43695988  1
  Se  Se152  1  0.07001601  0.26281509  0.93427383  1
  Se  Se153  1  0.07888226  0.58310431  0.44870221  1
  Se  Se154  1  0.08716897  0.58302139  0.94345832  1
  Se  Se155  1  0.08441112  0.91662612  0.45074010  1
  Se  Se156  1  0.07573597  0.91916693  0.93784679  1
  Se  Se157  1  0.41449692  0.24406880  0.44670794  1
  Se  Se158  1  0.41025374  0.26083333  0.94345316  1
  Se  Se159  1  0.42410121  0.56735520  0.45877186  1
  Se  Se160  1  0.41256625  0.59288566  0.94001318  1
  Se  Se161  1  0.42396477  0.90459114  0.46187616  1
  Se  Se162  1  0.41302441  0.91538165  0.94265108  1
  Se  Se163  1  0.76616432  0.23781212  0.45250615  1
  Se  Se164  1  0.74530605  0.25401416  0.93593274  1
  Se  Se165  1  0.74630325  0.58937968  0.44416249  1
  Se  Se166  1  0.75411340  0.58165627  0.93695834  1
  Se  Se167  1  0.75576794  0.91252743  0.45284548  1
  Se  Se168  1  0.74120632  0.91774296  0.93399472  1
  Se  Se169  1  0.25978119  0.07333650  0.43941255  1
  Se  Se170  1  0.25846282  0.07689210  0.93945991  1
  Se  Se171  1  0.24646726  0.40957479  0.45206415  1
  Se  Se172  1  0.24914886  0.42471826  0.94744160  1
  Se  Se173  1  0.23910572  0.75126650  0.45917519  1
  Se  Se174  1  0.26032072  0.74150594  0.93100168  1
  Se  Se175  1  0.58839526  0.07632919  0.45207355  1
  Se  Se176  1  0.58178969  0.08104725  0.93469335  1
  Se  Se177  1  0.59416153  0.39177383  0.46184125  1
  Se  Se178  1  0.58796400  0.41355888  0.93349838  1
  Se  Se179  1  0.57941820  0.75472348  0.45258104  1
  Se  Se180  1  0.58506790  0.75095929  0.94035164  1
  Se  Se181  1  0.92301785  0.08323101  0.45256382  1
  Se  Se182  1  0.91582860  0.07331779  0.95062449  1
  Se  Se183  1  0.91466682  0.42547392  0.44862707  1
  Se  Se184  1  0.91125475  0.42079915  0.94663329  1
  Se  Se185  1  0.91070565  0.75463643  0.44731788  1
  Se  Se186  1  0.92024269  0.73999271  0.93620977  1
  Se  Se187  1  0.24147488  0.23469797  0.29581319  1
  Se  Se188  1  0.25807794  0.25458120  0.80062308  1
  Se  Se189  1  0.25259184  0.58540112  0.31554083  1
  Se  Se190  1  0.25023132  0.58148323  0.80572619  1
  Se  Se191  1  0.25049311  0.90383369  0.32107839  1
  Se  Se192  1  0.25064651  0.91337914  0.78872579  1
  Se  Se193  1  0.58510682  0.25976004  0.31317078  1
  Se  Se194  1  0.58581462  0.25447384  0.79504714  1
  Se  Se195  1  0.57223311  0.57302944  0.32463925  1
  Se  Se196  1  0.58321257  0.58171861  0.79400295  1
  Se  Se197  1  0.57425282  0.91774488  0.31179977  1
  Se  Se198  1  0.57956793  0.91566951  0.79530411  1
  Se  Se199  1  0.90985360  0.25066090  0.32005148  1
  Se  Se200  1  0.90810154  0.24156671  0.79710529  1
  Se  Se201  1  0.91635905  0.58608121  0.30003471  1
  Se  Se202  1  0.91670951  0.57251473  0.79657123  1
  Se  Se203  1  0.92178957  0.92553439  0.31161828  1
  Se  Se204  1  0.91474916  0.90973037  0.81123421  1
  Se  Se205  1  0.09558802  0.09232950  0.30289905  1
  Se  Se206  1  0.09348485  0.09179838  0.81115459  1
  Se  Se207  1  0.09168044  0.42291947  0.31645859  1
  Se  Se208  1  0.09040916  0.42522072  0.80732595  1
  Se  Se209  1  0.08059490  0.74705075  0.31259520  1
  Se  Se210  1  0.09974087  0.75641371  0.78760503  1
  Se  Se211  1  0.42560019  0.08297391  0.31286983  1
  Se  Se212  1  0.42122293  0.08626614  0.79876374  1
  Se  Se213  1  0.40914854  0.41448437  0.31546954  1
  Se  Se214  1  0.41654139  0.41938090  0.79760310  1
  Se  Se215  1  0.41284001  0.74656703  0.31546415  1
  Se  Se216  1  0.42272671  0.75256721  0.80208302  1
  Se  Se217  1  0.74743768  0.09104355  0.32248787  1
  Se  Se218  1  0.74575948  0.08007651  0.79386818  1
  Se  Se219  1  0.74189287  0.41918575  0.31154744  1
  Se  Se220  1  0.75110709  0.41143404  0.79597203  1
  Se  Se221  1  0.75167941  0.76112346  0.31552858  1
  Se  Se222  1  0.75586798  0.75405301  0.79287313  1
  Se  Se223  1  0.24447124  0.08712639  0.18602963  1
  Se  Se224  1  0.25970507  0.08290031  0.69546694  1
  Se  Se225  1  0.25321349  0.41879603  0.20195036  1
  Se  Se226  1  0.25500225  0.41908887  0.69432852  1
  Se  Se227  1  0.25322121  0.75160520  0.20141535  1
  Se  Se228  1  0.24873391  0.75827583  0.67411987  1
  Se  Se229  1  0.57220342  0.09595940  0.19470614  1
  Se  Se230  1  0.58418083  0.08256497  0.68740624  1
  Se  Se231  1  0.58296140  0.42281137  0.20384064  1
  Se  Se232  1  0.58994010  0.41345701  0.68740813  1
  Se  Se233  1  0.57918495  0.75473865  0.19873559  1
  Se  Se234  1  0.57947781  0.74526578  0.69206570  1
  Se  Se235  1  0.91231832  0.08206305  0.20933697  1
  Se  Se236  1  0.91134574  0.08580426  0.68358193  1
  Se  Se237  1  0.91170780  0.42189223  0.19460852  1
  Se  Se238  1  0.90547906  0.41452202  0.67325164  1
  Se  Se239  1  0.91897885  0.74678950  0.20414038  1
  Se  Se240  1  0.92121199  0.74009128  0.70293755  1
  Se  Se241  1  0.08780975  0.24613254  0.18911498  1
  Se  Se242  1  0.09446923  0.24630466  0.69174847  1
  Se  Se243  1  0.08714905  0.58100782  0.19978197  1
  Se  Se244  1  0.08566468  0.58721316  0.69137543  1
  Se  Se245  1  0.08589778  0.91667259  0.20907638  1
  Se  Se246  1  0.08441567  0.91431110  0.68312236  1
  Se  Se247  1  0.41465990  0.25508940  0.20518768  1
  Se  Se248  1  0.41947720  0.25418072  0.69154818  1
  Se  Se249  1  0.42092974  0.58570432  0.20423163  1
  Se  Se250  1  0.42500188  0.57552965  0.68138129  1
  Se  Se251  1  0.42239696  0.91228212  0.19535498  1
  Se  Se252  1  0.41339252  0.91565960  0.68077496  1
  Se  Se253  1  0.74937113  0.25247383  0.20545806  1
  Se  Se254  1  0.74244950  0.25298588  0.68412651  1
  Se  Se255  1  0.75238277  0.57950012  0.19379104  1
  Se  Se256  1  0.74796415  0.58199827  0.68957672  1
  Se  Se257  1  0.75917353  0.90617746  0.19705530  1
  Se  Se258  1  0.75264597  0.91259358  0.70465756  1
