# generated using pymatgen
data_In86Cu29Se144
_symmetry_space_group_name_H-M   'P 1'
_cell_length_a   17.56559834
_cell_length_b   17.56725791
_cell_length_c   23.43156999
_cell_angle_alpha   89.97362812
_cell_angle_beta   90.01167732
_cell_angle_gamma   89.99029508
_symmetry_Int_Tables_number   1
_chemical_formula_structural   In86Cu29Se144
_chemical_formula_sum   'In86 Cu29 Se144'
_cell_volume   7230.49870497
_cell_formula_units_Z   1
loop_
 _symmetry_equiv_pos_site_id
 _symmetry_equiv_pos_as_xyz
  1  'x, y, z'
loop_
 _atom_site_type_symbol
 _atom_site_label
 _atom_site_symmetry_multiplicity
 _atom_site_fract_x
 _atom_site_fract_y
 _atom_site_fract_z
 _atom_site_occupancy
  In  In0  1  -0.00999035  0.17736840  0.13610312  1
  In  In1  1  -0.01110846  0.15327215  0.61735916  1
  In  In2  1  -0.00485988  0.49668075  0.11177158  1
  In  In3  1  0.00935819  0.50603665  0.62550263  1
  In  In4  1  0.00478796  0.83700396  0.11448821  1
  In  In5  1  0.01091681  0.82435926  0.63786854  1
  In  In6  1  0.33560226  0.16712712  0.12823693  1
  In  In7  1  0.34481811  0.17002217  0.61681040  1
  In  In8  1  0.34301912  0.50832078  0.11384823  1
  In  In9  1  0.32262744  0.50916923  0.63731352  1
  In  In10  1  0.32959734  0.83308632  0.11034623  1
  In  In11  1  0.31652219  0.83517437  0.62748960  1
  In  In12  1  0.68223988  0.16429581  0.12567850  1
  In  In13  1  0.65737412  0.15571892  0.61690491  1
  In  In14  1  0.66581022  0.49988527  0.12675449  1
  In  In15  1  0.67341679  0.50672392  0.63176181  1
  In  In16  1  0.65499621  0.81561327  0.11509581  1
  In  In17  1  0.67089166  0.83273335  0.63701243  1
  In  In18  1  0.15851775  0.01068891  0.38832648  1
  In  In19  1  0.15636508  0.00376804  0.87108611  1
  In  In20  1  0.16326932  0.33437075  0.38029232  1
  In  In21  1  0.17564365  0.34241445  0.86925175  1
  In  In22  1  0.16007101  0.66171126  0.39002494  1
  In  In23  1  0.16408118  0.66604867  0.87724895  1
  In  In24  1  0.50825664  0.00582086  0.37665229  1
  In  In25  1  0.49303758  -0.01713776  0.87432044  1
  In  In26  1  0.49940505  0.33002735  0.37197865  1
  In  In27  1  0.50479287  0.34653392  0.87546236  1
  In  In28  1  0.50199946  0.66518769  0.36905555  1
  In  In29  1  0.49976322  0.66554648  0.87333612  1
  In  In30  1  0.84536948  -0.00449620  0.37142315  1
  In  In31  1  0.83352217  0.00010288  0.87827859  1
  In  In32  1  0.82465834  0.32671009  0.36798679  1
  In  In33  1  0.83695830  0.33583383  0.88507060  1
  In  In34  1  0.83041987  0.67400221  0.36887492  1
  In  In35  1  0.83531540  0.67451049  0.88050109  1
  In  In36  1  -0.00231808  0.16382223  0.37757866  1
  In  In37  1  -0.00340444  0.15676048  0.87028826  1
  In  In38  1  0.01869483  0.49528680  0.37434534  1
  In  In39  1  -0.01671878  0.52431585  0.89780072  1
  In  In40  1  -0.00356384  0.83927934  0.37231178  1
  In  In41  1  -0.00255324  0.83015036  0.88190034  1
  In  In42  1  0.33394377  0.16363145  0.39125074  1
  In  In43  1  0.32294981  0.16618369  0.86508902  1
  In  In44  1  0.32670165  0.49455970  0.37606161  1
  In  In45  1  0.33049637  0.50272947  0.87421116  1
  In  In46  1  0.32102991  0.82404216  0.37822973  1
  In  In47  1  0.34981911  0.82572353  0.88577861  1
  In  In48  1  0.65797755  0.17299906  0.38224703  1
  In  In49  1  0.67757903  0.17380401  0.87289192  1
  In  In50  1  0.66738362  0.50345993  0.35841066  1
  In  In51  1  0.65713071  0.51072427  0.88385166  1
  In  In52  1  0.66954420  0.82983385  0.36589805  1
  In  In53  1  0.66697494  0.83298405  0.87724067  1
  In  In54  1  0.15671895  -0.01753982  0.11876659  1
  In  In55  1  0.16128566  -0.01559727  0.61546068  1
  In  In56  1  0.15678932  0.32684154  0.12783855  1
  In  In57  1  0.17683839  0.34275021  0.62110148  1
  In  In58  1  0.15983831  0.66951524  0.10565994  1
  In  In59  1  0.16374353  0.67134493  0.62940473  1
  In  In60  1  0.50237896  -0.00985225  0.11886794  1
  In  In61  1  0.50103082  0.01957609  0.63391384  1
  In  In62  1  0.51050556  0.35220000  0.12553390  1
  In  In63  1  0.49106523  0.31265017  0.62656351  1
  In  In64  1  0.51149211  0.67163933  0.12222354  1
  In  In65  1  0.50153820  0.66319261  0.63603984  1
  In  In66  1  0.84134605  0.01151974  0.11829846  1
  In  In67  1  0.82668910  0.00197767  0.63170520  1
  In  In68  1  0.83449201  0.33431122  0.12617512  1
  In  In69  1  0.84867357  0.32824067  0.62443258  1
  In  In70  1  0.82506327  0.65062494  0.10559072  1
  In  In71  1  0.83420644  0.66797747  0.63885351  1
  In  In72  1  0.32711636  -0.00246665  0.24459693  1
  In  In73  1  0.00892916  0.34052974  0.74525029  1
  In  In74  1  0.33314454  0.33967997  0.25980476  1
  In  In75  1  0.33233007  -0.00110875  0.74661733  1
  In  In76  1  0.66880438  -0.00305740  0.24564091  1
  In  In77  1  0.83903553  0.83351135  0.49456396  1
  In  In78  1  0.50058568  0.15852082  -0.00005025  1
  In  In79  1  0.49545657  0.49696014  0.49399293  1
  In  In80  1  0.16306527  0.16612981  -0.01019613  1
  In  In81  1  0.49213752  0.84446198  0.50319196  1
  In  In82  1  0.84063189  0.49810475  0.50438754  1
  In  In83  1  0.33735786  0.66991003  0.24011255  1
  In  In84  1  -0.00513820  0.66266345  0.24239460  1
  In  In85  1  0.66196566  0.33386944  0.74885704  1
  Cu  Cu86  1  0.66956236  0.66847031  0.49861869  1
  Cu  Cu87  1  -0.00426803  0.00510961  -0.00251457  1
  Cu  Cu88  1  0.67277275  0.33665736  0.00236572  1
  Cu  Cu89  1  0.83367503  0.16263297  0.74890846  1
  Cu  Cu90  1  0.83674233  0.83764955  0.76017079  1
  Cu  Cu91  1  0.00415565  0.32571790  0.49950410  1
  Cu  Cu92  1  0.16749235  0.83060763  0.75434343  1
  Cu  Cu93  1  0.16153021  0.50933441  0.75417975  1
  Cu  Cu94  1  0.83645849  0.16769134  0.25076939  1
  Cu  Cu95  1  0.33115267  0.33714699  0.50058967  1
  Cu  Cu96  1  -0.00166897  0.33280781  0.00549226  1
  Cu  Cu97  1  0.16621207  0.16556251  0.74389146  1
  Cu  Cu98  1  0.83808038  0.49670363  0.23862170  1
  Cu  Cu99  1  0.50391159  0.82857368  0.75582133  1
  Cu  Cu100  1  -0.00099614  -0.00429808  0.50000111  1
  Cu  Cu101  1  0.33595635  0.66216418  -0.00593402  1
  Cu  Cu102  1  0.15647353  0.16036612  0.25749320  1
  Cu  Cu103  1  0.49381940  0.49925653  0.75648684  1
  Cu  Cu104  1  0.66441115  0.66450805  -0.00444212  1
  Cu  Cu105  1  0.15823195  0.83413454  0.24608024  1
  Cu  Cu106  1  0.67011818  0.32548373  0.49884150  1
  Cu  Cu107  1  0.33713931  0.33442423  -0.00333543  1
  Cu  Cu108  1  0.82765039  0.82750763  0.24080858  1
  Cu  Cu109  1  0.32095826  0.66704563  0.50946488  1
  Cu  Cu110  1  0.66766205  0.00755055  0.50382164  1
  Cu  Cu111  1  0.17027590  0.49983819  0.24830577  1
  Cu  Cu112  1  0.50330524  0.17179604  0.25487436  1
  Cu  Cu113  1  0.67055243  -0.00629178  -0.00040373  1
  Cu  Cu114  1  0.83069168  0.51084923  0.76201921  1
  Se  Se115  1  0.07481099  0.08756048  0.05977816  1
  Se  Se116  1  0.08336004  0.07988772  0.55194196  1
  Se  Se117  1  0.09055563  0.41200175  0.05311165  1
  Se  Se118  1  0.07776290  0.41340624  0.55655293  1
  Se  Se119  1  0.08429278  0.75976525  0.04142090  1
  Se  Se120  1  0.08916024  0.75937617  0.55918018  1
  Se  Se121  1  0.40297579  0.07266027  0.05777114  1
  Se  Se122  1  0.42268150  0.07774723  0.55323991  1
  Se  Se123  1  0.42221943  0.41512095  0.05050401  1
  Se  Se124  1  0.40997122  0.41686000  0.56363086  1
  Se  Se125  1  0.41715811  0.74219238  0.05316403  1
  Se  Se126  1  0.41340499  0.74154517  0.56275013  1
  Se  Se127  1  0.75039169  0.08490802  0.04861758  1
  Se  Se128  1  0.75862001  0.08525003  0.55455672  1
  Se  Se129  1  0.75366671  0.42024630  0.05786864  1
  Se  Se130  1  0.74297833  0.40778203  0.56188047  1
  Se  Se131  1  0.74992254  0.75042943  0.04580504  1
  Se  Se132  1  0.74836011  0.74664760  0.55963191  1
  Se  Se133  1  0.25626332  0.25269772  0.05568279  1
  Se  Se134  1  0.25094675  0.25083953  0.55401688  1
  Se  Se135  1  0.25048237  0.58095792  0.04788134  1
  Se  Se136  1  0.24192880  0.57892493  0.56090523  1
  Se  Se137  1  0.24530807  0.91827407  0.04756175  1
  Se  Se138  1  0.26037619  0.91917220  0.54944374  1
  Se  Se139  1  0.58976056  0.25233818  0.05959878  1
  Se  Se140  1  0.58075415  0.24948843  0.55228523  1
  Se  Se141  1  0.58507994  0.58091162  0.05374956  1
  Se  Se142  1  0.58791076  0.58703539  0.55647487  1
  Se  Se143  1  0.58221741  0.91163423  0.04829447  1
  Se  Se144  1  0.59301947  0.92170253  0.56378704  1
  Se  Se145  1  0.91503581  0.24708554  0.05651971  1
  Se  Se146  1  0.91436395  0.24521366  0.54850844  1
  Se  Se147  1  0.93895470  0.60121950  0.04653681  1
  Se  Se148  1  0.92116669  0.59783436  0.56121448  1
  Se  Se149  1  0.91391332  0.91945163  0.05044516  1
  Se  Se150  1  0.92050647  0.91714287  0.56393998  1
  Se  Se151  1  0.08723306  0.24229379  0.44588420  1
  Se  Se152  1  0.07291942  0.26160084  0.93401995  1
  Se  Se153  1  0.07998366  0.57393394  0.45332073  1
  Se  Se154  1  0.10823466  0.56286113  0.94585319  1
  Se  Se155  1  0.07984580  0.91000536  0.44614113  1
  Se  Se156  1  0.08109381  0.92406133  0.94488526  1
  Se  Se157  1  0.41993759  0.25840300  0.44760300  1
  Se  Se158  1  0.41152901  0.24900563  0.93729288  1
  Se  Se159  1  0.40350563  0.59743471  0.44217026  1
  Se  Se160  1  0.42140073  0.57824926  0.94280580  1
  Se  Se161  1  0.40564638  0.92585819  0.43569664  1
  Se  Se162  1  0.42072964  0.91694337  0.95449367  1
  Se  Se163  1  0.75610162  0.24576752  0.44583255  1
  Se  Se164  1  0.75193100  0.24962809  0.94944991  1
  Se  Se165  1  0.74699779  0.58497545  0.44014053  1
  Se  Se166  1  0.75447948  0.58253326  0.94708412  1
  Se  Se167  1  0.73946616  0.92393454  0.43936526  1
  Se  Se168  1  0.75523467  0.91153324  0.94624727  1
  Se  Se169  1  0.25172017  0.07959339  0.45500818  1
  Se  Se170  1  0.25940610  0.07342005  0.93945717  1
  Se  Se171  1  0.24593521  0.42010486  0.44848937  1
  Se  Se172  1  0.25091762  0.41699931  0.94595882  1
  Se  Se173  1  0.24184764  0.75185962  0.45345829  1
  Se  Se174  1  0.25119005  0.74912991  0.94528625  1
  Se  Se175  1  0.57920879  0.08703972  0.45141586  1
  Se  Se176  1  0.59214195  0.07558583  0.93698085  1
  Se  Se177  1  0.59735875  0.41353910  0.43874942  1
  Se  Se178  1  0.58409888  0.41700919  0.95135767  1
  Se  Se179  1  0.58574630  0.75062796  0.44328030  1
  Se  Se180  1  0.58034612  0.74934556  0.94350059  1
  Se  Se181  1  0.91407920  0.07810571  0.44644558  1
  Se  Se182  1  0.91290200  0.09145855  0.94635352  1
  Se  Se183  1  0.92255469  0.40776687  0.43880241  1
  Se  Se184  1  0.91243061  0.41975076  0.95617029  1
  Se  Se185  1  0.92791114  0.73573207  0.44040094  1
  Se  Se186  1  0.93100504  0.73620989  0.95271909  1
  Se  Se187  1  0.24743610  0.23710940  0.31235295  1
  Se  Se188  1  0.24416107  0.25204473  0.79739200  1
  Se  Se189  1  0.24441069  0.58570426  0.30730664  1
  Se  Se190  1  0.25126637  0.58915427  0.80514607  1
  Se  Se191  1  0.23718909  0.91220958  0.30883681  1
  Se  Se192  1  0.25031271  0.91028579  0.81352059  1
  Se  Se193  1  0.58968187  0.25425990  0.30430204  1
  Se  Se194  1  0.57318317  0.24371971  0.80864267  1
  Se  Se195  1  0.59117826  0.59914231  0.29926901  1
  Se  Se196  1  0.58400663  0.58140658  0.80392597  1
  Se  Se197  1  0.57123714  0.91062329  0.30332521  1
  Se  Se198  1  0.58614726  0.91625468  0.80474375  1
  Se  Se199  1  0.92050494  0.24941591  0.30581892  1
  Se  Se200  1  0.91132413  0.25270748  0.80442234  1
  Se  Se201  1  0.91254834  0.57092266  0.30917495  1
  Se  Se202  1  0.92051705  0.59002616  0.81087276  1
  Se  Se203  1  0.91105467  0.90734478  0.29731587  1
  Se  Se204  1  0.92243922  0.92006044  0.81155330  1
  Se  Se205  1  0.07668876  0.07347516  0.30892333  1
  Se  Se206  1  0.08128089  0.08503392  0.79717046  1
  Se  Se207  1  0.09147092  0.41217461  0.30109711  1
  Se  Se208  1  0.07746088  0.43323005  0.81541672  1
  Se  Se209  1  0.08743576  0.74616724  0.30758707  1
  Se  Se210  1  0.08150070  0.75153428  0.80919423  1
  Se  Se211  1  0.41695773  0.09016981  0.30764375  1
  Se  Se212  1  0.42484069  0.08639219  0.80703135  1
  Se  Se213  1  0.43025027  0.43582337  0.30753459  1
  Se  Se214  1  0.41137308  0.41290767  0.80600472  1
  Se  Se215  1  0.41812728  0.76193382  0.30632299  1
  Se  Se216  1  0.41401772  0.74839928  0.80461833  1
  Se  Se217  1  0.75221007  0.08764465  0.31056990  1
  Se  Se218  1  0.75198137  0.08304414  0.80601987  1
  Se  Se219  1  0.75474474  0.41725109  0.29735632  1
  Se  Se220  1  0.75195865  0.42038886  0.81336376  1
  Se  Se221  1  0.74630183  0.74541113  0.29559200  1
  Se  Se222  1  0.75120088  0.75065981  0.80817846  1
  Se  Se223  1  0.23314505  0.08987658  0.18831914  1
  Se  Se224  1  0.24399108  0.08463943  0.68271726  1
  Se  Se225  1  0.25166224  0.42209425  0.18688727  1
  Se  Se226  1  0.24174793  0.41916133  0.70279697  1
  Se  Se227  1  0.23724082  0.75556973  0.18497818  1
  Se  Se228  1  0.25115955  0.74753246  0.70119327  1
  Se  Se229  1  0.57361862  0.09012803  0.18874675  1
  Se  Se230  1  0.59537714  0.08588227  0.70080212  1
  Se  Se231  1  0.59343996  0.41497770  0.20074175  1
  Se  Se232  1  0.56968696  0.42379863  0.68759399  1
  Se  Se233  1  0.58231247  0.75306850  0.19781551  1
  Se  Se234  1  0.58789081  0.74541666  0.70134471  1
  Se  Se235  1  0.91666333  0.07906770  0.19965339  1
  Se  Se236  1  0.91985968  0.07954067  0.69799077  1
  Se  Se237  1  0.92742636  0.41626639  0.19019365  1
  Se  Se238  1  0.90596786  0.43264770  0.69481586  1
  Se  Se239  1  0.90925381  0.75049156  0.17930192  1
  Se  Se240  1  0.91723281  0.75244085  0.70453929  1
  Se  Se241  1  0.08188243  0.25154212  0.20405264  1
  Se  Se242  1  0.08538390  0.24392742  0.68168095  1
  Se  Se243  1  0.09319496  0.57873836  0.18479345  1
  Se  Se244  1  0.07762198  0.59060894  0.69979558  1
  Se  Se245  1  0.07278437  0.91655460  0.19487835  1
  Se  Se246  1  0.08953094  0.91980925  0.69989266  1
  Se  Se247  1  0.42224001  0.25170266  0.19419134  1
  Se  Se248  1  0.40568179  0.24701636  0.69945065  1
  Se  Se249  1  0.42973758  0.57397257  0.19096158  1
  Se  Se250  1  0.41311436  0.58620388  0.70302634  1
  Se  Se251  1  0.41785862  0.90535511  0.18870344  1
  Se  Se252  1  0.42647491  0.90615165  0.68927319  1
  Se  Se253  1  0.75244371  0.25060952  0.19757053  1
  Se  Se254  1  0.75629101  0.24647956  0.68900398  1
  Se  Se255  1  0.75633574  0.58602626  0.19042802  1
  Se  Se256  1  0.74471037  0.58894933  0.70526231  1
  Se  Se257  1  0.75263402  0.91160366  0.17947771  1
  Se  Se258  1  0.75167367  0.91789541  0.70386334  1
