# generated using pymatgen
data_In86Cu29Se144
_symmetry_space_group_name_H-M   'P 1'
_cell_length_a   17.61497311
_cell_length_b   17.61278413
_cell_length_c   23.47879803
_cell_angle_alpha   90.00640699
_cell_angle_beta   89.98631330
_cell_angle_gamma   90.00047149
_symmetry_Int_Tables_number   1
_chemical_formula_structural   In86Cu29Se144
_chemical_formula_sum   'In86 Cu29 Se144'
_cell_volume   7284.26675616
_cell_formula_units_Z   1
loop_
 _symmetry_equiv_pos_site_id
 _symmetry_equiv_pos_as_xyz
  1  'x, y, z'
loop_
 _atom_site_type_symbol
 _atom_site_label
 _atom_site_symmetry_multiplicity
 _atom_site_fract_x
 _atom_site_fract_y
 _atom_site_fract_z
 _atom_site_occupancy
  In  In0  1  -0.00316149  0.14990287  0.12679765  1
  In  In1  1  0.00741230  0.17843993  0.61961958  1
  In  In2  1  -0.00918403  0.50969823  0.12155647  1
  In  In3  1  -0.02641294  0.51838063  0.65124998  1
  In  In4  1  0.00974272  0.83816984  0.11370264  1
  In  In5  1  -0.01634014  0.82653824  0.62341053  1
  In  In6  1  0.32442459  0.17431241  0.13193792  1
  In  In7  1  0.31590609  0.17050885  0.61989527  1
  In  In8  1  0.34087274  0.49657150  0.13516122  1
  In  In9  1  0.33752368  0.47826325  0.61349192  1
  In  In10  1  0.33340405  0.83310821  0.13046495  1
  In  In11  1  0.34505103  0.83697821  0.62622944  1
  In  In12  1  0.67486941  0.17810594  0.12800372  1
  In  In13  1  0.67531364  0.15243271  0.63126940  1
  In  In14  1  0.67211167  0.49705387  0.12594700  1
  In  In15  1  0.66902466  0.49737330  0.62957718  1
  In  In16  1  0.65706046  0.82112007  0.11192898  1
  In  In17  1  0.67280259  0.82245679  0.63552144  1
  In  In18  1  0.17389799  0.00800989  0.36665036  1
  In  In19  1  0.17329348  -0.00310116  0.88403863  1
  In  In20  1  0.16636068  0.32210612  0.37746296  1
  In  In21  1  0.15024278  0.33300988  0.88210902  1
  In  In22  1  0.16928599  0.66030119  0.37033060  1
  In  In23  1  0.16366377  0.67992971  0.88007246  1
  In  In24  1  0.49083207  0.00809134  0.37230878  1
  In  In25  1  0.49050408  0.00129684  0.86948618  1
  In  In26  1  0.51344100  0.34035947  0.37136199  1
  In  In27  1  0.51992526  0.33849565  0.86334497  1
  In  In28  1  0.49687104  0.65963338  0.36974473  1
  In  In29  1  0.52464415  0.66693243  0.86891251  1
  In  In30  1  0.84211467  -0.00723311  0.38421613  1
  In  In31  1  0.82063657  -0.00063067  0.87504659  1
  In  In32  1  0.82161253  0.34341337  0.38845315  1
  In  In33  1  0.83224751  0.34752907  0.85594150  1
  In  In34  1  0.82915886  0.67936457  0.38262045  1
  In  In35  1  0.83661363  0.67064054  0.87365913  1
  In  In36  1  0.00737205  0.16475288  0.38586006  1
  In  In37  1  0.00016230  0.18620096  0.87841993  1
  In  In38  1  -0.00565198  0.49848334  0.38089186  1
  In  In39  1  -0.02641399  0.48244250  0.85748638  1
  In  In40  1  -0.01259278  0.83155359  0.37098420  1
  In  In41  1  0.00667541  0.82742032  0.88139735  1
  In  In42  1  0.32673237  0.15958882  0.36746164  1
  In  In43  1  0.33673056  0.15607085  0.87872005  1
  In  In44  1  0.34506596  0.50375178  0.36969521  1
  In  In45  1  0.33733515  0.49352484  0.87581311  1
  In  In46  1  0.32742756  0.83424791  0.35992324  1
  In  In47  1  0.32392318  0.84358934  0.88595850  1
  In  In48  1  0.66111176  0.17839450  0.38001091  1
  In  In49  1  0.66977988  0.17520507  0.85708027  1
  In  In50  1  0.66830428  0.50191162  0.37786362  1
  In  In51  1  0.70203610  0.53558977  0.81746661  1
  In  In52  1  0.68357538  0.82953606  0.37547156  1
  In  In53  1  0.66531557  0.83543537  0.87939320  1
  In  In54  1  0.16315777  -0.00390377  0.12817572  1
  In  In55  1  0.16324265  0.01414909  0.62547188  1
  In  In56  1  0.17125725  0.34025324  0.12213096  1
  In  In57  1  0.16355701  0.32190475  0.62244397  1
  In  In58  1  0.17234053  0.67903708  0.12482028  1
  In  In59  1  0.15875292  0.65574719  0.62782132  1
  In  In60  1  0.49990633  -0.01337136  0.12300559  1
  In  In61  1  0.49686676  0.00604761  0.64004049  1
  In  In62  1  0.50270067  0.33169928  0.13036291  1
  In  In63  1  0.50195410  0.34822168  0.62183396  1
  In  In64  1  0.49615415  0.67228700  0.13092452  1
  In  In65  1  0.51543491  0.65541009  0.63457887  1
  In  In66  1  0.84871538  -0.00214440  0.12824649  1
  In  In67  1  0.82682775  -0.01387455  0.62019941  1
  In  In68  1  0.82107295  0.33302623  0.12602104  1
  In  In69  1  0.83529759  0.33721539  0.62949660  1
  In  In70  1  0.82563585  0.65849298  0.11717694  1
  In  In71  1  0.83092780  0.66215160  0.62947177  1
  In  In72  1  0.15485801  0.51146548  0.00532142  1
  In  In73  1  0.33207586  0.66974634  0.74960580  1
  In  In74  1  0.00397308  0.67269572  0.24711354  1
  In  In75  1  0.50733662  0.50374192  -0.01055081  1
  In  In76  1  0.83735140  0.16368063  0.00048778  1
  In  In77  1  0.00158388  0.00102077  0.74885723  1
  In  In78  1  0.49814647  0.16614456  -0.01062291  1
  In  In79  1  0.16139528  0.83143016  0.49482821  1
  In  In80  1  0.15966772  0.49275225  0.49872415  1
  In  In81  1  0.33801238  0.32596793  0.74617577  1
  In  In82  1  0.66600272  -0.00055736  0.25007618  1
  In  In83  1  0.50520805  0.83092100  0.50348742  1
  In  In84  1  0.49694901  0.17129533  0.50106340  1
  In  In85  1  -0.00073777  0.33055833  0.25911605  1
  Cu  Cu86  1  0.83251095  0.83113683  0.24899064  1
  Cu  Cu87  1  0.00040737  0.00501086  0.50368878  1
  Cu  Cu88  1  0.33304200  -0.00136708  0.00525085  1
  Cu  Cu89  1  0.18004923  0.50002608  0.24980336  1
  Cu  Cu90  1  0.67079120  -0.00479625  0.50604840  1
  Cu  Cu91  1  0.34127453  0.65722977  0.49531797  1
  Cu  Cu92  1  0.67385008  0.33513362  0.50425787  1
  Cu  Cu93  1  0.82992273  0.16856517  0.25361997  1
  Cu  Cu94  1  0.33974864  0.67614003  0.00402316  1
  Cu  Cu95  1  0.17131784  0.16364062  0.75030452  1
  Cu  Cu96  1  0.67030282  0.66081190  0.50679206  1
  Cu  Cu97  1  0.66610815  -0.00238646  -0.00181645  1
  Cu  Cu98  1  0.51136293  0.49779781  0.25091782  1
  Cu  Cu99  1  0.67422406  0.33694994  -0.00456452  1
  Cu  Cu100  1  -0.00827350  0.66294797  -0.00365820  1
  Cu  Cu101  1  0.83713005  0.16641018  0.74519221  1
  Cu  Cu102  1  0.82733382  0.50204091  0.25279694  1
  Cu  Cu103  1  0.49681740  0.83869085  0.75600203  1
  Cu  Cu104  1  -0.00825476  0.34298312  0.50669677  1
  Cu  Cu105  1  0.67146985  0.66074832  -0.01242011  1
  Cu  Cu106  1  0.16162800  0.49933768  0.75266082  1
  Cu  Cu107  1  0.32639370  0.00179497  0.49421361  1
  Cu  Cu108  1  0.00423728  -0.00474313  0.00192132  1
  Cu  Cu109  1  0.82956644  0.83213391  0.75065716  1
  Cu  Cu110  1  0.16882992  0.84002274  0.75774324  1
  Cu  Cu111  1  0.16296782  0.16362772  0.25110304  1
  Cu  Cu112  1  0.33265959  0.33254813  0.00421012  1
  Cu  Cu113  1  0.49506396  0.16867022  0.25132187  1
  Cu  Cu114  1  0.50321277  0.83099549  0.24529513  1
  Se  Se115  1  0.08449115  0.08058598  0.05540646  1
  Se  Se116  1  0.08691495  0.08976616  0.55133076  1
  Se  Se117  1  0.06844642  0.41081055  0.05792540  1
  Se  Se118  1  0.07153131  0.42008144  0.57003381  1
  Se  Se119  1  0.08148901  0.73941893  0.05041829  1
  Se  Se120  1  0.07699710  0.74176020  0.55850683  1
  Se  Se121  1  0.41471877  0.08403440  0.06078003  1
  Se  Se122  1  0.41083750  0.07272780  0.55805636  1
  Se  Se123  1  0.41881182  0.41488492  0.05616523  1
  Se  Se124  1  0.42058227  0.40780093  0.54204607  1
  Se  Se125  1  0.42196950  0.75645695  0.05909766  1
  Se  Se126  1  0.41576264  0.73615755  0.56108257  1
  Se  Se127  1  0.74335463  0.07560535  0.06212182  1
  Se  Se128  1  0.75482726  0.08226029  0.55410566  1
  Se  Se129  1  0.75345962  0.41944806  0.05219061  1
  Se  Se130  1  0.75394095  0.41951003  0.55885408  1
  Se  Se131  1  0.74891002  0.74426326  0.04686546  1
  Se  Se132  1  0.74917027  0.74807172  0.55965679  1
  Se  Se133  1  0.24866886  0.25058187  0.05517391  1
  Se  Se134  1  0.25268942  0.26026424  0.54873143  1
  Se  Se135  1  0.26453349  0.58587810  0.06031880  1
  Se  Se136  1  0.25584037  0.58597960  0.55734176  1
  Se  Se137  1  0.25140031  0.91572511  0.06036271  1
  Se  Se138  1  0.25298274  0.91917031  0.55786729  1
  Se  Se139  1  0.59056736  0.25656778  0.05209597  1
  Se  Se140  1  0.59366348  0.25072065  0.56221977  1
  Se  Se141  1  0.59000810  0.59054022  0.05706745  1
  Se  Se142  1  0.58495004  0.57839346  0.55729393  1
  Se  Se143  1  0.58001022  0.91530924  0.04837675  1
  Se  Se144  1  0.58699330  0.92212993  0.56763748  1
  Se  Se145  1  0.92093916  0.25304421  0.06474778  1
  Se  Se146  1  0.91220092  0.25227577  0.55618256  1
  Se  Se147  1  0.90817922  0.57697456  0.04610806  1
  Se  Se148  1  0.91733021  0.58098155  0.56249328  1
  Se  Se149  1  0.91343695  0.91543690  0.05085302  1
  Se  Se150  1  0.91832864  0.91513338  0.55059070  1
  Se  Se151  1  0.07723009  0.26120204  0.45240526  1
  Se  Se152  1  0.08673501  0.24475749  0.95436733  1
  Se  Se153  1  0.07637978  0.59558410  0.44343313  1
  Se  Se154  1  0.06920231  0.58418448  0.93233644  1
  Se  Se155  1  0.07673515  0.92716873  0.43708750  1
  Se  Se156  1  0.08858092  0.91201332  0.94888172  1
  Se  Se157  1  0.41533942  0.25153628  0.43100656  1
  Se  Se158  1  0.41338007  0.26697510  0.93547814  1
  Se  Se159  1  0.42718265  0.57643597  0.44527891  1
  Se  Se160  1  0.41114313  0.59745760  0.93688828  1
  Se  Se161  1  0.40962098  0.91669293  0.44108319  1
  Se  Se162  1  0.41897889  0.92317349  0.94727961  1
  Se  Se163  1  0.75033605  0.24451885  0.45222172  1
  Se  Se164  1  0.74840081  0.24876595  0.93721019  1
  Se  Se165  1  0.75289063  0.58480500  0.44594023  1
  Se  Se166  1  0.73732084  0.57822794  0.92228805  1
  Se  Se167  1  0.75203278  0.91273683  0.45016949  1
  Se  Se168  1  0.75331179  0.91437216  0.94936460  1
  Se  Se169  1  0.24530689  0.08781467  0.44367427  1
  Se  Se170  1  0.25247298  0.08490519  0.95178930  1
  Se  Se171  1  0.25559141  0.41502617  0.43678038  1
  Se  Se172  1  0.25124105  0.41791852  0.94809629  1
  Se  Se173  1  0.26212508  0.74251667  0.44060075  1
  Se  Se174  1  0.24794312  0.75212620  0.95264179  1
  Se  Se175  1  0.58816538  0.07207647  0.44528201  1
  Se  Se176  1  0.59663676  0.08161853  0.93484870  1
  Se  Se177  1  0.58962213  0.41471222  0.44790739  1
  Se  Se178  1  0.60170927  0.41911002  0.93329969  1
  Se  Se179  1  0.59333280  0.74208020  0.44247003  1
  Se  Se180  1  0.58130969  0.75076710  0.94834072  1
  Se  Se181  1  0.91481536  0.08662767  0.45037304  1
  Se  Se182  1  0.92649785  0.07396294  0.93772067  1
  Se  Se183  1  0.91044484  0.42611600  0.45257877  1
  Se  Se184  1  0.91093739  0.40553186  0.93786899  1
  Se  Se185  1  0.92418434  0.75062396  0.44726835  1
  Se  Se186  1  0.91262133  0.75357530  0.94675024  1
  Se  Se187  1  0.24607375  0.25018614  0.30186792  1
  Se  Se188  1  0.24455243  0.24777520  0.81341963  1
  Se  Se189  1  0.25847993  0.58664862  0.30295548  1
  Se  Se190  1  0.24325597  0.57759606  0.81311025  1
  Se  Se191  1  0.24931038  0.92307199  0.29770867  1
  Se  Se192  1  0.25278298  0.92249623  0.80814097  1
  Se  Se193  1  0.58524862  0.24759570  0.30148350  1
  Se  Se194  1  0.55474889  0.22498824  0.80007092  1
  Se  Se195  1  0.59013793  0.58412549  0.30495253  1
  Se  Se196  1  0.56595963  0.57721781  0.79071190  1
  Se  Se197  1  0.57801318  0.90871906  0.31314447  1
  Se  Se198  1  0.58353246  0.91845541  0.80914694  1
  Se  Se199  1  0.90632312  0.24613713  0.31902065  1
  Se  Se200  1  0.91689485  0.24895532  0.80112962  1
  Se  Se201  1  0.91374792  0.58200966  0.30805959  1
  Se  Se202  1  0.91438221  0.59056036  0.80034675  1
  Se  Se203  1  0.91014453  0.91830750  0.30235069  1
  Se  Se204  1  0.91315000  0.91165651  0.81022954  1
  Se  Se205  1  0.07600920  0.08763769  0.30692392  1
  Se  Se206  1  0.08857154  0.08824573  0.81308675  1
  Se  Se207  1  0.09301062  0.42827878  0.31085505  1
  Se  Se208  1  0.08282788  0.41068332  0.80394818  1
  Se  Se209  1  0.09340008  0.76116957  0.30772435  1
  Se  Se210  1  0.08431600  0.75332925  0.80447645  1
  Se  Se211  1  0.41191298  0.07987819  0.29753156  1
  Se  Se212  1  0.42018838  0.09529511  0.80230243  1
  Se  Se213  1  0.42412232  0.41584009  0.30234800  1
  Se  Se214  1  0.42430813  0.42551724  0.80175835  1
  Se  Se215  1  0.42112660  0.74990982  0.30269616  1
  Se  Se216  1  0.41651977  0.75658809  0.81594738  1
  Se  Se217  1  0.75156228  0.08650865  0.31503675  1
  Se  Se218  1  0.75534620  0.08243399  0.79878916  1
  Se  Se219  1  0.75018346  0.41577765  0.30834328  1
  Se  Se220  1  0.71521494  0.39090536  0.79941525  1
  Se  Se221  1  0.75183770  0.74500147  0.30103693  1
  Se  Se222  1  0.74662338  0.75416045  0.80863120  1
  Se  Se223  1  0.24640014  0.08291181  0.19553380  1
  Se  Se224  1  0.25357239  0.08203204  0.69645810  1
  Se  Se225  1  0.25449841  0.40933200  0.19710986  1
  Se  Se226  1  0.24258168  0.42100485  0.69176660  1
  Se  Se227  1  0.25668360  0.74368699  0.19787474  1
  Se  Se228  1  0.24079780  0.76031232  0.68880667  1
  Se  Se229  1  0.57711012  0.09130651  0.18807105  1
  Se  Se230  1  0.59021599  0.07926203  0.70213019  1
  Se  Se231  1  0.59025514  0.41351975  0.19426477  1
  Se  Se232  1  0.58353984  0.41504357  0.69678917  1
  Se  Se233  1  0.59081515  0.74961902  0.19525019  1
  Se  Se234  1  0.57742681  0.75280913  0.70262240  1
  Se  Se235  1  0.91393478  0.08384406  0.20370822  1
  Se  Se236  1  0.91520468  0.08589833  0.68379336  1
  Se  Se237  1  0.91202408  0.42218036  0.19546331  1
  Se  Se238  1  0.92235512  0.40282771  0.70480778  1
  Se  Se239  1  0.90992183  0.75333400  0.18425787  1
  Se  Se240  1  0.91340957  0.74832975  0.69948854  1
  Se  Se241  1  0.08470165  0.24716732  0.19094015  1
  Se  Se242  1  0.08642495  0.24675426  0.69849315  1
  Se  Se243  1  0.09346866  0.57428258  0.18983491  1
  Se  Se244  1  0.08097788  0.59068562  0.70654314  1
  Se  Se245  1  0.06998952  0.91844912  0.19199207  1
  Se  Se246  1  0.08868841  0.90891751  0.68773511  1
  Se  Se247  1  0.41473108  0.25402924  0.19684719  1
  Se  Se248  1  0.42259628  0.24198879  0.67962113  1
  Se  Se249  1  0.42448003  0.58100681  0.19947192  1
  Se  Se250  1  0.40860365  0.57291973  0.68672039  1
  Se  Se251  1  0.41899289  0.91841909  0.19849594  1
  Se  Se252  1  0.41052172  0.91845280  0.70260350  1
  Se  Se253  1  0.74881076  0.25541676  0.20345097  1
  Se  Se254  1  0.75072993  0.24828718  0.69414644  1
  Se  Se255  1  0.74960877  0.58492597  0.19488408  1
  Se  Se256  1  0.74387117  0.58577103  0.70092761  1
  Se  Se257  1  0.75055078  0.90932820  0.18651443  1
  Se  Se258  1  0.74834511  0.91856783  0.69906238  1
