# generated using pymatgen
data_In86Cu29Se144
_symmetry_space_group_name_H-M   'P 1'
_cell_length_a   17.57718989
_cell_length_b   17.57884631
_cell_length_c   23.43599316
_cell_angle_alpha   89.99183860
_cell_angle_beta   90.01955303
_cell_angle_gamma   90.01452785
_symmetry_Int_Tables_number   1
_chemical_formula_structural   In86Cu29Se144
_chemical_formula_sum   'In86 Cu29 Se144'
_cell_volume   7241.40992116
_cell_formula_units_Z   1
loop_
 _symmetry_equiv_pos_site_id
 _symmetry_equiv_pos_as_xyz
  1  'x, y, z'
loop_
 _atom_site_type_symbol
 _atom_site_label
 _atom_site_symmetry_multiplicity
 _atom_site_fract_x
 _atom_site_fract_y
 _atom_site_fract_z
 _atom_site_occupancy
  In  In0  1  -0.00358934  0.16477772  0.13273775  1
  In  In1  1  -0.00632883  0.15476806  0.60620258  1
  In  In2  1  -0.00500412  0.49330818  0.11680295  1
  In  In3  1  0.00936445  0.49964333  0.63061802  1
  In  In4  1  0.00935948  0.83695799  0.12679158  1
  In  In5  1  -0.01210400  0.81614514  0.59908294  1
  In  In6  1  0.34166517  0.18126398  0.13006044  1
  In  In7  1  0.32367308  0.15968966  0.61626997  1
  In  In8  1  0.32616825  0.49548109  0.11574936  1
  In  In9  1  0.35618497  0.50640574  0.63212538  1
  In  In10  1  0.32821000  0.83705770  0.11633027  1
  In  In11  1  0.33078115  0.82563896  0.62210585  1
  In  In12  1  0.67041092  0.15360542  0.13353885  1
  In  In13  1  0.67469008  0.17184942  0.61215073  1
  In  In14  1  0.67440920  0.50748335  0.11967714  1
  In  In15  1  0.64697842  0.50182260  0.63086303  1
  In  In16  1  0.66263070  0.84176676  0.13303127  1
  In  In17  1  0.66312513  0.83020016  0.60557648  1
  In  In18  1  0.13861912  0.01540105  0.39290658  1
  In  In19  1  0.17457569  -0.00350148  0.89498387  1
  In  In20  1  0.15128076  0.32338742  0.35870419  1
  In  In21  1  0.16620394  0.33150660  0.88503279  1
  In  In22  1  0.16175062  0.67436740  0.37730241  1
  In  In23  1  0.16604997  0.66618730  0.87455008  1
  In  In24  1  0.51791932  -0.01503549  0.38885318  1
  In  In25  1  0.49187481  -0.00869172  0.87859256  1
  In  In26  1  0.49291962  0.33808473  0.37760284  1
  In  In27  1  0.51812814  0.33703308  0.87162009  1
  In  In28  1  0.50482896  0.66048845  0.38079584  1
  In  In29  1  0.49320620  0.67017846  0.88012885  1
  In  In30  1  0.83138335  0.00487864  0.36178815  1
  In  In31  1  0.84316192  0.00308760  0.87835784  1
  In  In32  1  0.83421977  0.30978706  0.36843084  1
  In  In33  1  0.82553702  0.33885615  0.88361013  1
  In  In34  1  0.84001586  0.69574335  0.37811381  1
  In  In35  1  0.83175764  0.64406006  0.86877699  1
  In  In36  1  -0.00616120  0.16732089  0.36470342  1
  In  In37  1  -0.00050762  0.16507586  0.88567731  1
  In  In38  1  0.00943923  0.49936741  0.37045474  1
  In  In39  1  -0.00841419  0.50680383  0.87921236  1
  In  In40  1  -0.04796927  0.87758408  0.42384726  1
  In  In41  1  0.01120074  0.83571581  0.87316102  1
  In  In42  1  0.32417356  0.17102142  0.37544807  1
  In  In43  1  0.32415646  0.15643927  0.87936469  1
  In  In44  1  0.34149485  0.50172969  0.37687986  1
  In  In45  1  0.32704621  0.50606898  0.88136310  1
  In  In46  1  0.32661526  0.84396300  0.38266268  1
  In  In47  1  0.34305904  0.82871822  0.88479389  1
  In  In48  1  0.68853713  0.13942931  0.39826501  1
  In  In49  1  0.66533747  0.18243358  0.87481191  1
  In  In50  1  0.65265774  0.50159818  0.37457630  1
  In  In51  1  0.67716521  0.48802814  0.88293363  1
  In  In52  1  0.67189938  0.83596709  0.37329105  1
  In  In53  1  0.65894889  0.81893953  0.87402018  1
  In  In54  1  0.15594440  -0.00957967  0.12136870  1
  In  In55  1  0.15829038  -0.01017400  0.60957444  1
  In  In56  1  0.16909995  0.33178050  0.12455550  1
  In  In57  1  0.16511450  0.32570516  0.62479576  1
  In  In58  1  0.17107307  0.67465283  0.11605791  1
  In  In59  1  0.16290340  0.67897337  0.63653575  1
  In  In60  1  0.51049919  0.00168112  0.12723166  1
  In  In61  1  0.50287541  -0.00589596  0.60591570  1
  In  In62  1  0.48879820  0.33258263  0.12852211  1
  In  In63  1  0.50645034  0.34367607  0.61958521  1
  In  In64  1  0.50494916  0.67552163  0.11971951  1
  In  In65  1  0.49796215  0.66029838  0.62220835  1
  In  In66  1  0.82698101  0.01190954  0.13995218  1
  In  In67  1  0.82943475  -0.00440174  0.60379538  1
  In  In68  1  0.83921790  0.33914392  0.12475239  1
  In  In69  1  0.83506830  0.32100222  0.62203347  1
  In  In70  1  0.83400556  0.65350978  0.12499314  1
  In  In71  1  0.83068377  0.66772164  0.62285249  1
  In  In72  1  0.83093294  0.49878950  0.50286454  1
  In  In73  1  -0.00240903  0.66974528  0.24950251  1
  In  In74  1  0.33131860  -0.00188498  0.75310487  1
  In  In75  1  -0.00636596  0.33630718  0.75323839  1
  In  In76  1  0.66624485  0.66225275  0.74972540  1
  In  In77  1  0.66997064  0.00409717  0.73192247  1
  In  In78  1  0.33274781  0.66479201  0.25176376  1
  In  In79  1  0.33533167  0.00448161  0.25019097  1
  In  In80  1  0.66462122  0.32819878  0.25348468  1
  In  In81  1  0.83192988  0.83069291  -0.00226070  1
  In  In82  1  0.17383732  0.50169001  0.50394966  1
  In  In83  1  0.00530553  0.00132060  0.73625835  1
  In  In84  1  0.49749156  0.16618170  0.00231780  1
  In  In85  1  0.33446479  0.33875997  0.75332329  1
  Cu  Cu86  1  0.17231787  0.50866454  0.75424828  1
  Cu  Cu87  1  0.82947208  0.50127713  0.24736436  1
  Cu  Cu88  1  0.16592610  0.16828686  0.25076162  1
  Cu  Cu89  1  0.33006651  0.66552451  -0.00217835  1
  Cu  Cu90  1  0.50580000  0.82858290  0.25286870  1
  Cu  Cu91  1  0.83298880  0.83901028  0.25894179  1
  Cu  Cu92  1  0.50641064  0.16436725  0.25906082  1
  Cu  Cu93  1  0.32593885  0.33346254  0.50007837  1
  Cu  Cu94  1  0.16959064  0.82450143  0.75031625  1
  Cu  Cu95  1  0.00577755  0.32741236  0.00581168  1
  Cu  Cu96  1  0.15568142  0.16123801  0.75066027  1
  Cu  Cu97  1  0.67013109  0.33281682  0.00319698  1
  Cu  Cu98  1  0.34293744  0.66714339  0.50341759  1
  Cu  Cu99  1  0.15935021  0.84081349  0.25483723  1
  Cu  Cu100  1  0.84486603  0.82803902  0.73981712  1
  Cu  Cu101  1  0.82472830  0.16954308  0.74557123  1
  Cu  Cu102  1  0.67221669  0.67236416  0.49707946  1
  Cu  Cu103  1  0.00181060  0.66443604  -0.00156952  1
  Cu  Cu104  1  -0.00347935  0.32437313  0.49011356  1
  Cu  Cu105  1  0.49854801  0.50193580  0.25304145  1
  Cu  Cu106  1  0.33612359  0.33488083  0.00091566  1
  Cu  Cu107  1  0.16700697  0.49509125  0.24043174  1
  Cu  Cu108  1  0.50016427  0.83454120  0.75134836  1
  Cu  Cu109  1  0.66742031  -0.00082868  0.00798791  1
  Cu  Cu110  1  -0.00594185  0.00596668  0.00552088  1
  Cu  Cu111  1  0.66079130  0.66457656  -0.00210248  1
  Cu  Cu112  1  0.65842166  0.33546483  0.49480433  1
  Cu  Cu113  1  0.50128401  0.17672000  0.74506982  1
  Cu  Cu114  1  0.33645441  -0.00121674  0.49515189  1
  Se  Se115  1  0.07960083  0.08661205  0.05912719  1
  Se  Se116  1  0.09723244  0.09227624  0.54630002  1
  Se  Se117  1  0.08900949  0.41640125  0.05398284  1
  Se  Se118  1  0.07322591  0.40471400  0.55381753  1
  Se  Se119  1  0.07879114  0.75303402  0.05183723  1
  Se  Se120  1  0.10517353  0.75361333  0.55317283  1
  Se  Se121  1  0.40994712  0.07706357  0.06380535  1
  Se  Se122  1  0.41505608  0.08603392  0.54936940  1
  Se  Se123  1  0.42186933  0.41680946  0.05291439  1
  Se  Se124  1  0.40942502  0.41619016  0.55417392  1
  Se  Se125  1  0.41221699  0.74952198  0.05321833  1
  Se  Se126  1  0.42570793  0.75360723  0.55512701  1
  Se  Se127  1  0.75216226  0.08192972  0.05832376  1
  Se  Se128  1  0.74004312  0.07732732  0.54360892  1
  Se  Se129  1  0.75450372  0.41825666  0.05480241  1
  Se  Se130  1  0.73728827  0.41146424  0.56156475  1
  Se  Se131  1  0.74257416  0.74370799  0.06034190  1
  Se  Se132  1  0.76179838  0.75143280  0.54775094  1
  Se  Se133  1  0.25655195  0.25033046  0.05581642  1
  Se  Se134  1  0.24186587  0.24865018  0.55123350  1
  Se  Se135  1  0.24490218  0.58260129  0.04999376  1
  Se  Se136  1  0.26132243  0.58996450  0.56647697  1
  Se  Se137  1  0.23922545  0.91290612  0.05182761  1
  Se  Se138  1  0.25747759  0.91336132  0.55166752  1
  Se  Se139  1  0.59069818  0.25242095  0.06532074  1
  Se  Se140  1  0.57817298  0.25176733  0.55166563  1
  Se  Se141  1  0.57998139  0.58132088  0.05402844  1
  Se  Se142  1  0.58990709  0.58864529  0.55242016  1
  Se  Se143  1  0.58231190  0.91347617  0.05569991  1
  Se  Se144  1  0.60049364  0.92914098  0.54090085  1
  Se  Se145  1  0.91858292  0.24886889  0.05967477  1
  Se  Se146  1  0.91003927  0.24624395  0.54556997  1
  Se  Se147  1  0.91510066  0.58244874  0.05005055  1
  Se  Se148  1  0.92861180  0.58379195  0.55900772  1
  Se  Se149  1  0.91360704  0.92098772  0.06272740  1
  Se  Se150  1  0.93965311  0.93552372  0.54597370  1
  Se  Se151  1  0.08340628  0.24568789  0.43692195  1
  Se  Se152  1  0.08823482  0.24346463  0.95172620  1
  Se  Se153  1  0.07691642  0.58728414  0.44662005  1
  Se  Se154  1  0.08531749  0.58108417  0.94464573  1
  Se  Se155  1  0.09962282  0.88973403  0.43913297  1
  Se  Se156  1  0.07339694  0.91857833  0.95132014  1
  Se  Se157  1  0.40897958  0.25299436  0.44407523  1
  Se  Se158  1  0.41405152  0.25705079  0.93578367  1
  Se  Se159  1  0.42062516  0.57882170  0.44982604  1
  Se  Se160  1  0.41787063  0.58162333  0.94952012  1
  Se  Se161  1  0.42252497  0.90878921  0.45148001  1
  Se  Se162  1  0.40374385  0.93035049  0.95087084  1
  Se  Se163  1  0.75153689  0.25500054  0.44998571  1
  Se  Se164  1  0.75088726  0.24570440  0.95094312  1
  Se  Se165  1  0.74908187  0.58888868  0.43614585  1
  Se  Se166  1  0.75107279  0.58358923  0.94904986  1
  Se  Se167  1  0.77731209  0.90070102  0.43450336  1
  Se  Se168  1  0.73880242  0.92168268  0.93772329  1
  Se  Se169  1  0.25024741  0.08251558  0.44559766  1
  Se  Se170  1  0.24531913  0.09344932  0.95708243  1
  Se  Se171  1  0.24682048  0.40898219  0.43483884  1
  Se  Se172  1  0.24977614  0.41735865  0.94934095  1
  Se  Se173  1  0.25830045  0.74090090  0.44414319  1
  Se  Se174  1  0.24640818  0.75029371  0.94507905  1
  Se  Se175  1  0.56255784  0.10258984  0.44570796  1
  Se  Se176  1  0.59074613  0.07773612  0.94065861  1
  Se  Se177  1  0.57517367  0.42271182  0.44738451  1
  Se  Se178  1  0.58402306  0.41490066  0.95146784  1
  Se  Se179  1  0.58689670  0.75244529  0.44245802  1
  Se  Se180  1  0.57739123  0.75329823  0.95030930  1
  Se  Se181  1  0.91516979  0.08354776  0.43368270  1
  Se  Se182  1  0.90890650  0.08793738  0.95301707  1
  Se  Se183  1  0.91823254  0.41248553  0.43568866  1
  Se  Se184  1  0.92544366  0.40880310  0.94632351  1
  Se  Se185  1  0.92623218  0.73847705  0.45898803  1
  Se  Se186  1  0.91995902  0.74223434  0.93525495  1
  Se  Se187  1  0.25431461  0.25236466  0.29840600  1
  Se  Se188  1  0.23971295  0.24137322  0.80656741  1
  Se  Se189  1  0.23775621  0.57447632  0.30847971  1
  Se  Se190  1  0.25739133  0.58964319  0.80598278  1
  Se  Se191  1  0.24096304  0.92288076  0.31201598  1
  Se  Se192  1  0.24079078  0.91026646  0.81346555  1
  Se  Se193  1  0.58427194  0.24303457  0.32134268  1
  Se  Se194  1  0.58972476  0.25433294  0.79677778  1
  Se  Se195  1  0.58175627  0.58844296  0.30182564  1
  Se  Se196  1  0.58470917  0.57989816  0.81876336  1
  Se  Se197  1  0.58544988  0.91797055  0.30436740  1
  Se  Se198  1  0.58466073  0.91837328  0.80446572  1
  Se  Se199  1  0.92969163  0.26372434  0.29455319  1
  Se  Se200  1  0.90908545  0.23813242  0.81056636  1
  Se  Se201  1  0.90643321  0.58178084  0.31229041  1
  Se  Se202  1  0.92154413  0.57812594  0.79884836  1
  Se  Se203  1  0.92645793  0.90695233  0.31479750  1
  Se  Se204  1  0.91370999  0.91431457  0.80200110  1
  Se  Se205  1  0.08553522  0.08135248  0.30231216  1
  Se  Se206  1  0.08552343  0.07814746  0.81446181  1
  Se  Se207  1  0.07735644  0.41882562  0.29378515  1
  Se  Se208  1  0.09375751  0.41984083  0.80960745  1
  Se  Se209  1  0.07780853  0.76072912  0.31260244  1
  Se  Se210  1  0.08078396  0.74643364  0.80326161  1
  Se  Se211  1  0.42434390  0.08300861  0.31739819  1
  Se  Se212  1  0.42636503  0.09454336  0.80723595  1
  Se  Se213  1  0.41378215  0.41825433  0.30298821  1
  Se  Se214  1  0.42343283  0.42609822  0.81287044  1
  Se  Se215  1  0.41828697  0.75750062  0.31301794  1
  Se  Se216  1  0.41838961  0.75473757  0.80713416  1
  Se  Se217  1  0.74186337  0.09251286  0.30327797  1
  Se  Se218  1  0.75223598  0.08401614  0.80751972  1
  Se  Se219  1  0.75511584  0.42211300  0.31283193  1
  Se  Se220  1  0.75570375  0.41545531  0.80724555  1
  Se  Se221  1  0.74768968  0.74706975  0.30157196  1
  Se  Se222  1  0.76215131  0.75712981  0.80536833  1
  Se  Se223  1  0.24443044  0.08957207  0.18723713  1
  Se  Se224  1  0.23608914  0.08040459  0.69074354  1
  Se  Se225  1  0.25698509  0.41458330  0.19263052  1
  Se  Se226  1  0.24253195  0.42504745  0.68901016  1
  Se  Se227  1  0.24176786  0.76106456  0.19590598  1
  Se  Se228  1  0.26329591  0.74732286  0.70150609  1
  Se  Se229  1  0.58379431  0.07868965  0.20374242  1
  Se  Se230  1  0.57057671  0.09235781  0.68131827  1
  Se  Se231  1  0.58046170  0.42293377  0.19152831  1
  Se  Se232  1  0.57151513  0.41793179  0.70032269  1
  Se  Se233  1  0.58557980  0.74603476  0.19641924  1
  Se  Se234  1  0.58494970  0.76143008  0.68922521  1
  Se  Se235  1  0.92987479  0.07119236  0.20295551  1
  Se  Se236  1  0.90199889  0.08728990  0.68436407  1
  Se  Se237  1  0.91772402  0.42325170  0.19573574  1
  Se  Se238  1  0.90571432  0.42178437  0.68931240  1
  Se  Se239  1  0.90476769  0.76032469  0.18912296  1
  Se  Se240  1  0.92598400  0.74637255  0.68582716  1
  Se  Se241  1  0.08518266  0.25303446  0.19511122  1
  Se  Se242  1  0.07503212  0.23782525  0.68958520  1
  Se  Se243  1  0.08895656  0.58378653  0.18571234  1
  Se  Se244  1  0.08438653  0.58562774  0.70005430  1
  Se  Se245  1  0.07655788  0.92341819  0.20113054  1
  Se  Se246  1  0.09066088  0.90001462  0.68585186  1
  Se  Se247  1  0.42405169  0.24959875  0.20651833  1
  Se  Se248  1  0.41112241  0.24582334  0.68617733  1
  Se  Se249  1  0.42036290  0.57919177  0.18792376  1
  Se  Se250  1  0.43096743  0.58817537  0.70308834  1
  Se  Se251  1  0.42215290  0.90606709  0.19240782  1
  Se  Se252  1  0.42581384  0.91763490  0.68907463  1
  Se  Se253  1  0.75976872  0.24516320  0.19393482  1
  Se  Se254  1  0.74267501  0.25149838  0.69178566  1
  Se  Se255  1  0.74543061  0.58613999  0.19806917  1
  Se  Se256  1  0.75635794  0.57258191  0.69016502  1
  Se  Se257  1  0.74767391  0.91874630  0.20262357  1
  Se  Se258  1  0.76082227  0.90434212  0.68154421  1
