# generated using pymatgen
data_In86Cu29Se144
_symmetry_space_group_name_H-M   'P 1'
_cell_length_a   17.57872339
_cell_length_b   17.57592799
_cell_length_c   23.44173742
_cell_angle_alpha   90.00309625
_cell_angle_beta   90.00055102
_cell_angle_gamma   89.99734477
_symmetry_Int_Tables_number   1
_chemical_formula_structural   In86Cu29Se144
_chemical_formula_sum   'In86 Cu29 Se144'
_cell_volume   7242.61488174
_cell_formula_units_Z   1
loop_
 _symmetry_equiv_pos_site_id
 _symmetry_equiv_pos_as_xyz
  1  'x, y, z'
loop_
 _atom_site_type_symbol
 _atom_site_label
 _atom_site_symmetry_multiplicity
 _atom_site_fract_x
 _atom_site_fract_y
 _atom_site_fract_z
 _atom_site_occupancy
  In  In0  1  -0.00446909  0.17981202  0.12295797  1
  In  In1  1  -0.00777863  0.15964326  0.62041008  1
  In  In2  1  -0.00850684  0.48252863  0.12558797  1
  In  In3  1  0.00903757  0.50025593  0.62484290  1
  In  In4  1  -0.00207432  0.83404728  0.11440562  1
  In  In5  1  -0.00225123  0.83858250  0.62574672  1
  In  In6  1  0.33705490  0.15736484  0.13139875  1
  In  In7  1  0.31947457  0.16685764  0.62230519  1
  In  In8  1  0.34148339  0.48597047  0.12704175  1
  In  In9  1  0.32801895  0.51102116  0.62214767  1
  In  In10  1  0.34810373  0.85413504  0.11394171  1
  In  In11  1  0.34621778  0.84413006  0.61704199  1
  In  In12  1  0.65452557  0.15340844  0.11576338  1
  In  In13  1  0.67109367  0.15943429  0.63250381  1
  In  In14  1  0.65701017  0.50234785  0.11869743  1
  In  In15  1  0.67441850  0.49558264  0.64265105  1
  In  In16  1  0.66726099  0.83856710  0.11671669  1
  In  In17  1  0.66731113  0.83445765  0.62838562  1
  In  In18  1  0.16908249  -0.00009458  0.38119708  1
  In  In19  1  0.15779907  -0.01255129  0.86518003  1
  In  In20  1  0.16895913  0.32858816  0.37327710  1
  In  In21  1  0.17008909  0.32867198  0.87881542  1
  In  In22  1  0.16512420  0.67277730  0.38445972  1
  In  In23  1  0.16940845  0.68107597  0.87082387  1
  In  In24  1  0.49597661  -0.01401774  0.36265058  1
  In  In25  1  0.50208071  -0.00035773  0.87445429  1
  In  In26  1  0.48337920  0.33797813  0.36856709  1
  In  In27  1  0.51523414  0.31864343  0.89257715  1
  In  In28  1  0.50817545  0.67347374  0.37442318  1
  In  In29  1  0.51121210  0.66033663  0.88250301  1
  In  In30  1  0.82657376  0.00417574  0.38257842  1
  In  In31  1  0.83279368  0.00076989  0.87453414  1
  In  In32  1  0.82894473  0.30651311  0.38061559  1
  In  In33  1  0.82411550  0.33880408  0.87757060  1
  In  In34  1  0.84064469  0.66966738  0.38062347  1
  In  In35  1  0.84640979  0.67360076  0.86006120  1
  In  In36  1  -0.00273344  0.16638237  0.37889863  1
  In  In37  1  0.00840776  0.15043782  0.87661988  1
  In  In38  1  0.01332505  0.49821236  0.37721507  1
  In  In39  1  -0.01422726  0.50516565  0.86974361  1
  In  In40  1  -0.00294904  0.84067556  0.38715279  1
  In  In41  1  -0.00182556  0.83322180  0.87137611  1
  In  In42  1  0.32381077  0.15321014  0.36046064  1
  In  In43  1  0.35223181  0.16239755  0.88361898  1
  In  In44  1  0.33067702  0.48113122  0.36901658  1
  In  In45  1  0.33794584  0.50622080  0.88172748  1
  In  In46  1  0.33086102  0.83904983  0.37999165  1
  In  In47  1  0.32657101  0.84339559  0.87996579  1
  In  In48  1  0.68008035  0.15903272  0.37925691  1
  In  In49  1  0.66842716  0.16504801  0.87373483  1
  In  In50  1  0.65287839  0.49681542  0.37514988  1
  In  In51  1  0.66911710  0.49056014  0.86501883  1
  In  In52  1  0.65606019  0.84421533  0.39103520  1
  In  In53  1  0.66921699  0.83754005  0.87383022  1
  In  In54  1  0.18165575  0.00401089  0.12789595  1
  In  In55  1  0.16796621  -0.00147678  0.62395085  1
  In  In56  1  0.16856116  0.31960007  0.13619366  1
  In  In57  1  0.15618791  0.33135820  0.61194790  1
  In  In58  1  0.15767689  0.67585960  0.12379041  1
  In  In59  1  0.15728436  0.66392519  0.61898369  1
  In  In60  1  0.49785231  -0.00196179  0.12553777  1
  In  In61  1  0.51197989  -0.00789240  0.63565797  1
  In  In62  1  0.49121091  0.32852160  0.11426091  1
  In  In63  1  0.50314337  0.34216932  0.62797413  1
  In  In64  1  0.50230199  0.67426246  0.11392151  1
  In  In65  1  0.50230936  0.67796708  0.62735074  1
  In  In66  1  0.82289758  -0.00696426  0.11439000  1
  In  In67  1  0.83376418  0.00184872  0.62703924  1
  In  In68  1  0.84978795  0.31806673  0.12573561  1
  In  In69  1  0.82756974  0.32121153  0.62219810  1
  In  In70  1  0.82374905  0.66850435  0.11783445  1
  In  In71  1  0.81702336  0.67995496  0.64012618  1
  In  In72  1  0.49600755  0.50413369  0.49310861  1
  In  In73  1  0.16533879  0.16194549  0.00721718  1
  In  In74  1  0.00390322  0.00494688  0.25588102  1
  In  In75  1  0.33667145  0.32987091  0.75290885  1
  In  In76  1  -0.00777600  0.33341109  0.74772661  1
  In  In77  1  0.00108869  0.66281183  0.25442987  1
  In  In78  1  0.17019303  0.50122319  0.00829807  1
  In  In79  1  0.66104405  0.32514100  0.24716210  1
  In  In80  1  0.83374727  0.50257391  0.51099178  1
  In  In81  1  0.82974284  0.50146835  -0.00436234  1
  In  In82  1  0.66566514  0.67102569  0.24321371  1
  In  In83  1  0.33481644  0.66949597  0.25094058  1
  In  In84  1  0.33559368  0.67388816  0.74745069  1
  In  In85  1  0.50267764  0.16425875  0.50124886  1
  Cu  Cu86  1  0.66405286  0.00419397  -0.00593771  1
  Cu  Cu87  1  0.16340825  0.83491264  0.74652193  1
  Cu  Cu88  1  0.83309651  0.84387719  0.75030250  1
  Cu  Cu89  1  0.00248144  0.00325015  0.50404216  1
  Cu  Cu90  1  0.66773574  0.33217160  -0.00203362  1
  Cu  Cu91  1  0.66879663  -0.00266133  0.50879088  1
  Cu  Cu92  1  0.16820698  0.15672255  0.74722166  1
  Cu  Cu93  1  0.50700704  0.49615155  0.75863379  1
  Cu  Cu94  1  0.83102354  0.48266248  0.24910935  1
  Cu  Cu95  1  -0.00263869  0.67738247  0.50417603  1
  Cu  Cu96  1  0.33406603  0.00229919  0.00048938  1
  Cu  Cu97  1  0.00013120  0.33631709  0.49676417  1
  Cu  Cu98  1  0.83133191  0.16450364  0.75062712  1
  Cu  Cu99  1  0.32305259  0.33171499  0.49464841  1
  Cu  Cu100  1  0.16432779  0.49945162  0.74417533  1
  Cu  Cu101  1  0.83331229  0.15658579  0.25286227  1
  Cu  Cu102  1  0.66689270  0.66703814  0.50797876  1
  Cu  Cu103  1  0.50352713  0.16320202  0.24321580  1
  Cu  Cu104  1  0.33541908  0.67382414  -0.00208222  1
  Cu  Cu105  1  0.50430688  0.16614357  0.75831967  1
  Cu  Cu106  1  0.67035954  0.67629050  -0.00672039  1
  Cu  Cu107  1  0.17319062  0.84022999  0.25302979  1
  Cu  Cu108  1  0.32755377  0.67074561  0.50073897  1
  Cu  Cu109  1  0.50447010  0.83370673  0.75258047  1
  Cu  Cu110  1  -0.00493563  -0.00595360  -0.00518508  1
  Cu  Cu111  1  0.16676094  0.49026294  0.25077658  1
  Cu  Cu112  1  0.82720136  0.83344277  0.24604197  1
  Cu  Cu113  1  0.33560329  0.00355031  0.49566411  1
  Cu  Cu114  1  0.00219949  0.67033500  -0.00769183  1
  Se  Se115  1  0.07142394  0.06937962  0.06287629  1
  Se  Se116  1  0.08769112  0.08684591  0.55554326  1
  Se  Se117  1  0.08159155  0.40237628  0.05971234  1
  Se  Se118  1  0.08191716  0.42494004  0.54663972  1
  Se  Se119  1  0.08504230  0.75291923  0.04744758  1
  Se  Se120  1  0.08440894  0.75973417  0.55483709  1
  Se  Se121  1  0.41650513  0.08407704  0.05577855  1
  Se  Se122  1  0.41459467  0.07557935  0.56381004  1
  Se  Se123  1  0.42540838  0.42871575  0.04909636  1
  Se  Se124  1  0.40502221  0.41049564  0.55560593  1
  Se  Se125  1  0.41995404  0.75959666  0.04795852  1
  Se  Se126  1  0.41872621  0.74659548  0.55247715  1
  Se  Se127  1  0.75032266  0.08644258  0.04741421  1
  Se  Se128  1  0.75091746  0.08625713  0.55692224  1
  Se  Se129  1  0.74872001  0.40754222  0.06220087  1
  Se  Se130  1  0.73522999  0.41175387  0.55949877  1
  Se  Se131  1  0.75398108  0.75660214  0.04839758  1
  Se  Se132  1  0.75099131  0.75236946  0.55748708  1
  Se  Se133  1  0.25842405  0.25365918  0.06035750  1
  Se  Se134  1  0.24357637  0.24665527  0.54906758  1
  Se  Se135  1  0.26064198  0.59560570  0.06485300  1
  Se  Se136  1  0.24480439  0.58340466  0.55031919  1
  Se  Se137  1  0.24498272  0.91953946  0.05030309  1
  Se  Se138  1  0.25353912  0.92025215  0.55227480  1
  Se  Se139  1  0.58290434  0.24891479  0.05041773  1
  Se  Se140  1  0.58810068  0.25413333  0.56346682  1
  Se  Se141  1  0.58919389  0.59139025  0.04773549  1
  Se  Se142  1  0.58704769  0.58092385  0.56376569  1
  Se  Se143  1  0.58176587  0.92257939  0.05148818  1
  Se  Se144  1  0.58097381  0.91348409  0.55732312  1
  Se  Se145  1  0.91234457  0.24249044  0.04512972  1
  Se  Se146  1  0.91951052  0.25315324  0.55272915  1
  Se  Se147  1  0.92775964  0.58881856  0.05719265  1
  Se  Se148  1  0.91949160  0.59856278  0.56718237  1
  Se  Se149  1  0.90988982  0.91089987  0.04785070  1
  Se  Se150  1  0.91567271  0.92099475  0.55581007  1
  Se  Se151  1  0.08303100  0.25113303  0.44405719  1
  Se  Se152  1  0.07651671  0.25303635  0.94457309  1
  Se  Se153  1  0.07609822  0.59114292  0.44875750  1
  Se  Se154  1  0.08323489  0.58480817  0.93756230  1
  Se  Se155  1  0.08669237  0.91926179  0.45121654  1
  Se  Se156  1  0.08290598  0.91354928  0.94281072  1
  Se  Se157  1  0.40876777  0.25014600  0.44071035  1
  Se  Se158  1  0.40880321  0.25907462  0.95260236  1
  Se  Se159  1  0.40296035  0.59258009  0.43406481  1
  Se  Se160  1  0.41926357  0.58606792  0.95056088  1
  Se  Se161  1  0.42174219  0.91976216  0.44524251  1
  Se  Se162  1  0.41778755  0.91948814  0.94583269  1
  Se  Se163  1  0.74266157  0.24475052  0.45467795  1
  Se  Se164  1  0.75056070  0.24894053  0.94485311  1
  Se  Se165  1  0.73969370  0.58616695  0.44260821  1
  Se  Se166  1  0.74875355  0.59382417  0.93283021  1
  Se  Se167  1  0.75441871  0.91505860  0.45395125  1
  Se  Se168  1  0.75046226  0.91907860  0.94495470  1
  Se  Se169  1  0.25317230  0.08971809  0.44537881  1
  Se  Se170  1  0.24847851  0.07578280  0.93798622  1
  Se  Se171  1  0.24278053  0.42140328  0.44470739  1
  Se  Se172  1  0.25830338  0.40965999  0.94608529  1
  Se  Se173  1  0.24650689  0.75895928  0.44971746  1
  Se  Se174  1  0.24733126  0.75307656  0.94664978  1
  Se  Se175  1  0.58733375  0.06958600  0.44169529  1
  Se  Se176  1  0.57935783  0.08878081  0.94322819  1
  Se  Se177  1  0.58337354  0.40065586  0.44365592  1
  Se  Se178  1  0.59187238  0.42442779  0.94583996  1
  Se  Se179  1  0.58012026  0.74680249  0.45327517  1
  Se  Se180  1  0.58219775  0.75973832  0.94492986  1
  Se  Se181  1  0.91689837  0.08299783  0.44780839  1
  Se  Se182  1  0.91533093  0.08364955  0.94589318  1
  Se  Se183  1  0.91387558  0.41520923  0.43952942  1
  Se  Se184  1  0.92772697  0.40981689  0.94445050  1
  Se  Se185  1  0.91012150  0.75686962  0.45194514  1
  Se  Se186  1  0.91418350  0.74959050  0.94078844  1
  Se  Se187  1  0.27901134  0.27523839  0.31045655  1
  Se  Se188  1  0.24601156  0.23571320  0.81040421  1
  Se  Se189  1  0.23751033  0.58179614  0.30902660  1
  Se  Se190  1  0.24656450  0.57622098  0.80571173  1
  Se  Se191  1  0.25224440  0.92242839  0.30871008  1
  Se  Se192  1  0.25255996  0.91359869  0.79939210  1
  Se  Se193  1  0.57580945  0.23751709  0.31393971  1
  Se  Se194  1  0.58506493  0.25522244  0.80780993  1
  Se  Se195  1  0.57421748  0.57723207  0.30120932  1
  Se  Se196  1  0.58750712  0.58767467  0.80542694  1
  Se  Se197  1  0.59700290  0.91021903  0.30531134  1
  Se  Se198  1  0.58641212  0.92056110  0.80403931  1
  Se  Se199  1  0.91400336  0.24273799  0.30476417  1
  Se  Se200  1  0.91349848  0.24065762  0.81310608  1
  Se  Se201  1  0.90584388  0.56955642  0.30914537  1
  Se  Se202  1  0.91999376  0.58208707  0.79265554  1
  Se  Se203  1  0.90953148  0.90924383  0.30863903  1
  Se  Se204  1  0.91973131  0.92278668  0.80440994  1
  Se  Se205  1  0.09643789  0.09576231  0.30970657  1
  Se  Se206  1  0.07966160  0.07700921  0.79776711  1
  Se  Se207  1  0.08081652  0.41104720  0.30481414  1
  Se  Se208  1  0.09077059  0.41838248  0.80860620  1
  Se  Se209  1  0.08702122  0.76212632  0.31016152  1
  Se  Se210  1  0.08146437  0.75024639  0.79982739  1
  Se  Se211  1  0.42023637  0.07932580  0.29801867  1
  Se  Se212  1  0.41601325  0.08225328  0.80473105  1
  Se  Se213  1  0.42754691  0.43207847  0.29643486  1
  Se  Se214  1  0.42365658  0.41743433  0.81621131  1
  Se  Se215  1  0.42486898  0.76177361  0.30793069  1
  Se  Se216  1  0.42324371  0.75481139  0.81424308  1
  Se  Se217  1  0.74810883  0.07438446  0.30393196  1
  Se  Se218  1  0.74799096  0.08060846  0.80395281  1
  Se  Se219  1  0.75024477  0.41264667  0.31386567  1
  Se  Se220  1  0.76743568  0.42345845  0.80018586  1
  Se  Se221  1  0.75527272  0.75140943  0.31037649  1
  Se  Se222  1  0.75105010  0.75660897  0.80208677  1
  Se  Se223  1  0.23810616  0.09674635  0.19976283  1
  Se  Se224  1  0.25542947  0.07734956  0.69519216  1
  Se  Se225  1  0.25231299  0.41313728  0.19597643  1
  Se  Se226  1  0.24503999  0.41634547  0.68799011  1
  Se  Se227  1  0.24640566  0.75934329  0.18944100  1
  Se  Se228  1  0.24603647  0.75779455  0.68413518  1
  Se  Se229  1  0.58751350  0.07697855  0.19511604  1
  Se  Se230  1  0.58640520  0.08254687  0.70300406  1
  Se  Se231  1  0.57606211  0.41915413  0.18880755  1
  Se  Se232  1  0.58490813  0.40940227  0.70394595  1
  Se  Se233  1  0.57382602  0.76286624  0.18920269  1
  Se  Se234  1  0.58687099  0.74900261  0.69969010  1
  Se  Se235  1  0.91081345  0.08017005  0.18755062  1
  Se  Se236  1  0.91802647  0.08439561  0.69727401  1
  Se  Se237  1  0.91990561  0.40233040  0.20096608  1
  Se  Se238  1  0.90701317  0.42240418  0.68496809  1
  Se  Se239  1  0.91084925  0.75131428  0.19052507  1
  Se  Se240  1  0.91645405  0.75798610  0.69796201  1
  Se  Se241  1  0.07523873  0.24521105  0.19977283  1
  Se  Se242  1  0.09019196  0.24533394  0.69126030  1
  Se  Se243  1  0.08737701  0.57140465  0.19000547  1
  Se  Se244  1  0.08240224  0.58739694  0.69629764  1
  Se  Se245  1  0.08488017  0.90931286  0.19085028  1
  Se  Se246  1  0.08188742  0.92151945  0.69450988  1
  Se  Se247  1  0.42182909  0.25006578  0.19258350  1
  Se  Se248  1  0.42477425  0.23930707  0.69042548  1
  Se  Se249  1  0.42474615  0.58584319  0.18691366  1
  Se  Se250  1  0.42671741  0.57308027  0.69495993  1
  Se  Se251  1  0.40713355  0.92662919  0.19634940  1
  Se  Se252  1  0.41750882  0.91344070  0.69893924  1
  Se  Se253  1  0.75307771  0.23532309  0.18926791  1
  Se  Se254  1  0.74882410  0.25097698  0.69975809  1
  Se  Se255  1  0.75852986  0.56971468  0.19031038  1
  Se  Se256  1  0.74768042  0.58676184  0.70676751  1
  Se  Se257  1  0.74768227  0.91605253  0.19100049  1
  Se  Se258  1  0.74673676  0.92279162  0.69577050  1
