# generated using pymatgen
data_In86Cu29Se144
_symmetry_space_group_name_H-M   'P 1'
_cell_length_a   17.57890417
_cell_length_b   17.57874197
_cell_length_c   23.44155562
_cell_angle_alpha   89.99221010
_cell_angle_beta   89.99174507
_cell_angle_gamma   90.00752792
_symmetry_Int_Tables_number   1
_chemical_formula_structural   In86Cu29Se144
_chemical_formula_sum   'In86 Cu29 Se144'
_cell_volume   7243.79258319
_cell_formula_units_Z   1
loop_
 _symmetry_equiv_pos_site_id
 _symmetry_equiv_pos_as_xyz
  1  'x, y, z'
loop_
 _atom_site_type_symbol
 _atom_site_label
 _atom_site_symmetry_multiplicity
 _atom_site_fract_x
 _atom_site_fract_y
 _atom_site_fract_z
 _atom_site_occupancy
  In  In0  1  0.00372164  0.17195476  0.12550924  1
  In  In1  1  -0.00271464  0.17134980  0.62655840  1
  In  In2  1  -0.00243886  0.49717003  0.12856213  1
  In  In3  1  0.00647413  0.48943728  0.62763080  1
  In  In4  1  -0.01024168  0.82792562  0.12760566  1
  In  In5  1  0.01136606  0.84367473  0.61870357  1
  In  In6  1  0.34051038  0.16044625  0.13444673  1
  In  In7  1  0.34742495  0.17869701  0.61694075  1
  In  In8  1  0.34188499  0.48918446  0.13786813  1
  In  In9  1  0.32433141  0.50631850  0.61695813  1
  In  In10  1  0.34735184  0.83341973  0.15198309  1
  In  In11  1  0.33811789  0.83368606  0.60758614  1
  In  In12  1  0.67166937  0.17948357  0.10357302  1
  In  In13  1  0.65971599  0.16985021  0.62524507  1
  In  In14  1  0.67305953  0.49998390  0.11491349  1
  In  In15  1  0.67036230  0.49434057  0.63845425  1
  In  In16  1  0.65176945  0.82416302  0.12814992  1
  In  In17  1  0.65440936  0.84413341  0.63537377  1
  In  In18  1  0.17549804  -0.01299942  0.38813995  1
  In  In19  1  0.16275058  0.01352406  0.87088720  1
  In  In20  1  0.16657117  0.33291847  0.37709088  1
  In  In21  1  0.15568765  0.32966390  0.86107158  1
  In  In22  1  0.17126928  0.66809592  0.37640405  1
  In  In23  1  0.17025039  0.67018603  0.87397984  1
  In  In24  1  0.49117282  0.00897740  0.38129943  1
  In  In25  1  0.53771740  0.01564272  0.85564859  1
  In  In26  1  0.49501587  0.33533126  0.37740500  1
  In  In27  1  0.49889618  0.33226144  0.87551024  1
  In  In28  1  0.50131589  0.67454875  0.36765381  1
  In  In29  1  0.50076629  0.65556506  0.87646224  1
  In  In30  1  0.84072332  0.01013966  0.37803808  1
  In  In31  1  0.84148900  0.02100943  0.85419248  1
  In  In32  1  0.83735221  0.31583258  0.37813843  1
  In  In33  1  0.83101760  0.33057752  0.87791766  1
  In  In34  1  0.82658282  0.65453436  0.36522982  1
  In  In35  1  0.81613318  0.66501854  0.87771898  1
  In  In36  1  -0.00414512  0.17558275  0.38196368  1
  In  In37  1  -0.01839582  0.15866814  0.85299866  1
  In  In38  1  0.00860120  0.50844781  0.36656503  1
  In  In39  1  -0.00275575  0.47952773  0.87333837  1
  In  In40  1  0.01187215  0.83071332  0.37823180  1
  In  In41  1  -0.01108779  0.84226411  0.87298480  1
  In  In42  1  0.33396462  0.16643621  0.37661342  1
  In  In43  1  0.32592468  0.18035953  0.87365485  1
  In  In44  1  0.32848560  0.48892204  0.36895675  1
  In  In45  1  0.35422672  0.49576441  0.88287568  1
  In  In46  1  0.33383654  0.83189931  0.37450788  1
  In  In47  1  0.34248524  0.83396011  0.87457274  1
  In  In48  1  0.66869736  0.16890136  0.39381490  1
  In  In49  1  0.66690244  0.17252117  0.87668374  1
  In  In50  1  0.65565513  0.50221782  0.37617351  1
  In  In51  1  0.66250620  0.49572979  0.88076657  1
  In  In52  1  0.66348675  0.82026018  0.37588260  1
  In  In53  1  0.66527612  0.84013316  0.85915247  1
  In  In54  1  0.17867799  0.00991497  0.12778533  1
  In  In55  1  0.16080158  -0.00096167  0.61798813  1
  In  In56  1  0.16442018  0.33208062  0.13754950  1
  In  In57  1  0.17204251  0.33573756  0.61908925  1
  In  In58  1  0.16582704  0.66931108  0.13694550  1
  In  In59  1  0.18148713  0.67556536  0.60003327  1
  In  In60  1  0.49757663  0.00537674  0.12312079  1
  In  In61  1  0.50152463  -0.00032005  0.61807296  1
  In  In62  1  0.49646177  0.32648957  0.11604637  1
  In  In63  1  0.51358316  0.32150331  0.63465065  1
  In  In64  1  0.51023570  0.66057664  0.14161872  1
  In  In65  1  0.50099514  0.67956900  0.62247901  1
  In  In66  1  0.82617252  0.00221332  0.11828271  1
  In  In67  1  0.81453591  0.03136201  0.64585518  1
  In  In68  1  0.83681205  0.33891884  0.11308233  1
  In  In69  1  0.83415058  0.32049970  0.63617732  1
  In  In70  1  0.84066561  0.65289127  0.13275540  1
  In  In71  1  0.82227060  0.65712533  0.62685161  1
  In  In72  1  0.33708276  0.65921841  0.74429775  1
  In  In73  1  0.17155766  0.83828688  -0.00276302  1
  In  In74  1  0.66733594  0.33833490  0.24718799  1
  In  In75  1  0.83691200  0.84021765  0.50225324  1
  In  In76  1  0.50016195  0.83785403  0.00084011  1
  In  In77  1  0.66124553  -0.00127016  0.24584608  1
  In  In78  1  0.16595869  0.49682437  0.00404894  1
  In  In79  1  0.83749523  0.48915064  0.51211728  1
  In  In80  1  0.82952821  0.83536327  -0.00124026  1
  In  In81  1  0.49800267  0.49420151  0.49505459  1
  In  In82  1  0.00818873  -0.00543672  0.25463175  1
  In  In83  1  0.33373482  0.00065206  0.73567714  1
  In  In84  1  0.16436331  0.16869360  0.00472017  1
  In  In85  1  -0.00074539  0.66529139  0.74001566  1
  Cu  Cu86  1  0.33557854  0.33595385  -0.00055266  1
  Cu  Cu87  1  0.83358062  0.16772069  0.25055685  1
  Cu  Cu88  1  -0.00971263  0.32301035  -0.00437391  1
  Cu  Cu89  1  -0.00972453  0.01300058  0.50478461  1
  Cu  Cu90  1  0.50476799  0.49249977  0.75642050  1
  Cu  Cu91  1  0.17110275  0.16609134  0.25646504  1
  Cu  Cu92  1  0.66324210  0.66382754  0.00189517  1
  Cu  Cu93  1  0.34287856  0.66261077  0.01308312  1
  Cu  Cu94  1  0.83232769  0.49208702  0.24301983  1
  Cu  Cu95  1  0.17107504  0.49851858  0.74296540  1
  Cu  Cu96  1  0.16242333  0.49869950  0.25455768  1
  Cu  Cu97  1  -0.00359052  0.65702950  0.00621149  1
  Cu  Cu98  1  0.16864325  0.83055090  0.25986127  1
  Cu  Cu99  1  0.50103107  0.17245381  0.24949043  1
  Cu  Cu100  1  0.16188201  0.17688882  0.74354598  1
  Cu  Cu101  1  0.00601143  0.33665738  0.50225546  1
  Cu  Cu102  1  0.32999569  0.00063984  0.49779768  1
  Cu  Cu103  1  0.34348560  0.00033585  0.00724725  1
  Cu  Cu104  1  0.82862076  0.50117012  0.75677178  1
  Cu  Cu105  1  0.83357508  0.83776547  0.74869803  1
  Cu  Cu106  1  0.49777723  0.50409932  0.25372419  1
  Cu  Cu107  1  0.66177227  0.66492591  0.50094173  1
  Cu  Cu108  1  0.66146832  -0.00380743  0.50797507  1
  Cu  Cu109  1  0.33486171  0.32930279  0.49742408  1
  Cu  Cu110  1  0.67427723  0.01009055  -0.01024771  1
  Cu  Cu111  1  0.49797199  0.16729367  0.74844642  1
  Cu  Cu112  1  0.16908732  0.83659198  0.74290998  1
  Cu  Cu113  1  0.83212315  0.82092424  0.25101191  1
  Cu  Cu114  1  0.00423338  0.66672167  0.49271101  1
  Se  Se115  1  0.07646308  0.06974196  0.05907726  1
  Se  Se116  1  0.08116702  0.09129059  0.55490634  1
  Se  Se117  1  0.07562886  0.39938730  0.05737610  1
  Se  Se118  1  0.08941259  0.42387966  0.55108879  1
  Se  Se119  1  0.07982986  0.74389365  0.05701541  1
  Se  Se120  1  0.08037998  0.75675036  0.54602098  1
  Se  Se121  1  0.42099295  0.09379687  0.05497557  1
  Se  Se122  1  0.41621701  0.08133659  0.55140230  1
  Se  Se123  1  0.41287140  0.42173762  0.05546313  1
  Se  Se124  1  0.41468099  0.40661940  0.56123020  1
  Se  Se125  1  0.41621048  0.75180572  0.06899268  1
  Se  Se126  1  0.39959142  0.72416393  0.55143563  1
  Se  Se127  1  0.75956396  0.08833716  0.04512354  1
  Se  Se128  1  0.74496168  0.08292102  0.55689490  1
  Se  Se129  1  0.73148303  0.39705181  0.05066333  1
  Se  Se130  1  0.74033033  0.40342794  0.56537693  1
  Se  Se131  1  0.74520045  0.74340566  0.06218378  1
  Se  Se132  1  0.74366668  0.74780271  0.55852033  1
  Se  Se133  1  0.25592489  0.25821400  0.06322085  1
  Se  Se134  1  0.24989889  0.24701164  0.55065899  1
  Se  Se135  1  0.25341292  0.58656607  0.06626467  1
  Se  Se136  1  0.25419341  0.57999509  0.53855448  1
  Se  Se137  1  0.26606026  0.91544504  0.06488605  1
  Se  Se138  1  0.24477405  0.91696681  0.54960382  1
  Se  Se139  1  0.58400545  0.26143942  0.04255463  1
  Se  Se140  1  0.57137296  0.24243603  0.55418230  1
  Se  Se141  1  0.57791891  0.58859855  0.05967027  1
  Se  Se142  1  0.58975981  0.57778658  0.56125332  1
  Se  Se143  1  0.59916587  0.92928135  0.05525631  1
  Se  Se144  1  0.57853150  0.90530305  0.55218305  1
  Se  Se145  1  0.91449690  0.23863968  0.05370428  1
  Se  Se146  1  0.91866599  0.25878021  0.55659455  1
  Se  Se147  1  0.91281352  0.57334676  0.05617231  1
  Se  Se148  1  0.92831444  0.59297378  0.56062531  1
  Se  Se149  1  0.92700043  0.92326466  0.05505531  1
  Se  Se150  1  0.91030384  0.93539976  0.56816973  1
  Se  Se151  1  0.08693260  0.25006244  0.44910926  1
  Se  Se152  1  0.07757901  0.24979346  0.93695585  1
  Se  Se153  1  0.08633467  0.58031883  0.44314249  1
  Se  Se154  1  0.07843339  0.58697333  0.93976226  1
  Se  Se155  1  0.06899442  0.92509497  0.45093070  1
  Se  Se156  1  0.07770396  0.92666748  0.94075044  1
  Se  Se157  1  0.42113822  0.24679645  0.44620930  1
  Se  Se158  1  0.41336947  0.24852276  0.94555115  1
  Se  Se159  1  0.41374380  0.58375911  0.43280558  1
  Se  Se160  1  0.42333462  0.58453128  0.95462123  1
  Se  Se161  1  0.41474343  0.91606920  0.44628409  1
  Se  Se162  1  0.41962171  0.93126511  0.93699199  1
  Se  Se163  1  0.75839436  0.24979670  0.45477764  1
  Se  Se164  1  0.74875377  0.25043468  0.94738814  1
  Se  Se165  1  0.74775163  0.58196874  0.44806111  1
  Se  Se166  1  0.74801969  0.57972883  0.95083434  1
  Se  Se167  1  0.74210111  0.92511915  0.43948961  1
  Se  Se168  1  0.74793633  0.92215074  0.93205919  1
  Se  Se169  1  0.24795704  0.08854347  0.44772513  1
  Se  Se170  1  0.25840302  0.07608081  0.94590285  1
  Se  Se171  1  0.25184174  0.41512627  0.44619365  1
  Se  Se172  1  0.24890424  0.40771401  0.93786332  1
  Se  Se173  1  0.23279237  0.77012442  0.44112245  1
  Se  Se174  1  0.26711941  0.73870126  0.94679902  1
  Se  Se175  1  0.58058537  0.08132421  0.45249025  1
  Se  Se176  1  0.57822566  0.08802007  0.94521026  1
  Se  Se177  1  0.59815924  0.40120063  0.44600092  1
  Se  Se178  1  0.55561374  0.43591597  0.94214330  1
  Se  Se179  1  0.57860540  0.74672922  0.44781275  1
  Se  Se180  1  0.59250331  0.75050525  0.93997385  1
  Se  Se181  1  0.90816630  0.09578902  0.45095223  1
  Se  Se182  1  0.91990194  0.08239871  0.93452111  1
  Se  Se183  1  0.92462713  0.41453187  0.43947467  1
  Se  Se184  1  0.91253707  0.41786885  0.94950478  1
  Se  Se185  1  0.91285655  0.74005925  0.43764844  1
  Se  Se186  1  0.92355893  0.74021080  0.94202459  1
  Se  Se187  1  0.25343189  0.25251479  0.30786484  1
  Se  Se188  1  0.25031362  0.25442924  0.79698538  1
  Se  Se189  1  0.24823726  0.58140599  0.30572183  1
  Se  Se190  1  0.24760025  0.57313249  0.81104406  1
  Se  Se191  1  0.24992737  0.92143375  0.30662511  1
  Se  Se192  1  0.24694475  0.91273483  0.80804372  1
  Se  Se193  1  0.58649609  0.24365918  0.31145787  1
  Se  Se194  1  0.57929932  0.24934612  0.80550931  1
  Se  Se195  1  0.58649392  0.58553413  0.30278573  1
  Se  Se196  1  0.58583881  0.58168969  0.80633314  1
  Se  Se197  1  0.57941277  0.91732378  0.31511212  1
  Se  Se198  1  0.56410023  0.90011865  0.79343434  1
  Se  Se199  1  0.92049543  0.24805835  0.30197317  1
  Se  Se200  1  0.93192950  0.27882057  0.80580341  1
  Se  Se201  1  0.91412518  0.57770785  0.29793426  1
  Se  Se202  1  0.91550786  0.58297714  0.81159801  1
  Se  Se203  1  0.90783998  0.90612730  0.31087886  1
  Se  Se204  1  0.92166139  0.92109440  0.79607577  1
  Se  Se205  1  0.09012937  0.08569033  0.31767938  1
  Se  Se206  1  0.08604483  0.08525612  0.79529437  1
  Se  Se207  1  0.08087147  0.40939897  0.30438631  1
  Se  Se208  1  0.08057889  0.42081309  0.79364243  1
  Se  Se209  1  0.08026265  0.74512627  0.30507349  1
  Se  Se210  1  0.08827717  0.75726687  0.80501125  1
  Se  Se211  1  0.41983227  0.08881888  0.30428173  1
  Se  Se212  1  0.41435758  0.08625821  0.80768686  1
  Se  Se213  1  0.41965347  0.41127819  0.30192857  1
  Se  Se214  1  0.41210716  0.41326784  0.80363853  1
  Se  Se215  1  0.41494587  0.75464652  0.30194860  1
  Se  Se216  1  0.42478191  0.75071726  0.80524143  1
  Se  Se217  1  0.74950171  0.09052160  0.30907054  1
  Se  Se218  1  0.71670915  0.06473699  0.80847532  1
  Se  Se219  1  0.75797763  0.42063831  0.31404625  1
  Se  Se220  1  0.74748284  0.41725600  0.81069902  1
  Se  Se221  1  0.74290824  0.74320326  0.30243082  1
  Se  Se222  1  0.75431129  0.75016820  0.80112288  1
  Se  Se223  1  0.25471035  0.08179226  0.20423320  1
  Se  Se224  1  0.24360493  0.09665824  0.68328640  1
  Se  Se225  1  0.24854535  0.41445597  0.20322349  1
  Se  Se226  1  0.25620323  0.41837741  0.68983182  1
  Se  Se227  1  0.25176853  0.74696246  0.20558309  1
  Se  Se228  1  0.24771791  0.75418293  0.68604142  1
  Se  Se229  1  0.58690026  0.10246767  0.18548401  1
  Se  Se230  1  0.57511678  0.08130521  0.69226694  1
  Se  Se231  1  0.57430256  0.42419409  0.18836903  1
  Se  Se232  1  0.58959997  0.40793696  0.70486881  1
  Se  Se233  1  0.57069822  0.76443588  0.20573515  1
  Se  Se234  1  0.59781858  0.73243612  0.69338218  1
  Se  Se235  1  0.91159403  0.08022650  0.19424155  1
  Se  Se236  1  0.92509690  0.08937417  0.70200546  1
  Se  Se237  1  0.91546474  0.40652269  0.19254147  1
  Se  Se238  1  0.90830577  0.42630736  0.69403001  1
  Se  Se239  1  0.92062563  0.74174921  0.19939162  1
  Se  Se240  1  0.90953988  0.76031749  0.68290125  1
  Se  Se241  1  0.08280298  0.24259258  0.20176199  1
  Se  Se242  1  0.08230591  0.26240029  0.68958560  1
  Se  Se243  1  0.08006436  0.57963300  0.19696237  1
  Se  Se244  1  0.10202500  0.58814788  0.68213523  1
  Se  Se245  1  0.09514232  0.90576289  0.18891348  1
  Se  Se246  1  0.08413899  0.92205429  0.69514089  1
  Se  Se247  1  0.41875044  0.25686164  0.19563524  1
  Se  Se248  1  0.41262901  0.25260721  0.69936532  1
  Se  Se249  1  0.41029667  0.58749431  0.20316871  1
  Se  Se250  1  0.43053213  0.56907413  0.68778144  1
  Se  Se251  1  0.42800354  0.93436000  0.20209871  1
  Se  Se252  1  0.42220033  0.90122280  0.68647363  1
  Se  Se253  1  0.75399750  0.24420157  0.18811162  1
  Se  Se254  1  0.75019362  0.23539531  0.69884553  1
  Se  Se255  1  0.74406405  0.57618416  0.19457505  1
  Se  Se256  1  0.74634264  0.58672923  0.70478590  1
  Se  Se257  1  0.75794686  0.90502788  0.18960489  1
  Se  Se258  1  0.74570112  0.92143595  0.70009622  1
