# generated using pymatgen
data_In86Cu29Se144
_symmetry_space_group_name_H-M   'P 1'
_cell_length_a   17.58633553
_cell_length_b   17.58209947
_cell_length_c   23.44388114
_cell_angle_alpha   90.01693582
_cell_angle_beta   90.00704458
_cell_angle_gamma   90.00488743
_symmetry_Int_Tables_number   1
_chemical_formula_structural   In86Cu29Se144
_chemical_formula_sum   'In86 Cu29 Se144'
_cell_volume   7248.95785308
_cell_formula_units_Z   1
loop_
 _symmetry_equiv_pos_site_id
 _symmetry_equiv_pos_as_xyz
  1  'x, y, z'
loop_
 _atom_site_type_symbol
 _atom_site_label
 _atom_site_symmetry_multiplicity
 _atom_site_fract_x
 _atom_site_fract_y
 _atom_site_fract_z
 _atom_site_occupancy
  In  In0  1  0.01160808  0.18392227  0.10830505  1
  In  In1  1  0.00840783  0.17663179  0.62400460  1
  In  In2  1  -0.01892150  0.46731754  0.09231952  1
  In  In3  1  -0.02536830  0.50015357  0.62342626  1
  In  In4  1  -0.00860179  0.83702250  0.12286184  1
  In  In5  1  0.00426096  0.81778698  0.61574403  1
  In  In6  1  0.32462270  0.17443013  0.14514992  1
  In  In7  1  0.32916962  0.15849564  0.61430645  1
  In  In8  1  0.33057295  0.49887342  0.12998136  1
  In  In9  1  0.32605606  0.49257427  0.62215941  1
  In  In10  1  0.34323758  0.82699302  0.12976511  1
  In  In11  1  0.34111075  0.84220901  0.61349086  1
  In  In12  1  0.67401814  0.15885794  0.13269410  1
  In  In13  1  0.67008290  0.16429419  0.62151136  1
  In  In14  1  0.67340360  0.48724621  0.12779796  1
  In  In15  1  0.67996073  0.48355376  0.63260720  1
  In  In16  1  0.67257884  0.84922888  0.11254683  1
  In  In17  1  0.65879250  0.84284942  0.63129498  1
  In  In18  1  0.17303102  -0.00567872  0.37573134  1
  In  In19  1  0.17343743  0.00777615  0.87655893  1
  In  In20  1  0.15314082  0.32836882  0.36986137  1
  In  In21  1  0.13483461  0.36378596  0.92206990  1
  In  In22  1  0.17827310  0.66611136  0.37001341  1
  In  In23  1  0.14693589  0.65726242  0.87817355  1
  In  In24  1  0.49764704  0.00678599  0.36587966  1
  In  In25  1  0.49953838  -0.01188301  0.88128186  1
  In  In26  1  0.48663564  0.31216735  0.35474801  1
  In  In27  1  0.50353362  0.32271209  0.87575822  1
  In  In28  1  0.49973474  0.67681529  0.37795753  1
  In  In29  1  0.51652523  0.66086741  0.87749062  1
  In  In30  1  0.84115861  0.01643311  0.37025889  1
  In  In31  1  0.81363453  0.01603700  0.88862852  1
  In  In32  1  0.83028779  0.33364805  0.36935645  1
  In  In33  1  0.82996273  0.33492416  0.87592298  1
  In  In34  1  0.82425800  0.66019665  0.37791446  1
  In  In35  1  0.82660292  0.67877449  0.89151173  1
  In  In36  1  -0.01272472  0.18140611  0.38508123  1
  In  In37  1  -0.02386047  0.19534967  0.90142015  1
  In  In38  1  -0.00214135  0.48566670  0.37183287  1
  In  In39  1  -0.00402966  0.49949493  0.89325279  1
  In  In40  1  -0.00111733  0.84898532  0.37671215  1
  In  In41  1  -0.01558079  0.82331007  0.87694303  1
  In  In42  1  0.33213238  0.16174263  0.37018753  1
  In  In43  1  0.32905024  0.16833962  0.88568765  1
  In  In44  1  0.32656446  0.49970361  0.36173526  1
  In  In45  1  0.31616625  0.49050523  0.88221895  1
  In  In46  1  0.33874667  0.83622186  0.36884509  1
  In  In47  1  0.33451882  0.85018166  0.87901457  1
  In  In48  1  0.66844254  0.16765881  0.36567059  1
  In  In49  1  0.66659337  0.17304088  0.86661471  1
  In  In50  1  0.68186856  0.48505229  0.38113361  1
  In  In51  1  0.67591899  0.50608128  0.87115167  1
  In  In52  1  0.65097418  0.83294720  0.37752489  1
  In  In53  1  0.66781947  0.83287229  0.87636357  1
  In  In54  1  0.16847690  0.01693479  0.12824261  1
  In  In55  1  0.17355243  0.00441357  0.61737125  1
  In  In56  1  0.16624960  0.32928775  0.12311548  1
  In  In57  1  0.16740059  0.32233721  0.62577362  1
  In  In58  1  0.17793211  0.66279248  0.12660123  1
  In  In59  1  0.13817962  0.66758910  0.61666907  1
  In  In60  1  0.51480143  -0.00379029  0.13789440  1
  In  In61  1  0.50781132  0.00530366  0.61447763  1
  In  In62  1  0.50445753  0.32106748  0.14575887  1
  In  In63  1  0.51666998  0.33097511  0.62106318  1
  In  In64  1  0.48728375  0.67215501  0.12675458  1
  In  In65  1  0.50198606  0.68171084  0.62265270  1
  In  In66  1  0.82240467  0.00358581  0.11551819  1
  In  In67  1  0.81586119  -0.00066445  0.62658207  1
  In  In68  1  0.83769700  0.33380125  0.11720374  1
  In  In69  1  0.83041877  0.33074626  0.62454322  1
  In  In70  1  0.83621783  0.65204105  0.11431704  1
  In  In71  1  0.83808045  0.65152863  0.62603742  1
  In  In72  1  -0.00085648  0.00924894  0.24304302  1
  In  In73  1  0.50836312  0.49749891  0.49575716  1
  In  In74  1  0.33878060  0.67089808  0.74324654  1
  In  In75  1  0.83453297  0.83475167  0.50201170  1
  In  In76  1  -0.00826843  0.65852615  0.75251750  1
  In  In77  1  0.49957217  0.16481936  0.00908742  1
  In  In78  1  0.16550166  0.83398745  -0.00574044  1
  In  In79  1  -0.00150749  0.00455063  0.75267823  1
  In  In80  1  0.00480963  0.65765071  0.24819185  1
  In  In81  1  0.49694714  0.49851450  0.01303904  1
  In  In82  1  0.34043391  0.32668694  0.75773535  1
  In  In83  1  0.16147983  0.50398694  0.49522239  1
  In  In84  1  0.34164358  0.00847076  0.74883161  1
  In  In85  1  0.66139937  0.66160467  0.24637403  1
  Cu  Cu86  1  0.50722329  0.16520232  0.74393286  1
  Cu  Cu87  1  0.33308217  0.67620098  0.49582788  1
  Cu  Cu88  1  -0.00629973  0.33445191  0.49916149  1
  Cu  Cu89  1  0.50998819  0.83046446  0.75431402  1
  Cu  Cu90  1  0.83711094  0.17407652  0.24395111  1
  Cu  Cu91  1  0.67033366  0.32125002  0.49558821  1
  Cu  Cu92  1  0.33811637  0.67013154  0.00168132  1
  Cu  Cu93  1  0.83314969  0.49123736  0.75301050  1
  Cu  Cu94  1  0.82400931  0.83281366  0.75513693  1
  Cu  Cu95  1  0.83175915  0.17046658  0.75438834  1
  Cu  Cu96  1  0.15880290  0.17085544  0.25349268  1
  Cu  Cu97  1  0.16332322  0.49207475  0.24196847  1
  Cu  Cu98  1  -0.00913784  -0.00234421  0.00341943  1
  Cu  Cu99  1  0.17462824  0.83284021  0.25061566  1
  Cu  Cu100  1  0.50893254  0.50072060  0.75066063  1
  Cu  Cu101  1  0.66858852  0.66326453  0.50262491  1
  Cu  Cu102  1  0.49965711  0.83616513  0.25069436  1
  Cu  Cu103  1  0.33544677  0.32479425  0.49153159  1
  Cu  Cu104  1  0.15870747  0.49064310  0.76336839  1
  Cu  Cu105  1  0.33753054  0.00053584  0.00976271  1
  Cu  Cu106  1  0.16625574  0.83065035  0.73860202  1
  Cu  Cu107  1  0.00583249  0.00837425  0.50020403  1
  Cu  Cu108  1  0.33764938  -0.00124410  0.49055054  1
  Cu  Cu109  1  0.49954146  0.50470187  0.25106843  1
  Cu  Cu110  1  0.66854834  0.33716375  -0.00053154  1
  Cu  Cu111  1  0.15758869  0.18055122  0.75628243  1
  Cu  Cu112  1  0.82212246  0.83325198  0.24164376  1
  Cu  Cu113  1  0.66481899  0.67329902  0.00071429  1
  Cu  Cu114  1  0.66556008  0.00177801  0.49484501  1
  Se  Se115  1  0.08250585  0.07690531  0.05169241  1
  Se  Se116  1  0.08810002  0.09083436  0.55509712  1
  Se  Se117  1  0.09971996  0.41039864  0.04276050  1
  Se  Se118  1  0.07713355  0.41403978  0.56100403  1
  Se  Se119  1  0.08457162  0.74988000  0.06303046  1
  Se  Se120  1  0.09167370  0.75945474  0.54010965  1
  Se  Se121  1  0.41055739  0.08090857  0.07286832  1
  Se  Se122  1  0.41796421  0.08200024  0.54786882  1
  Se  Se123  1  0.41775335  0.40001538  0.07166324  1
  Se  Se124  1  0.41134438  0.40614923  0.55475492  1
  Se  Se125  1  0.42084504  0.75627115  0.05036630  1
  Se  Se126  1  0.42241171  0.75462734  0.54772767  1
  Se  Se127  1  0.73453892  0.08400996  0.05023312  1
  Se  Se128  1  0.75084921  0.08136270  0.54945642  1
  Se  Se129  1  0.75285876  0.42224636  0.04925788  1
  Se  Se130  1  0.74695749  0.40995897  0.55140967  1
  Se  Se131  1  0.75253402  0.74822287  0.05699866  1
  Se  Se132  1  0.74585215  0.74531061  0.56455547  1
  Se  Se133  1  0.24333036  0.22946931  0.06408812  1
  Se  Se134  1  0.24946042  0.25102683  0.55109023  1
  Se  Se135  1  0.25998438  0.58426367  0.05502488  1
  Se  Se136  1  0.25544741  0.59439774  0.55751244  1
  Se  Se137  1  0.25035660  0.91744186  0.06375219  1
  Se  Se138  1  0.25241566  0.92019793  0.54800060  1
  Se  Se139  1  0.59077553  0.26069151  0.06280016  1
  Se  Se140  1  0.58360974  0.24257403  0.54965511  1
  Se  Se141  1  0.59164549  0.59276932  0.06668196  1
  Se  Se142  1  0.59025188  0.58217561  0.56527291  1
  Se  Se143  1  0.57647179  0.92658214  0.05316428  1
  Se  Se144  1  0.58773962  0.91412980  0.54974677  1
  Se  Se145  1  0.91615102  0.25378964  0.04315444  1
  Se  Se146  1  0.91585267  0.24923912  0.55613358  1
  Se  Se147  1  0.93179322  0.59070181  0.04547630  1
  Se  Se148  1  0.93448665  0.60288946  0.55233098  1
  Se  Se149  1  0.90776646  0.91253095  0.05314473  1
  Se  Se150  1  0.92452294  0.92818388  0.56256843  1
  Se  Se151  1  0.08457313  0.25331419  0.45065992  1
  Se  Se152  1  0.10828893  0.22174934  0.94273391  1
  Se  Se153  1  0.07535644  0.59107016  0.43200509  1
  Se  Se154  1  0.09082952  0.57674708  0.95680294  1
  Se  Se155  1  0.08422521  0.92145383  0.44722288  1
  Se  Se156  1  0.07117418  0.92543535  0.93637627  1
  Se  Se157  1  0.41991795  0.24386219  0.43912450  1
  Se  Se158  1  0.41078291  0.26103628  0.95081731  1
  Se  Se159  1  0.40672341  0.58317178  0.43996746  1
  Se  Se160  1  0.41333572  0.58420771  0.94040447  1
  Se  Se161  1  0.42318448  0.91773731  0.43756763  1
  Se  Se162  1  0.41747865  0.91538929  0.95555142  1
  Se  Se163  1  0.75521542  0.24403676  0.43919102  1
  Se  Se164  1  0.74228457  0.25030153  0.94212929  1
  Se  Se165  1  0.75044959  0.57821431  0.45153134  1
  Se  Se166  1  0.74517585  0.58230655  0.95078625  1
  Se  Se167  1  0.75025048  0.92195131  0.43541276  1
  Se  Se168  1  0.76489493  0.89938242  0.94335539  1
  Se  Se169  1  0.25004138  0.08404637  0.44299864  1
  Se  Se170  1  0.25394349  0.07765165  0.95277790  1
  Se  Se171  1  0.25465592  0.41250378  0.43822202  1
  Se  Se172  1  0.26395567  0.41002490  0.96269710  1
  Se  Se173  1  0.25176461  0.75519994  0.43858776  1
  Se  Se174  1  0.25661957  0.74103722  0.93387425  1
  Se  Se175  1  0.58729522  0.08293265  0.43601131  1
  Se  Se176  1  0.58499886  0.08440270  0.93939462  1
  Se  Se177  1  0.58342131  0.39762867  0.43648273  1
  Se  Se178  1  0.58397787  0.41711116  0.94259552  1
  Se  Se179  1  0.58369878  0.74660352  0.45233632  1
  Se  Se180  1  0.57986637  0.75371860  0.94770155  1
  Se  Se181  1  0.91439684  0.08528123  0.45027017  1
  Se  Se182  1  0.90813727  0.08619733  0.95546415  1
  Se  Se183  1  0.91171517  0.41568619  0.44411283  1
  Se  Se184  1  0.92071841  0.39761233  0.95063381  1
  Se  Se185  1  0.92050049  0.74762476  0.43707173  1
  Se  Se186  1  0.93609514  0.73315271  0.95352214  1
  Se  Se187  1  0.24659466  0.25141992  0.30616855  1
  Se  Se188  1  0.24295227  0.25133637  0.81854801  1
  Se  Se189  1  0.24231228  0.58139304  0.29391123  1
  Se  Se190  1  0.24418790  0.58312551  0.80730424  1
  Se  Se191  1  0.25447092  0.92125549  0.30126099  1
  Se  Se192  1  0.24213318  0.91277231  0.80010770  1
  Se  Se193  1  0.60903535  0.27364435  0.30201425  1
  Se  Se194  1  0.58239436  0.25554181  0.79761975  1
  Se  Se195  1  0.57995315  0.57627904  0.31754225  1
  Se  Se196  1  0.59080518  0.58695425  0.80125898  1
  Se  Se197  1  0.58582422  0.91775816  0.30256967  1
  Se  Se198  1  0.58538972  0.91983598  0.80767371  1
  Se  Se199  1  0.92028130  0.25131016  0.30248594  1
  Se  Se200  1  0.91692799  0.24924732  0.80908758  1
  Se  Se201  1  0.90742263  0.57624197  0.30792654  1
  Se  Se202  1  0.90582339  0.57433857  0.81799649  1
  Se  Se203  1  0.90763597  0.91151061  0.29946783  1
  Se  Se204  1  0.90652941  0.91537324  0.81096621  1
  Se  Se205  1  0.07939656  0.08983697  0.31541978  1
  Se  Se206  1  0.08312227  0.09385978  0.81495741  1
  Se  Se207  1  0.07897833  0.41325939  0.29768090  1
  Se  Se208  1  0.08032340  0.41450817  0.82430969  1
  Se  Se209  1  0.08489518  0.76102164  0.30789683  1
  Se  Se210  1  0.08741310  0.75721944  0.80396223  1
  Se  Se211  1  0.42865277  0.10266841  0.29681476  1
  Se  Se212  1  0.42784903  0.09667706  0.81322869  1
  Se  Se213  1  0.41317234  0.41708480  0.29775661  1
  Se  Se214  1  0.42473951  0.42956666  0.81405168  1
  Se  Se215  1  0.41946456  0.74606950  0.30151135  1
  Se  Se216  1  0.42062793  0.75788586  0.81320446  1
  Se  Se217  1  0.75716806  0.08543248  0.29706161  1
  Se  Se218  1  0.74900528  0.08208909  0.80262645  1
  Se  Se219  1  0.75154225  0.41968525  0.29985127  1
  Se  Se220  1  0.74485045  0.41092718  0.80365026  1
  Se  Se221  1  0.75019779  0.75604563  0.30821655  1
  Se  Se222  1  0.75022200  0.74301707  0.80966246  1
  Se  Se223  1  0.24422376  0.08094980  0.20909606  1
  Se  Se224  1  0.23864859  0.09751150  0.69682375  1
  Se  Se225  1  0.25154873  0.40808506  0.19476158  1
  Se  Se226  1  0.24381698  0.41967538  0.69978504  1
  Se  Se227  1  0.25460386  0.74744723  0.19715891  1
  Se  Se228  1  0.24535146  0.75152290  0.67881637  1
  Se  Se229  1  0.57983985  0.09561652  0.20268766  1
  Se  Se230  1  0.58559674  0.07905347  0.69046688  1
  Se  Se231  1  0.58551981  0.42115424  0.20111877  1
  Se  Se232  1  0.58482115  0.41015898  0.69839558  1
  Se  Se233  1  0.58162528  0.76066376  0.18744964  1
  Se  Se234  1  0.58799395  0.74540884  0.69853534  1
  Se  Se235  1  0.91424308  0.09551142  0.17892020  1
  Se  Se236  1  0.90915243  0.09110335  0.68943579  1
  Se  Se237  1  0.92371314  0.41699765  0.18411499  1
  Se  Se238  1  0.91541072  0.41029490  0.69757892  1
  Se  Se239  1  0.90778533  0.74936523  0.19143552  1
  Se  Se240  1  0.90780351  0.75900330  0.69302134  1
  Se  Se241  1  0.07897821  0.24943083  0.19384698  1
  Se  Se242  1  0.07685728  0.26151512  0.70047271  1
  Se  Se243  1  0.08352895  0.57082722  0.18071699  1
  Se  Se244  1  0.08603642  0.56821915  0.69362884  1
  Se  Se245  1  0.09089673  0.90981467  0.19014317  1
  Se  Se246  1  0.08451231  0.91455990  0.68469002  1
  Se  Se247  1  0.42858458  0.23100610  0.21275598  1
  Se  Se248  1  0.41980735  0.24093737  0.68557103  1
  Se  Se249  1  0.41516584  0.58498696  0.19679887  1
  Se  Se250  1  0.42605848  0.57117796  0.68600163  1
  Se  Se251  1  0.41525342  0.91886545  0.19807300  1
  Se  Se252  1  0.42756386  0.91010409  0.69284308  1
  Se  Se253  1  0.75426718  0.25661669  0.19037792  1
  Se  Se254  1  0.74831909  0.24701714  0.69386942  1
  Se  Se255  1  0.76099134  0.57523103  0.19453900  1
  Se  Se256  1  0.75381256  0.57865335  0.69837107  1
  Se  Se257  1  0.74613859  0.92372266  0.19144630  1
  Se  Se258  1  0.74436951  0.91934345  0.70207474  1
