# generated using pymatgen
data_In86Cu29Se144
_symmetry_space_group_name_H-M   'P 1'
_cell_length_a   17.57899850
_cell_length_b   17.57882045
_cell_length_c   23.43554958
_cell_angle_alpha   89.98825210
_cell_angle_beta   90.00945176
_cell_angle_gamma   90.02857196
_symmetry_Int_Tables_number   1
_chemical_formula_structural   In86Cu29Se144
_chemical_formula_sum   'In86 Cu29 Se144'
_cell_volume   7242.00687738
_cell_formula_units_Z   1
loop_
 _symmetry_equiv_pos_site_id
 _symmetry_equiv_pos_as_xyz
  1  'x, y, z'
loop_
 _atom_site_type_symbol
 _atom_site_label
 _atom_site_symmetry_multiplicity
 _atom_site_fract_x
 _atom_site_fract_y
 _atom_site_fract_z
 _atom_site_occupancy
  In  In0  1  -0.00714181  0.17562141  0.13230745  1
  In  In1  1  0.01295819  0.18325818  0.60887682  1
  In  In2  1  0.01863600  0.49011042  0.14464120  1
  In  In3  1  -0.00787286  0.50623742  0.62624870  1
  In  In4  1  0.01849609  0.81817992  0.14098577  1
  In  In5  1  -0.00164960  0.82195911  0.62418324  1
  In  In6  1  0.34229523  0.17858797  0.12944405  1
  In  In7  1  0.33361110  0.16861616  0.62442101  1
  In  In8  1  0.32631590  0.49460448  0.12215090  1
  In  In9  1  0.33067934  0.48368258  0.62336858  1
  In  In10  1  0.31731355  0.84087193  0.11876682  1
  In  In11  1  0.33242382  0.84708397  0.62441446  1
  In  In12  1  0.67189260  0.16052227  0.12018692  1
  In  In13  1  0.66803540  0.17254941  0.62448321  1
  In  In14  1  0.66789990  0.50906380  0.12099089  1
  In  In15  1  0.66691617  0.49948451  0.62405843  1
  In  In16  1  0.65809388  0.82839627  0.12506637  1
  In  In17  1  0.67125057  0.83280939  0.63554169  1
  In  In18  1  0.16227793  0.00675481  0.37869810  1
  In  In19  1  0.16876673  -0.01181095  0.87650955  1
  In  In20  1  0.14879050  0.31836388  0.36180388  1
  In  In21  1  0.17469250  0.34096000  0.86766891  1
  In  In22  1  0.16347194  0.67490233  0.37224770  1
  In  In23  1  0.15707688  0.66808943  0.88060569  1
  In  In24  1  0.50819024  0.00577656  0.37861296  1
  In  In25  1  0.50164527  0.00399612  0.86609090  1
  In  In26  1  0.49648923  0.33474164  0.37933363  1
  In  In27  1  0.50225529  0.33636717  0.86790590  1
  In  In28  1  0.50046505  0.63961426  0.36994798  1
  In  In29  1  0.49818953  0.65155372  0.87571100  1
  In  In30  1  0.84570236  0.00113130  0.37537468  1
  In  In31  1  0.82992438  0.01549043  0.87762409  1
  In  In32  1  0.85319785  0.33027570  0.39223484  1
  In  In33  1  0.82742642  0.32824098  0.86657180  1
  In  In34  1  0.82567751  0.65783837  0.37058866  1
  In  In35  1  0.83435208  0.66633875  0.86639540  1
  In  In36  1  0.00269656  0.17078056  0.38037263  1
  In  In37  1  -0.01270606  0.16811827  0.87507782  1
  In  In38  1  -0.00918999  0.48594446  0.36300461  1
  In  In39  1  0.00463654  0.50546130  0.87103072  1
  In  In40  1  0.01418131  0.84036352  0.36115705  1
  In  In41  1  0.01306982  0.82849026  0.87737806  1
  In  In42  1  0.33051559  0.17274357  0.37799799  1
  In  In43  1  0.33385697  0.16970950  0.86324846  1
  In  In44  1  0.34708449  0.49051919  0.37423102  1
  In  In45  1  0.33819691  0.48992063  0.88193179  1
  In  In46  1  0.31681361  0.82890972  0.37453361  1
  In  In47  1  0.32171682  0.83555392  0.87709313  1
  In  In48  1  0.66518797  0.17496942  0.38973342  1
  In  In49  1  0.66901105  0.17150929  0.86675195  1
  In  In50  1  0.66381831  0.50090029  0.38163894  1
  In  In51  1  0.65756111  0.49030757  0.86663024  1
  In  In52  1  0.67632028  0.82822583  0.37416874  1
  In  In53  1  0.67065416  0.83659409  0.86608913  1
  In  In54  1  0.16716350  -0.02181222  0.12347563  1
  In  In55  1  0.17155802  0.00898509  0.61868242  1
  In  In56  1  0.16303446  0.34304529  0.13868405  1
  In  In57  1  0.17231846  0.32968337  0.63014839  1
  In  In58  1  0.16499525  0.66115921  0.12518189  1
  In  In59  1  0.15037734  0.66345744  0.61963437  1
  In  In60  1  0.49770765  0.00481087  0.12321182  1
  In  In61  1  0.48915412  0.01356699  0.63344415  1
  In  In62  1  0.47975823  0.33763534  0.13439851  1
  In  In63  1  0.50044433  0.33396259  0.62290317  1
  In  In64  1  0.51212668  0.66180036  0.12407659  1
  In  In65  1  0.51233698  0.66567954  0.62371597  1
  In  In66  1  0.83855466  0.01843046  0.12006630  1
  In  In67  1  0.82245685  0.00862544  0.62939876  1
  In  In68  1  0.84480348  0.33358575  0.12611113  1
  In  In69  1  0.83559978  0.33267546  0.62360423  1
  In  In70  1  0.83483274  0.66741722  0.13055396  1
  In  In71  1  0.83835323  0.66088205  0.63018406  1
  In  In72  1  0.50016485  0.17004186  0.00260856  1
  In  In73  1  0.32760161  0.00277991  0.25106091  1
  In  In74  1  -0.00107452  0.00007833  0.75495607  1
  In  In75  1  0.16555126  0.16461369  -0.00281002  1
  In  In76  1  0.33117292  0.66677714  0.75530137  1
  In  In77  1  0.49715313  0.83349528  0.50173157  1
  In  In78  1  0.16467968  0.49190175  0.49426884  1
  In  In79  1  0.49607023  0.83589666  0.00459385  1
  In  In80  1  0.66417173  0.33847501  0.25946450  1
  In  In81  1  0.83882955  0.50060224  0.00196081  1
  In  In82  1  0.66857746  -0.00066544  0.24223211  1
  In  In83  1  0.83968488  0.84031623  -0.00600917  1
  In  In84  1  0.83791941  0.83574390  0.50024552  1
  In  In85  1  0.33170298  0.66045928  0.24751269  1
  Cu  Cu86  1  0.83403682  0.82996717  0.74974652  1
  Cu  Cu87  1  0.67043372  0.33622279  0.50552519  1
  Cu  Cu88  1  0.33226315  0.66198310  0.49112833  1
  Cu  Cu89  1  0.33585788  0.32673004  0.50138178  1
  Cu  Cu90  1  0.16785004  0.16728352  0.74253714  1
  Cu  Cu91  1  0.83533821  0.83098176  0.25261880  1
  Cu  Cu92  1  0.66499283  0.66409626  -0.00297767  1
  Cu  Cu93  1  0.00099968  -0.00142730  0.00204034  1
  Cu  Cu94  1  0.66609807  0.66108329  0.49876607  1
  Cu  Cu95  1  0.16164879  0.16433276  0.25253972  1
  Cu  Cu96  1  -0.00276668  0.67074743  0.49777242  1
  Cu  Cu97  1  0.66093892  0.00615425  0.50802297  1
  Cu  Cu98  1  0.32810418  0.00385226  0.50190898  1
  Cu  Cu99  1  0.49815176  0.82345827  0.24758425  1
  Cu  Cu100  1  0.50388596  0.17127807  0.74437938  1
  Cu  Cu101  1  0.16632712  0.83114582  0.75275720  1
  Cu  Cu102  1  0.66350579  0.33067074  -0.00971395  1
  Cu  Cu103  1  0.83354932  0.16974253  0.25650107  1
  Cu  Cu104  1  0.00035823  0.33358739  0.00738700  1
  Cu  Cu105  1  0.50209279  0.83662589  0.74715040  1
  Cu  Cu106  1  0.82932486  0.49896240  0.74670899  1
  Cu  Cu107  1  0.83348875  0.50029156  0.25021369  1
  Cu  Cu108  1  0.01041427  0.65991626  0.00705217  1
  Cu  Cu109  1  0.16147548  0.49801095  0.74663731  1
  Cu  Cu110  1  0.32749921  0.66272299  -0.00272576  1
  Cu  Cu111  1  0.83435646  0.17083384  0.74640595  1
  Cu  Cu112  1  0.32847037  0.33965784  0.00099033  1
  Cu  Cu113  1  0.50011676  0.49861851  0.74870637  1
  Cu  Cu114  1  0.00203180  0.00360314  0.49567136  1
  Se  Se115  1  0.07785722  0.08135673  0.06364430  1
  Se  Se116  1  0.08836326  0.08587121  0.54786073  1
  Se  Se117  1  0.08284977  0.41520327  0.06178207  1
  Se  Se118  1  0.07919596  0.41252905  0.56354082  1
  Se  Se119  1  0.08787997  0.75249646  0.05655692  1
  Se  Se120  1  0.08256984  0.75466415  0.54817696  1
  Se  Se121  1  0.40253598  0.07828216  0.05605064  1
  Se  Se122  1  0.41563190  0.08406441  0.55388103  1
  Se  Se123  1  0.41762634  0.41738544  0.05363764  1
  Se  Se124  1  0.41754410  0.41588768  0.55085333  1
  Se  Se125  1  0.40646056  0.74002062  0.06212515  1
  Se  Se126  1  0.40620726  0.74051001  0.56002535  1
  Se  Se127  1  0.74963064  0.08390831  0.04845120  1
  Se  Se128  1  0.75135865  0.08845145  0.55405844  1
  Se  Se129  1  0.74421980  0.40622506  0.05631252  1
  Se  Se130  1  0.75438996  0.42150648  0.55586994  1
  Se  Se131  1  0.74725875  0.74553932  0.05387500  1
  Se  Se132  1  0.74374036  0.74648613  0.55781232  1
  Se  Se133  1  0.25091946  0.25623079  0.05997435  1
  Se  Se134  1  0.24771858  0.24945012  0.55561378  1
  Se  Se135  1  0.24630685  0.58091564  0.05454989  1
  Se  Se136  1  0.25357804  0.58519830  0.55778877  1
  Se  Se137  1  0.25338570  0.92501476  0.04408907  1
  Se  Se138  1  0.24618223  0.91514208  0.55113277  1
  Se  Se139  1  0.58671477  0.26289954  0.06325007  1
  Se  Se140  1  0.58317683  0.25092167  0.55401815  1
  Se  Se141  1  0.58134503  0.57933449  0.04729029  1
  Se  Se142  1  0.58112154  0.57897842  0.55166235  1
  Se  Se143  1  0.59415142  0.92950730  0.05622952  1
  Se  Se144  1  0.58560865  0.91978705  0.56560580  1
  Se  Se145  1  0.91427518  0.24642546  0.05328761  1
  Se  Se146  1  0.90265884  0.24054973  0.55228295  1
  Se  Se147  1  0.92866203  0.58242666  0.06709450  1
  Se  Se148  1  0.91543139  0.58883983  0.55283966  1
  Se  Se149  1  0.92611435  0.91599734  0.06510399  1
  Se  Se150  1  0.92362848  0.92870243  0.56247375  1
  Se  Se151  1  0.08373291  0.25698334  0.44742508  1
  Se  Se152  1  0.07694330  0.25851071  0.93982196  1
  Se  Se153  1  0.07617547  0.58752735  0.43865486  1
  Se  Se154  1  0.08555759  0.57429285  0.94888166  1
  Se  Se155  1  0.08088467  0.91486956  0.44328583  1
  Se  Se156  1  0.08393587  0.91518544  0.94931724  1
  Se  Se157  1  0.42116265  0.24471528  0.44804104  1
  Se  Se158  1  0.40748690  0.25685992  0.94100194  1
  Se  Se159  1  0.41998568  0.57524220  0.44892451  1
  Se  Se160  1  0.41582297  0.58019244  0.94912326  1
  Se  Se161  1  0.40574894  0.92246179  0.43886552  1
  Se  Se162  1  0.41346924  0.92488902  0.93928888  1
  Se  Se163  1  0.75562407  0.25280842  0.45342077  1
  Se  Se164  1  0.75009877  0.24871436  0.94096485  1
  Se  Se165  1  0.75443046  0.58068947  0.44845709  1
  Se  Se166  1  0.74704496  0.58434982  0.93807598  1
  Se  Se167  1  0.74024951  0.92723194  0.44509481  1
  Se  Se168  1  0.73965465  0.92595295  0.94202858  1
  Se  Se169  1  0.24814568  0.08755835  0.44545404  1
  Se  Se170  1  0.25917568  0.08057708  0.93702531  1
  Se  Se171  1  0.25632481  0.40225692  0.43693485  1
  Se  Se172  1  0.24116225  0.41909086  0.94791476  1
  Se  Se173  1  0.24422335  0.74830641  0.44891524  1
  Se  Se174  1  0.24635596  0.74929942  0.94610611  1
  Se  Se175  1  0.57822167  0.08765048  0.45303674  1
  Se  Se176  1  0.58698451  0.08305788  0.93911444  1
  Se  Se177  1  0.58467109  0.41314701  0.44788559  1
  Se  Se178  1  0.57843501  0.41671560  0.94290383  1
  Se  Se179  1  0.58560619  0.74360239  0.43978407  1
  Se  Se180  1  0.58621029  0.74895480  0.93931770  1
  Se  Se181  1  0.91451545  0.08684493  0.44768767  1
  Se  Se182  1  0.91878314  0.08346673  0.95011873  1
  Se  Se183  1  0.92787573  0.42876439  0.45184751  1
  Se  Se184  1  0.92163718  0.40808377  0.93993326  1
  Se  Se185  1  0.92054958  0.75011691  0.43335954  1
  Se  Se186  1  0.92657194  0.73480425  0.94439256  1
  Se  Se187  1  0.25106309  0.24580135  0.30208662  1
  Se  Se188  1  0.24922528  0.25274350  0.79804048  1
  Se  Se189  1  0.24829451  0.57457765  0.31415638  1
  Se  Se190  1  0.24151276  0.57448687  0.81212249  1
  Se  Se191  1  0.23456823  0.91016960  0.30378122  1
  Se  Se192  1  0.25106635  0.91734725  0.80060858  1
  Se  Se193  1  0.57894265  0.23790525  0.31135989  1
  Se  Se194  1  0.58537417  0.25476688  0.79994603  1
  Se  Se195  1  0.60018164  0.58392095  0.30312326  1
  Se  Se196  1  0.58255939  0.58477369  0.80053884  1
  Se  Se197  1  0.57759489  0.90810359  0.30622686  1
  Se  Se198  1  0.58644965  0.92032828  0.80000841  1
  Se  Se199  1  0.91646711  0.25228199  0.31046472  1
  Se  Se200  1  0.91987684  0.25202769  0.79982828  1
  Se  Se201  1  0.91714102  0.58581943  0.30178179  1
  Se  Se202  1  0.91570415  0.57989558  0.80140025  1
  Se  Se203  1  0.91633043  0.91955838  0.30151346  1
  Se  Se204  1  0.90917330  0.90854416  0.81608724  1
  Se  Se205  1  0.07853163  0.08407991  0.30793789  1
  Se  Se206  1  0.09290016  0.09193974  0.81206868  1
  Se  Se207  1  0.09285621  0.42456673  0.29896589  1
  Se  Se208  1  0.07934968  0.41467920  0.80257835  1
  Se  Se209  1  0.08149793  0.74198074  0.29651377  1
  Se  Se210  1  0.08263766  0.74530955  0.80256213  1
  Se  Se211  1  0.42323833  0.08696055  0.30868972  1
  Se  Se212  1  0.41966102  0.08707704  0.79806169  1
  Se  Se213  1  0.43385856  0.42082598  0.30313840  1
  Se  Se214  1  0.41335579  0.41863922  0.80276857  1
  Se  Se215  1  0.42053288  0.75136574  0.31392873  1
  Se  Se216  1  0.42486765  0.75858581  0.81252230  1
  Se  Se217  1  0.74916266  0.08791917  0.31242592  1
  Se  Se218  1  0.75230376  0.08461521  0.79951229  1
  Se  Se219  1  0.76369703  0.41859027  0.31725780  1
  Se  Se220  1  0.74646845  0.41414684  0.79977254  1
  Se  Se221  1  0.74827793  0.74730516  0.30074109  1
  Se  Se222  1  0.74715421  0.74612785  0.80014444  1
  Se  Se223  1  0.23983828  0.09048069  0.18548594  1
  Se  Se224  1  0.25205018  0.08126178  0.69394933  1
  Se  Se225  1  0.26811072  0.40618491  0.19857308  1
  Se  Se226  1  0.25115846  0.41527105  0.70028526  1
  Se  Se227  1  0.24424784  0.75918316  0.19437708  1
  Se  Se228  1  0.24350684  0.75153261  0.68831779  1
  Se  Se229  1  0.57347285  0.09568807  0.19304462  1
  Se  Se230  1  0.58890085  0.08497856  0.69477265  1
  Se  Se231  1  0.58252286  0.42312396  0.19008954  1
  Se  Se232  1  0.58269477  0.41679639  0.69317877  1
  Se  Se233  1  0.58738746  0.74381488  0.19796417  1
  Se  Se234  1  0.58311346  0.74782565  0.69832537  1
  Se  Se235  1  0.91365473  0.08608911  0.20018533  1
  Se  Se236  1  0.92084577  0.09186186  0.68901323  1
  Se  Se237  1  0.91682798  0.41222614  0.20120044  1
  Se  Se238  1  0.91565481  0.41745299  0.69457558  1
  Se  Se239  1  0.91791112  0.74519637  0.20061517  1
  Se  Se240  1  0.91937087  0.74768167  0.69844034  1
  Se  Se241  1  0.07951040  0.25245141  0.20097618  1
  Se  Se242  1  0.07930143  0.24936621  0.69465951  1
  Se  Se243  1  0.08487037  0.59453547  0.20318624  1
  Se  Se244  1  0.07998809  0.58521656  0.69611332  1
  Se  Se245  1  0.07272741  0.93138188  0.19835578  1
  Se  Se246  1  0.08697680  0.91246945  0.69056980  1
  Se  Se247  1  0.42010064  0.24504373  0.20628455  1
  Se  Se248  1  0.41611494  0.25287402  0.69294479  1
  Se  Se249  1  0.42547489  0.57540720  0.18932073  1
  Se  Se250  1  0.41755110  0.57956230  0.68957099  1
  Se  Se251  1  0.42081479  0.90752280  0.19021595  1
  Se  Se252  1  0.41370468  0.91857688  0.69849533  1
  Se  Se253  1  0.75262967  0.24669364  0.19441344  1
  Se  Se254  1  0.74899174  0.25480189  0.69519937  1
  Se  Se255  1  0.75032034  0.58090220  0.19482671  1
  Se  Se256  1  0.74581558  0.58520333  0.69527177  1
  Se  Se257  1  0.76139822  0.90883233  0.18494216  1
  Se  Se258  1  0.75334155  0.91973278  0.70094640  1
