# generated using pymatgen
data_In86Cu29Se144
_symmetry_space_group_name_H-M   'P 1'
_cell_length_a   17.55267075
_cell_length_b   17.55227236
_cell_length_c   23.40832075
_cell_angle_alpha   90.00119541
_cell_angle_beta   90.00417544
_cell_angle_gamma   89.99843354
_symmetry_Int_Tables_number   1
_chemical_formula_structural   In86Cu29Se144
_chemical_formula_sum   'In86 Cu29 Se144'
_cell_volume   7211.85213935
_cell_formula_units_Z   1
loop_
 _symmetry_equiv_pos_site_id
 _symmetry_equiv_pos_as_xyz
  1  'x, y, z'
loop_
 _atom_site_type_symbol
 _atom_site_label
 _atom_site_symmetry_multiplicity
 _atom_site_fract_x
 _atom_site_fract_y
 _atom_site_fract_z
 _atom_site_occupancy
  In  In0  1  0.00441658  0.16400091  0.11900946  1
  In  In1  1  0.00894351  0.15688059  0.62657453  1
  In  In2  1  -0.01200020  0.50054613  0.12047792  1
  In  In3  1  0.01634467  0.49796817  0.62831591  1
  In  In4  1  0.02131489  0.86049279  0.09502357  1
  In  In5  1  -0.00224695  0.82562683  0.62442688  1
  In  In6  1  0.32426241  0.16898320  0.12968620  1
  In  In7  1  0.33087215  0.16639686  0.62660455  1
  In  In8  1  0.31939205  0.48653531  0.12350922  1
  In  In9  1  0.33477648  0.49840225  0.63199271  1
  In  In10  1  0.32782108  0.85303504  0.12400536  1
  In  In11  1  0.31677435  0.84647283  0.63167819  1
  In  In12  1  0.67269900  0.16147642  0.13531383  1
  In  In13  1  0.66151040  0.18733787  0.63596357  1
  In  In14  1  0.67728386  0.48380063  0.13025778  1
  In  In15  1  0.64297626  0.48998289  0.62656689  1
  In  In16  1  0.68788655  0.84117529  0.12333427  1
  In  In17  1  0.67917187  0.83345387  0.62358259  1
  In  In18  1  0.16682010  -0.00333676  0.37123707  1
  In  In19  1  0.16594537  0.00109362  0.88027787  1
  In  In20  1  0.16932938  0.32830725  0.37621745  1
  In  In21  1  0.17725504  0.31966086  0.87010333  1
  In  In22  1  0.16545396  0.66370053  0.38637488  1
  In  In23  1  0.17085498  0.67818603  0.86914695  1
  In  In24  1  0.51000845  0.01804949  0.37339032  1
  In  In25  1  0.48517104  0.01536121  0.86805879  1
  In  In26  1  0.49563105  0.33203732  0.37963856  1
  In  In27  1  0.49091966  0.32060541  0.84902258  1
  In  In28  1  0.48589680  0.66367174  0.38521078  1
  In  In29  1  0.49119641  0.66309344  0.86543221  1
  In  In30  1  0.83076919  -0.00158572  0.37098841  1
  In  In31  1  0.85610509  -0.00893703  0.90630065  1
  In  In32  1  0.82376411  0.32535798  0.36164614  1
  In  In33  1  0.84002759  0.34019192  0.88568388  1
  In  In34  1  0.84893565  0.67657412  0.37333019  1
  In  In35  1  0.84184930  0.66267709  0.87824591  1
  In  In36  1  0.00901154  0.17211608  0.36475889  1
  In  In37  1  0.01370492  0.16170766  0.90239552  1
  In  In38  1  0.01180536  0.49982929  0.37591288  1
  In  In39  1  -0.01677494  0.49744922  0.87922122  1
  In  In40  1  -0.00434772  0.83634848  0.37830463  1
  In  In41  1  0.00589289  0.83186761  0.88622999  1
  In  In42  1  0.32979716  0.17052148  0.37515135  1
  In  In43  1  0.31942612  0.15204504  0.84733736  1
  In  In44  1  0.34172068  0.49052690  0.38859181  1
  In  In45  1  0.33058007  0.49107672  0.85378836  1
  In  In46  1  0.31881545  0.83322959  0.37556234  1
  In  In47  1  0.32051742  0.82743366  0.86381734  1
  In  In48  1  0.66396115  0.16410387  0.37292678  1
  In  In49  1  0.66957136  0.17361136  0.87332560  1
  In  In50  1  0.66229530  0.48692082  0.37666088  1
  In  In51  1  0.67872277  0.49362949  0.87282834  1
  In  In52  1  0.66986599  0.85378823  0.37818682  1
  In  In53  1  0.67849541  0.83431080  0.87431438  1
  In  In54  1  0.16643762  0.00478080  0.12166097  1
  In  In55  1  0.18340399  0.01184980  0.61221959  1
  In  In56  1  0.18142346  0.31804953  0.13099767  1
  In  In57  1  0.17088321  0.33761037  0.61926655  1
  In  In58  1  0.14474288  0.67409932  0.11905446  1
  In  In59  1  0.16469441  0.66789779  0.63101531  1
  In  In60  1  0.49149145  0.01532059  0.13669252  1
  In  In61  1  0.48149342  -0.00011071  0.62544528  1
  In  In62  1  0.50259242  0.32698579  0.13628065  1
  In  In63  1  0.48850792  0.32904796  0.63241236  1
  In  In64  1  0.49756904  0.67053596  0.12363015  1
  In  In65  1  0.49617601  0.64701959  0.62478324  1
  In  In66  1  0.83610092  0.00308194  0.12412565  1
  In  In67  1  0.84605762  -0.00833941  0.62576200  1
  In  In68  1  0.83947594  0.32662105  0.11844730  1
  In  In69  1  0.81883013  0.32181710  0.62992387  1
  In  In70  1  0.86503953  0.68632062  0.09929073  1
  In  In71  1  0.83544154  0.68208314  0.63141682  1
  In  In72  1  0.50555462  0.83413640  -0.00775926  1
  In  In73  1  0.00783412  -0.00055414  0.76537206  1
  In  In74  1  0.33137989  0.66458148  0.25630939  1
  In  In75  1  0.66229729  0.65997123  0.74735861  1
  In  In76  1  0.83580441  0.16164173  0.49923552  1
  In  In77  1  0.49811209  0.83378251  0.50414740  1
  In  In78  1  -0.00204319  0.66396219  0.24401753  1
  In  In79  1  0.50172783  0.17108292  -0.00573293  1
  In  In80  1  0.83709068  0.50541566  0.49333943  1
  In  In81  1  0.50440384  0.49718834  -0.01248531  1
  In  In82  1  0.66987209  0.00247006  0.75403262  1
  In  In83  1  0.00190672  0.33251358  0.75424398  1
  In  In84  1  0.67055224  0.66463189  0.24318315  1
  In  In85  1  0.15639598  0.49691988  -0.00340873  1
  Cu  Cu86  1  0.00901612  -0.00792695  0.50067802  1
  Cu  Cu87  1  0.15930906  0.84408863  0.74918385  1
  Cu  Cu88  1  0.49593708  0.49292885  0.25674748  1
  Cu  Cu89  1  0.00497571  0.33008437  0.49755890  1
  Cu  Cu90  1  0.15986572  0.51071236  0.75006735  1
  Cu  Cu91  1  0.65314305  0.33592134  0.50474924  1
  Cu  Cu92  1  0.83959948  0.16841381  0.24304701  1
  Cu  Cu93  1  0.50482567  0.85084293  0.25213872  1
  Cu  Cu94  1  0.00486845  0.66860605  0.50328036  1
  Cu  Cu95  1  0.33277069  0.00402144  0.49657177  1
  Cu  Cu96  1  0.83650927  0.84525115  0.24586392  1
  Cu  Cu97  1  0.82741956  0.49154643  0.24134817  1
  Cu  Cu98  1  0.49401243  0.17303178  0.25738138  1
  Cu  Cu99  1  0.16497940  0.15666694  0.24941603  1
  Cu  Cu100  1  0.32073263  0.00338835  -0.00520133  1
  Cu  Cu101  1  0.67102382  0.66549389  0.50825868  1
  Cu  Cu102  1  0.31941413  0.67469759  -0.00857573  1
  Cu  Cu103  1  0.49669556  0.83204221  0.74768562  1
  Cu  Cu104  1  0.67375193  0.00717780  0.49964235  1
  Cu  Cu105  1  0.32854902  0.66183496  0.50910250  1
  Cu  Cu106  1  0.82977067  0.49723371  0.75194903  1
  Cu  Cu107  1  0.16225412  0.83644839  0.24521316  1
  Cu  Cu108  1  0.67422079  0.65264200  -0.00190501  1
  Cu  Cu109  1  0.83591616  0.16433409  0.76422573  1
  Cu  Cu110  1  0.66760982  -0.00081893  0.00823415  1
  Cu  Cu111  1  0.67547366  0.33484007  -0.00024150  1
  Cu  Cu112  1  0.16996794  0.48201898  0.25334869  1
  Cu  Cu113  1  0.33537517  0.32711384  -0.00143207  1
  Cu  Cu114  1  0.33128933  0.32953705  0.50408689  1
  Se  Se115  1  0.08357948  0.07915737  0.04971607  1
  Se  Se116  1  0.08527035  0.08596036  0.54879460  1
  Se  Se117  1  0.08712945  0.40766545  0.06850931  1
  Se  Se118  1  0.08335372  0.41777464  0.55063041  1
  Se  Se119  1  0.07525307  0.74522987  0.04015605  1
  Se  Se120  1  0.08944328  0.75192841  0.55645057  1
  Se  Se121  1  0.40954470  0.07942645  0.05373415  1
  Se  Se122  1  0.41391791  0.08622416  0.55264260  1
  Se  Se123  1  0.41790788  0.40880043  0.05655662  1
  Se  Se124  1  0.41224136  0.41383039  0.55990866  1
  Se  Se125  1  0.40816038  0.74837187  0.05300400  1
  Se  Se126  1  0.40808425  0.74783996  0.56710750  1
  Se  Se127  1  0.74704864  0.08790740  0.05803502  1
  Se  Se128  1  0.74798472  0.08245490  0.56953401  1
  Se  Se129  1  0.75789194  0.41905658  0.05205396  1
  Se  Se130  1  0.74765996  0.41477701  0.55632069  1
  Se  Se131  1  0.74626734  0.74672089  0.05084437  1
  Se  Se132  1  0.75730022  0.75160480  0.55203970  1
  Se  Se133  1  0.25216749  0.24321915  0.05044259  1
  Se  Se134  1  0.24577729  0.24391564  0.55395524  1
  Se  Se135  1  0.25042434  0.59090585  0.05856193  1
  Se  Se136  1  0.24621737  0.57993677  0.56421955  1
  Se  Se137  1  0.24308813  0.91592944  0.04818281  1
  Se  Se138  1  0.25216625  0.91348029  0.54593247  1
  Se  Se139  1  0.59083259  0.25663766  0.05967852  1
  Se  Se140  1  0.57582850  0.24964186  0.55965498  1
  Se  Se141  1  0.58722974  0.58205770  0.05998324  1
  Se  Se142  1  0.58275263  0.57954699  0.55044647  1
  Se  Se143  1  0.57933897  0.92429288  0.06554433  1
  Se  Se144  1  0.59185472  0.92738166  0.56118938  1
  Se  Se145  1  0.90487747  0.22978325  0.05030763  1
  Se  Se146  1  0.92334589  0.25603448  0.56180492  1
  Se  Se147  1  0.92520871  0.57853870  0.04116032  1
  Se  Se148  1  0.92190532  0.58795774  0.56305723  1
  Se  Se149  1  0.89037634  0.89899071  0.05655060  1
  Se  Se150  1  0.92046906  0.91254267  0.55205971  1
  Se  Se151  1  0.08410431  0.24344808  0.44411029  1
  Se  Se152  1  0.08271453  0.27747516  0.94624575  1
  Se  Se153  1  0.08330519  0.57745865  0.45295958  1
  Se  Se154  1  0.07827574  0.59240594  0.93470737  1
  Se  Se155  1  0.09029021  0.90994089  0.44326886  1
  Se  Se156  1  0.06493940  0.94145812  0.94684135  1
  Se  Se157  1  0.41428072  0.24716479  0.44776466  1
  Se  Se158  1  0.41022135  0.25212450  0.93046945  1
  Se  Se159  1  0.41659786  0.57970047  0.45880765  1
  Se  Se160  1  0.39981193  0.58683829  0.93740751  1
  Se  Se161  1  0.41575906  0.92190971  0.43704756  1
  Se  Se162  1  0.40801475  0.92379118  0.93746345  1
  Se  Se163  1  0.74305553  0.25958716  0.44656904  1
  Se  Se164  1  0.75309137  0.24736299  0.94513966  1
  Se  Se165  1  0.74379124  0.59556228  0.43416907  1
  Se  Se166  1  0.75831961  0.57306196  0.94380180  1
  Se  Se167  1  0.75833701  0.92129711  0.45074371  1
  Se  Se168  1  0.74512579  0.91260897  0.95291054  1
  Se  Se169  1  0.24652905  0.08234034  0.44059421  1
  Se  Se170  1  0.25384628  0.09666704  0.93726780  1
  Se  Se171  1  0.24626134  0.41218488  0.44925944  1
  Se  Se172  1  0.26250601  0.41717387  0.94031440  1
  Se  Se173  1  0.25354644  0.74668945  0.45032110  1
  Se  Se174  1  0.23979782  0.76494778  0.94469264  1
  Se  Se175  1  0.58725310  0.09060531  0.45117317  1
  Se  Se176  1  0.58925615  0.07042038  0.94061967  1
  Se  Se177  1  0.57441069  0.42165815  0.44966408  1
  Se  Se178  1  0.58790608  0.39713130  0.93213904  1
  Se  Se179  1  0.59170453  0.74720802  0.44180939  1
  Se  Se180  1  0.59248881  0.73194510  0.93596140  1
  Se  Se181  1  0.92933459  0.07639424  0.43991536  1
  Se  Se182  1  0.90509378  0.10553343  0.96527303  1
  Se  Se183  1  0.91775917  0.40352265  0.43620488  1
  Se  Se184  1  0.92957120  0.40902713  0.95630279  1
  Se  Se185  1  0.91905824  0.75156056  0.45122711  1
  Se  Se186  1  0.90575929  0.75813518  0.94634893  1
  Se  Se187  1  0.24517711  0.24558129  0.30224341  1
  Se  Se188  1  0.27405538  0.27416738  0.79426593  1
  Se  Se189  1  0.24222916  0.57171974  0.31390264  1
  Se  Se190  1  0.24951008  0.59208214  0.79983708  1
  Se  Se191  1  0.25003790  0.91415451  0.29954716  1
  Se  Se192  1  0.24355371  0.92561240  0.80386121  1
  Se  Se193  1  0.58195500  0.25401734  0.30935909  1
  Se  Se194  1  0.57802091  0.22507542  0.79800340  1
  Se  Se195  1  0.57398403  0.58447720  0.31016532  1
  Se  Se196  1  0.57686791  0.56566815  0.80599032  1
  Se  Se197  1  0.59092691  0.93005193  0.30545538  1
  Se  Se198  1  0.57386592  0.90871785  0.81161624  1
  Se  Se199  1  0.92047475  0.25305475  0.29863895  1
  Se  Se200  1  0.92267065  0.24039190  0.82070745  1
  Se  Se201  1  0.90752790  0.57051496  0.30502866  1
  Se  Se202  1  0.91392367  0.57988120  0.80266099  1
  Se  Se203  1  0.92233747  0.91972861  0.30502857  1
  Se  Se204  1  0.90779668  0.91381515  0.81728341  1
  Se  Se205  1  0.07934523  0.07331213  0.30088686  1
  Se  Se206  1  0.09090705  0.10479789  0.81351413  1
  Se  Se207  1  0.07922509  0.40777101  0.30647754  1
  Se  Se208  1  0.09058457  0.42611562  0.81433396  1
  Se  Se209  1  0.09129797  0.74859770  0.30756662  1
  Se  Se210  1  0.07976826  0.76090445  0.80582362  1
  Se  Se211  1  0.41259558  0.08386513  0.30686736  1
  Se  Se212  1  0.42025355  0.08440917  0.78604687  1
  Se  Se213  1  0.40955140  0.41297895  0.30903312  1
  Se  Se214  1  0.43515121  0.43250169  0.79188874  1
  Se  Se215  1  0.42735048  0.76165907  0.30910051  1
  Se  Se216  1  0.41093601  0.74775734  0.79834018  1
  Se  Se217  1  0.75673951  0.09174768  0.30541543  1
  Se  Se218  1  0.76545462  0.07421353  0.82277412  1
  Se  Se219  1  0.74115790  0.41703129  0.29902982  1
  Se  Se220  1  0.75811005  0.40615222  0.80572612  1
  Se  Se221  1  0.75729859  0.75972475  0.30595016  1
  Se  Se222  1  0.75575176  0.74862517  0.80392499  1
  Se  Se223  1  0.25192121  0.07514570  0.19658397  1
  Se  Se224  1  0.25016621  0.07812160  0.69434493  1
  Se  Se225  1  0.25998173  0.40427159  0.20230221  1
  Se  Se226  1  0.23666700  0.42331873  0.69535512  1
  Se  Se227  1  0.24332871  0.75050878  0.18802603  1
  Se  Se228  1  0.24399884  0.75565903  0.69971262  1
  Se  Se229  1  0.58077959  0.08989333  0.20431958  1
  Se  Se230  1  0.57866626  0.08292477  0.68942579  1
  Se  Se231  1  0.58386558  0.41713712  0.20026567  1
  Se  Se232  1  0.59798898  0.38765354  0.69534586  1
  Se  Se233  1  0.57802416  0.76437424  0.19041523  1
  Se  Se234  1  0.57616767  0.75687458  0.68519115  1
  Se  Se235  1  0.92194900  0.08305116  0.19192282  1
  Se  Se236  1  0.91248988  0.08817271  0.69989670  1
  Se  Se237  1  0.91790945  0.41175088  0.19160692  1
  Se  Se238  1  0.90983683  0.41734587  0.68860734  1
  Se  Se239  1  0.91882451  0.76420374  0.18708229  1
  Se  Se240  1  0.91962035  0.75537629  0.70141897  1
  Se  Se241  1  0.08546325  0.24233095  0.19343981  1
  Se  Se242  1  0.09205168  0.24448116  0.69296001  1
  Se  Se243  1  0.09440453  0.56826657  0.19222548  1
  Se  Se244  1  0.07228017  0.59346822  0.70099505  1
  Se  Se245  1  0.08054577  0.91532844  0.18697296  1
  Se  Se246  1  0.08508747  0.92602482  0.68538835  1
  Se  Se247  1  0.40958568  0.25013697  0.19889150  1
  Se  Se248  1  0.38749637  0.26575297  0.69929602  1
  Se  Se249  1  0.41944383  0.57413266  0.19129820  1
  Se  Se250  1  0.41705761  0.58151151  0.70170471  1
  Se  Se251  1  0.41103419  0.92232227  0.19914533  1
  Se  Se252  1  0.41061347  0.91804431  0.69982112  1
  Se  Se253  1  0.75362677  0.25622277  0.19500529  1
  Se  Se254  1  0.75270368  0.24785520  0.71145112  1
  Se  Se255  1  0.76739930  0.58776612  0.17978843  1
  Se  Se256  1  0.75291796  0.57118132  0.68422047  1
  Se  Se257  1  0.74762210  0.92896676  0.19907416  1
  Se  Se258  1  0.76301569  0.90863369  0.69927157  1
