# generated using pymatgen
data_In86Cu29Se144
_symmetry_space_group_name_H-M   'P 1'
_cell_length_a   17.58870952
_cell_length_b   17.57950752
_cell_length_c   23.43833771
_cell_angle_alpha   89.97245448
_cell_angle_beta   89.98691543
_cell_angle_gamma   90.00900353
_symmetry_Int_Tables_number   1
_chemical_formula_structural   In86Cu29Se144
_chemical_formula_sum   'In86 Cu29 Se144'
_cell_volume   7247.15285479
_cell_formula_units_Z   1
loop_
 _symmetry_equiv_pos_site_id
 _symmetry_equiv_pos_as_xyz
  1  'x, y, z'
loop_
 _atom_site_type_symbol
 _atom_site_label
 _atom_site_symmetry_multiplicity
 _atom_site_fract_x
 _atom_site_fract_y
 _atom_site_fract_z
 _atom_site_occupancy
  In  In0  1  0.00968571  0.17145243  0.11537979  1
  In  In1  1  -0.00807938  0.19724204  0.63286481  1
  In  In2  1  -0.01444733  0.48282217  0.11489419  1
  In  In3  1  -0.00449591  0.49869817  0.62921048  1
  In  In4  1  -0.00289955  0.84445159  0.11832948  1
  In  In5  1  -0.00315573  0.81937550  0.62646040  1
  In  In6  1  0.33706190  0.17622992  0.12601638  1
  In  In7  1  0.33080451  0.16753760  0.63962830  1
  In  In8  1  0.33163623  0.49024491  0.11618100  1
  In  In9  1  0.33949088  0.48183910  0.62678843  1
  In  In10  1  0.34228435  0.83642408  0.12705966  1
  In  In11  1  0.33210338  0.85534008  0.62424726  1
  In  In12  1  0.66498973  0.17341576  0.12163744  1
  In  In13  1  0.66518302  0.16637695  0.62793863  1
  In  In14  1  0.65197157  0.47750463  0.10991662  1
  In  In15  1  0.65485518  0.48337995  0.61767416  1
  In  In16  1  0.67075034  0.82868989  0.12150594  1
  In  In17  1  0.67117603  0.83959053  0.63036571  1
  In  In18  1  0.17298908  0.00036371  0.38201296  1
  In  In19  1  0.18565992  0.00949685  0.86944948  1
  In  In20  1  0.16277105  0.32789005  0.36952294  1
  In  In21  1  0.17192493  0.32772037  0.87349033  1
  In  In22  1  0.17917324  0.67033703  0.37750928  1
  In  In23  1  0.15300653  0.66459520  0.87262687  1
  In  In24  1  0.50546927  0.02507228  0.37101858  1
  In  In25  1  0.52546293  0.04032954  0.84010222  1
  In  In26  1  0.50484589  0.33249242  0.37080767  1
  In  In27  1  0.50530943  0.32659845  0.87151425  1
  In  In28  1  0.49734864  0.65152678  0.37651702  1
  In  In29  1  0.49469489  0.65787719  0.87674383  1
  In  In30  1  0.84133154  0.00624104  0.37565806  1
  In  In31  1  0.82054783  0.01649236  0.88404605  1
  In  In32  1  0.83372648  0.33380081  0.37605196  1
  In  In33  1  0.83330129  0.33337295  0.87307671  1
  In  In34  1  0.82286826  0.66072501  0.37311278  1
  In  In35  1  0.84524176  0.65515144  0.88185255  1
  In  In36  1  -0.01201967  0.17303858  0.38141318  1
  In  In37  1  -0.00754405  0.17639818  0.87784312  1
  In  In38  1  -0.00519607  0.48219998  0.37277605  1
  In  In39  1  0.00051587  0.49469225  0.87462082  1
  In  In40  1  0.00353818  0.85133719  0.37801180  1
  In  In41  1  0.00182728  0.81843932  0.87235411  1
  In  In42  1  0.35567603  0.19008683  0.35545857  1
  In  In43  1  0.33726850  0.17339430  0.87319415  1
  In  In44  1  0.34717395  0.48458007  0.37429501  1
  In  In45  1  0.34618375  0.47923950  0.88641026  1
  In  In46  1  0.32272375  0.83854755  0.38011844  1
  In  In47  1  0.34181639  0.84707898  0.87251767  1
  In  In48  1  0.64900049  0.18531253  0.38862350  1
  In  In49  1  0.66730095  0.17559837  0.86986311  1
  In  In50  1  0.67459348  0.48897882  0.37817430  1
  In  In51  1  0.68045144  0.48932006  0.88025081  1
  In  In52  1  0.66826820  0.82326294  0.37520687  1
  In  In53  1  0.66303321  0.85543609  0.87359289  1
  In  In54  1  0.17194261  0.01687466  0.11960886  1
  In  In55  1  0.18311490  0.01021512  0.62652546  1
  In  In56  1  0.16553561  0.33030728  0.12119838  1
  In  In57  1  0.16498552  0.33008795  0.63942143  1
  In  In58  1  0.18082479  0.65628931  0.12291550  1
  In  In59  1  0.15004090  0.66136895  0.62465036  1
  In  In60  1  0.48434876  0.00811082  0.13141655  1
  In  In61  1  0.47589965  0.02851100  0.65097391  1
  In  In62  1  0.49873134  0.33167615  0.12715796  1
  In  In63  1  0.49819114  0.32483071  0.62996713  1
  In  In64  1  0.50862450  0.65791933  0.12388275  1
  In  In65  1  0.50953960  0.65805065  0.62393898  1
  In  In66  1  0.83007485  0.00346888  0.11395541  1
  In  In67  1  0.81643245  0.00317353  0.63083932  1
  In  In68  1  0.83066595  0.33012901  0.12256041  1
  In  In69  1  0.83249967  0.33053942  0.62266995  1
  In  In70  1  0.83467834  0.66653015  0.11788175  1
  In  In71  1  0.84667608  0.66161228  0.62670134  1
  In  In72  1  0.50438938  0.83566488  0.00160044  1
  In  In73  1  0.16407001  0.83370690  -0.00738506  1
  In  In74  1  0.33602225  0.65953078  0.24653681  1
  In  In75  1  0.83232000  0.83214212  0.49888315  1
  In  In76  1  0.00083643  0.01102080  0.25483558  1
  In  In77  1  0.66771131  0.65950988  0.25326564  1
  In  In78  1  0.16620200  0.16274748  0.50228795  1
  In  In79  1  0.66678856  0.01108966  0.24393206  1
  In  In80  1  0.00129337  0.00002657  0.75809299  1
  In  In81  1  0.49887627  0.84036362  0.51048198  1
  In  In82  1  0.00000928  0.66646503  0.23816995  1
  In  In83  1  0.32679986  0.66786682  0.75780464  1
  In  In84  1  0.16406248  0.49812418  0.50676664  1
  In  In85  1  0.67394640  0.66739302  0.74610069  1
  Cu  Cu86  1  0.82910077  0.49296687  0.24537865  1
  Cu  Cu87  1  0.33373044  0.66564986  0.49707927  1
  Cu  Cu88  1  0.33426520  0.32779322  -0.00041524  1
  Cu  Cu89  1  0.33076129  0.65664683  -0.00526545  1
  Cu  Cu90  1  0.16241985  0.82894030  0.74836393  1
  Cu  Cu91  1  0.16184226  0.49845890  0.75381820  1
  Cu  Cu92  1  0.49611617  0.83898869  0.25452008  1
  Cu  Cu93  1  0.00260547  0.00319492  0.50344455  1
  Cu  Cu94  1  0.16646123  0.48884635  0.24591791  1
  Cu  Cu95  1  0.66575171  0.65440772  0.50078751  1
  Cu  Cu96  1  0.16221106  0.84079427  0.25594154  1
  Cu  Cu97  1  0.66087751  0.01161058  -0.00511763  1
  Cu  Cu98  1  -0.00343455  0.00297864  -0.00533573  1
  Cu  Cu99  1  0.83270973  0.83221999  0.75310950  1
  Cu  Cu100  1  0.83376874  0.49148014  0.75321122  1
  Cu  Cu101  1  0.66645758  0.32967648  -0.00271349  1
  Cu  Cu102  1  0.16902905  0.17073499  0.24295461  1
  Cu  Cu103  1  0.34076011  0.32808149  0.50116142  1
  Cu  Cu104  1  0.33988663  0.01165230  0.50374669  1
  Cu  Cu105  1  0.00266333  0.66441267  0.50173078  1
  Cu  Cu106  1  0.67132616  0.66406183  0.00028042  1
  Cu  Cu107  1  0.67015251  0.33124069  0.50219094  1
  Cu  Cu108  1  0.66391581  0.01066629  0.50436463  1
  Cu  Cu109  1  0.00015387  0.33287531  -0.00392067  1
  Cu  Cu110  1  0.33839322  0.01042590  -0.00268510  1
  Cu  Cu111  1  0.83104418  0.17145354  0.75195435  1
  Cu  Cu112  1  -0.00015060  0.66170180  -0.00204736  1
  Cu  Cu113  1  0.50419484  0.49458867  0.75080612  1
  Cu  Cu114  1  0.83262206  0.17378270  0.25004120  1
  Se  Se115  1  0.08533993  0.08238532  0.04613216  1
  Se  Se116  1  0.07417838  0.08297746  0.56901376  1
  Se  Se117  1  0.08441412  0.41500321  0.05068020  1
  Se  Se118  1  0.07804078  0.40384123  0.56303777  1
  Se  Se119  1  0.08127224  0.74161972  0.05970105  1
  Se  Se120  1  0.08373160  0.75190046  0.55166544  1
  Se  Se121  1  0.41892330  0.09095510  0.05525800  1
  Se  Se122  1  0.41476582  0.09433506  0.56381180  1
  Se  Se123  1  0.42109553  0.41208412  0.05060104  1
  Se  Se124  1  0.42408378  0.41179427  0.55436087  1
  Se  Se125  1  0.40893442  0.73863165  0.05651297  1
  Se  Se126  1  0.40754918  0.74295611  0.56429428  1
  Se  Se127  1  0.74645846  0.09056999  0.05126860  1
  Se  Se128  1  0.75307042  0.08878673  0.55549427  1
  Se  Se129  1  0.75504100  0.41324464  0.04787974  1
  Se  Se130  1  0.75382423  0.41822107  0.55217911  1
  Se  Se131  1  0.75227763  0.75261134  0.05029652  1
  Se  Se132  1  0.74284768  0.73965246  0.56032039  1
  Se  Se133  1  0.24816344  0.24586729  0.05294749  1
  Se  Se134  1  0.25406333  0.25660675  0.56204142  1
  Se  Se135  1  0.24717817  0.57436288  0.04738171  1
  Se  Se136  1  0.25877203  0.58736081  0.56454719  1
  Se  Se137  1  0.26013940  0.91989143  0.05324137  1
  Se  Se138  1  0.25030611  0.92669190  0.54916018  1
  Se  Se139  1  0.57958186  0.25204440  0.05261478  1
  Se  Se140  1  0.58513315  0.25053136  0.55763534  1
  Se  Se141  1  0.58279311  0.58156902  0.04889623  1
  Se  Se142  1  0.57683792  0.57395984  0.54987350  1
  Se  Se143  1  0.58881738  0.93169172  0.06372019  1
  Se  Se144  1  0.58772029  0.93123113  0.56724266  1
  Se  Se145  1  0.91721523  0.25022631  0.05256154  1
  Se  Se146  1  0.90936894  0.24421581  0.55184990  1
  Se  Se147  1  0.91428583  0.58028985  0.05092259  1
  Se  Se148  1  0.91990074  0.57998220  0.55305689  1
  Se  Se149  1  0.91406899  0.91828774  0.04695002  1
  Se  Se150  1  0.91834831  0.92163670  0.56285923  1
  Se  Se151  1  0.07714785  0.25969515  0.44736477  1
  Se  Se152  1  0.08586507  0.24918698  0.94479064  1
  Se  Se153  1  0.08056968  0.58580792  0.43742310  1
  Se  Se154  1  0.08370575  0.57912348  0.94553722  1
  Se  Se155  1  0.08731285  0.92081633  0.45164473  1
  Se  Se156  1  0.07798570  0.92629880  0.93201973  1
  Se  Se157  1  0.42226424  0.24880823  0.44317750  1
  Se  Se158  1  0.42151177  0.24949218  0.94538907  1
  Se  Se159  1  0.41241866  0.57677445  0.44694846  1
  Se  Se160  1  0.42318935  0.57538653  0.94965182  1
  Se  Se161  1  0.41671178  0.92699912  0.44219391  1
  Se  Se162  1  0.42287246  0.93003832  0.94177842  1
  Se  Se163  1  0.75495857  0.24844980  0.44800049  1
  Se  Se164  1  0.75176231  0.24922375  0.94303708  1
  Se  Se165  1  0.75346731  0.57831809  0.44674622  1
  Se  Se166  1  0.75485397  0.57885639  0.94858090  1
  Se  Se167  1  0.73841889  0.92621585  0.44197106  1
  Se  Se168  1  0.74590305  0.92139627  0.95020223  1
  Se  Se169  1  0.26675950  0.09240998  0.43796558  1
  Se  Se170  1  0.25207033  0.09124566  0.94577040  1
  Se  Se171  1  0.25279382  0.40671875  0.44471469  1
  Se  Se172  1  0.24605305  0.41160954  0.94942809  1
  Se  Se173  1  0.24826295  0.75363401  0.45237263  1
  Se  Se174  1  0.25951255  0.74358290  0.93483401  1
  Se  Se175  1  0.57493842  0.09072531  0.45440382  1
  Se  Se176  1  0.57932081  0.08891648  0.93625908  1
  Se  Se177  1  0.58546329  0.41148363  0.44508457  1
  Se  Se178  1  0.58410904  0.41333010  0.94206631  1
  Se  Se179  1  0.58419184  0.74168537  0.44649413  1
  Se  Se180  1  0.59225137  0.74470637  0.93827512  1
  Se  Se181  1  0.91575792  0.08269038  0.45116065  1
  Se  Se182  1  0.91307006  0.09230687  0.94823415  1
  Se  Se183  1  0.90944852  0.42123581  0.44669690  1
  Se  Se184  1  0.91436341  0.41603417  0.94409934  1
  Se  Se185  1  0.92462411  0.74355646  0.43674699  1
  Se  Se186  1  0.91863797  0.75097491  0.94836728  1
  Se  Se187  1  0.24864145  0.25656796  0.29779212  1
  Se  Se188  1  0.27024254  0.26795955  0.80297016  1
  Se  Se189  1  0.24372612  0.57040647  0.30780956  1
  Se  Se190  1  0.24703544  0.56966599  0.81715902  1
  Se  Se191  1  0.24913463  0.92137380  0.30661272  1
  Se  Se192  1  0.24637794  0.90887752  0.80210718  1
  Se  Se193  1  0.58579574  0.24572828  0.30291656  1
  Se  Se194  1  0.56780479  0.23273200  0.79950962  1
  Se  Se195  1  0.57572739  0.56665023  0.30659875  1
  Se  Se196  1  0.58477064  0.57725523  0.80834463  1
  Se  Se197  1  0.58298979  0.91428772  0.31144245  1
  Se  Se198  1  0.57402983  0.91228196  0.79978392  1
  Se  Se199  1  0.91908581  0.25245248  0.30472565  1
  Se  Se200  1  0.91778755  0.25377366  0.80177437  1
  Se  Se201  1  0.91034857  0.57838827  0.30219825  1
  Se  Se202  1  0.91661702  0.57825825  0.80406349  1
  Se  Se203  1  0.90763332  0.91005492  0.30320306  1
  Se  Se204  1  0.90679318  0.91344815  0.81734779  1
  Se  Se205  1  0.09385919  0.09816127  0.31413877  1
  Se  Se206  1  0.09012808  0.09537693  0.81086151  1
  Se  Se207  1  0.08016120  0.41143870  0.30080148  1
  Se  Se208  1  0.08270410  0.41060079  0.80664988  1
  Se  Se209  1  0.08477887  0.75354635  0.31010240  1
  Se  Se210  1  0.07864804  0.74279012  0.79663369  1
  Se  Se211  1  0.40460127  0.07177323  0.30134207  1
  Se  Se212  1  0.39010935  0.06721440  0.80463041  1
  Se  Se213  1  0.41042784  0.40114947  0.29957233  1
  Se  Se214  1  0.41974923  0.41413966  0.80480292  1
  Se  Se215  1  0.41936278  0.75329435  0.31313752  1
  Se  Se216  1  0.42813241  0.75594904  0.80763409  1
  Se  Se217  1  0.75422238  0.09339603  0.31169335  1
  Se  Se218  1  0.74921884  0.08459125  0.80280933  1
  Se  Se219  1  0.74952769  0.41124685  0.30291105  1
  Se  Se220  1  0.74516130  0.40939770  0.80123128  1
  Se  Se221  1  0.76194140  0.76072594  0.30121471  1
  Se  Se222  1  0.75497842  0.75180869  0.81660067  1
  Se  Se223  1  0.25372059  0.08568655  0.19380363  1
  Se  Se224  1  0.25617067  0.07518691  0.70651212  1
  Se  Se225  1  0.25138520  0.41321091  0.18941351  1
  Se  Se226  1  0.24918568  0.42074895  0.70002233  1
  Se  Se227  1  0.24103531  0.75893776  0.19446707  1
  Se  Se228  1  0.24428016  0.75189021  0.68617806  1
  Se  Se229  1  0.56884933  0.10048781  0.19453188  1
  Se  Se230  1  0.59438540  0.07931377  0.70151578  1
  Se  Se231  1  0.58993936  0.41130581  0.19359213  1
  Se  Se232  1  0.58528717  0.41037302  0.69717900  1
  Se  Se233  1  0.57475126  0.75832585  0.19502483  1
  Se  Se234  1  0.57497507  0.75589157  0.69290136  1
  Se  Se235  1  0.91015520  0.09102388  0.18846858  1
  Se  Se236  1  0.91222163  0.08686137  0.69375498  1
  Se  Se237  1  0.91579645  0.40987389  0.19473424  1
  Se  Se238  1  0.91614863  0.41067043  0.69532136  1
  Se  Se239  1  0.90881744  0.76354834  0.18844301  1
  Se  Se240  1  0.91472877  0.74744482  0.70122827  1
  Se  Se241  1  0.07978258  0.25034258  0.19260099  1
  Se  Se242  1  0.09398834  0.23502110  0.70411399  1
  Se  Se243  1  0.08924911  0.56979535  0.18495391  1
  Se  Se244  1  0.07884393  0.58089009  0.69929693  1
  Se  Se245  1  0.08868872  0.91934745  0.19036361  1
  Se  Se246  1  0.08516564  0.91358086  0.68856839  1
  Se  Se247  1  0.40340377  0.26716323  0.19795010  1
  Se  Se248  1  0.40330666  0.26413058  0.70273330  1
  Se  Se249  1  0.42597736  0.56931943  0.19001238  1
  Se  Se250  1  0.42081211  0.57852782  0.69599341  1
  Se  Se251  1  0.41072275  0.91904393  0.20158246  1
  Se  Se252  1  0.42159002  0.90844362  0.69926524  1
  Se  Se253  1  0.74708377  0.25077167  0.19390091  1
  Se  Se254  1  0.74906225  0.25271042  0.69475363  1
  Se  Se255  1  0.75214410  0.57628573  0.18532141  1
  Se  Se256  1  0.75578723  0.56946887  0.68727847  1
  Se  Se257  1  0.75639547  0.91474844  0.18989803  1
  Se  Se258  1  0.74784828  0.91712652  0.70487397  1
