# generated using pymatgen
data_In86Cu29Se144
_symmetry_space_group_name_H-M   'P 1'
_cell_length_a   17.56688647
_cell_length_b   17.57232788
_cell_length_c   23.43048145
_cell_angle_alpha   90.01862025
_cell_angle_beta   90.00340083
_cell_angle_gamma   90.00240949
_symmetry_Int_Tables_number   1
_chemical_formula_structural   In86Cu29Se144
_chemical_formula_sum   'In86 Cu29 Se144'
_cell_volume   7232.78043196
_cell_formula_units_Z   1
loop_
 _symmetry_equiv_pos_site_id
 _symmetry_equiv_pos_as_xyz
  1  'x, y, z'
loop_
 _atom_site_type_symbol
 _atom_site_label
 _atom_site_symmetry_multiplicity
 _atom_site_fract_x
 _atom_site_fract_y
 _atom_site_fract_z
 _atom_site_occupancy
  In  In0  1  0.00234517  0.17137047  0.12539249  1
  In  In1  1  -0.00848675  0.15922775  0.61571497  1
  In  In2  1  -0.02916376  0.51246969  0.15152399  1
  In  In3  1  0.02331669  0.50071773  0.62629173  1
  In  In4  1  -0.02087239  0.81880091  0.10768225  1
  In  In5  1  0.00192713  0.83189645  0.62755604  1
  In  In6  1  0.33867209  0.17894709  0.12778086  1
  In  In7  1  0.33776289  0.17472819  0.61461550  1
  In  In8  1  0.33481201  0.48024193  0.12216296  1
  In  In9  1  0.29582066  0.51953548  0.65308953  1
  In  In10  1  0.32256890  0.83340463  0.12198085  1
  In  In11  1  0.31787473  0.82703189  0.62117261  1
  In  In12  1  0.68030317  0.15580414  0.16244407  1
  In  In13  1  0.66782787  0.17059736  0.61154255  1
  In  In14  1  0.67196292  0.50477916  0.12663079  1
  In  In15  1  0.66025313  0.50014780  0.62031905  1
  In  In16  1  0.67518837  0.82112956  0.13208205  1
  In  In17  1  0.68128375  0.82884043  0.61737175  1
  In  In18  1  0.16720739  -0.00523509  0.38237344  1
  In  In19  1  0.15234578  0.01493936  0.87849119  1
  In  In20  1  0.16522260  0.33249036  0.37496787  1
  In  In21  1  0.16495089  0.32425814  0.87424314  1
  In  In22  1  0.15549868  0.67388207  0.38702704  1
  In  In23  1  0.16997940  0.66757062  0.87369332  1
  In  In24  1  0.52063149  0.00480994  0.36964438  1
  In  In25  1  0.50319697  0.00589224  0.87593410  1
  In  In26  1  0.49531425  0.32514922  0.35749492  1
  In  In27  1  0.50387550  0.34319086  0.87953454  1
  In  In28  1  0.50096264  0.65733725  0.37421485  1
  In  In29  1  0.48852955  0.66110759  0.87731191  1
  In  In30  1  0.82366243  0.00894019  0.37565453  1
  In  In31  1  0.85045646  -0.02137101  0.89859779  1
  In  In32  1  0.82570979  0.31728448  0.34899195  1
  In  In33  1  0.83987277  0.33514709  0.89069793  1
  In  In34  1  0.84687397  0.66869698  0.36176974  1
  In  In35  1  0.84895886  0.65897553  0.89208872  1
  In  In36  1  -0.00315796  0.16923252  0.37692427  1
  In  In37  1  0.00572260  0.16906797  0.87987680  1
  In  In38  1  -0.00044681  0.50417909  0.36292573  1
  In  In39  1  -0.00135180  0.49980030  0.87883443  1
  In  In40  1  0.00243353  0.82320375  0.38061955  1
  In  In41  1  -0.00102227  0.83811112  0.87594626  1
  In  In42  1  0.32642947  0.18060717  0.38325775  1
  In  In43  1  0.31791558  0.16082253  0.87089995  1
  In  In44  1  0.33602321  0.49135693  0.37692696  1
  In  In45  1  0.33693853  0.50655629  0.87222745  1
  In  In46  1  0.31828811  0.82635464  0.38196239  1
  In  In47  1  0.33088308  0.81251645  0.87143503  1
  In  In48  1  0.66873049  0.16735101  0.36821763  1
  In  In49  1  0.67097664  0.17153258  0.88505650  1
  In  In50  1  0.67402957  0.49340609  0.35017719  1
  In  In51  1  0.67256029  0.49756383  0.89111671  1
  In  In52  1  0.68129223  0.84674855  0.36600125  1
  In  In53  1  0.69477427  0.83526884  0.88585456  1
  In  In54  1  0.15573487  -0.00753514  0.11473440  1
  In  In55  1  0.15470746  -0.01047838  0.61768577  1
  In  In56  1  0.17077567  0.33001990  0.12781897  1
  In  In57  1  0.17678003  0.34381829  0.61104518  1
  In  In58  1  0.13617802  0.66108235  0.11823619  1
  In  In59  1  0.16009183  0.66690413  0.62932892  1
  In  In60  1  0.51745250  0.01374153  0.12875643  1
  In  In61  1  0.48841863  0.01152452  0.62202846  1
  In  In62  1  0.49244030  0.32950265  0.13247900  1
  In  In63  1  0.49067820  0.32086316  0.61420513  1
  In  In64  1  0.51853919  0.66444248  0.12501628  1
  In  In65  1  0.48862188  0.64876555  0.62046728  1
  In  In66  1  0.82190806  0.00421632  0.12374257  1
  In  In67  1  0.84164260  0.00431859  0.62002151  1
  In  In68  1  0.83160374  0.33045599  0.13401382  1
  In  In69  1  0.84581507  0.32861659  0.61861153  1
  In  In70  1  0.83423650  0.66488020  0.12780029  1
  In  In71  1  0.83792182  0.68392587  0.62214477  1
  In  In72  1  0.33102433  0.66533550  0.25790050  1
  In  In73  1  0.50074981  0.82812871  -0.00191315  1
  In  In74  1  0.66962519  0.00063355  0.76264822  1
  In  In75  1  0.31789040  -0.00559252  0.73986128  1
  In  In76  1  0.00963413  0.33922019  0.75146478  1
  In  In77  1  0.83734819  0.49601392  0.48662339  1
  In  In78  1  0.33686413  0.00360004  0.25252414  1
  In  In79  1  0.66146115  0.66508308  0.75062188  1
  In  In80  1  0.50075013  0.84302517  0.50298766  1
  In  In81  1  0.66465001  0.33150503  0.75208202  1
  In  In82  1  -0.00375895  0.00116542  0.24285489  1
  In  In83  1  0.15676320  0.49783735  -0.00071044  1
  In  In84  1  0.49350684  0.49178822  0.48936284  1
  In  In85  1  0.50780132  0.17164606  0.00685419  1
  Cu  Cu86  1  -0.00114880  0.32569232  0.49345647  1
  Cu  Cu87  1  0.49766506  0.50672815  0.24732575  1
  Cu  Cu88  1  0.48816798  0.49248170  0.75299594  1
  Cu  Cu89  1  0.33411523  0.33970053  0.49644209  1
  Cu  Cu90  1  0.67716373  0.00678885  0.49300143  1
  Cu  Cu91  1  0.17372084  0.16495345  0.25093125  1
  Cu  Cu92  1  0.67231033  0.67415246  0.48823976  1
  Cu  Cu93  1  -0.00126572  -0.00986704  0.49799380  1
  Cu  Cu94  1  0.84405335  0.83624751  0.75351001  1
  Cu  Cu95  1  0.67510191  0.66295590  0.00666308  1
  Cu  Cu96  1  0.49320323  0.16601798  0.74158595  1
  Cu  Cu97  1  0.32763824  -0.00014112  -0.00170941  1
  Cu  Cu98  1  0.16729811  0.49399389  0.24769274  1
  Cu  Cu99  1  0.83608634  0.50694124  0.75592163  1
  Cu  Cu100  1  0.67323493  0.32886330  0.48486081  1
  Cu  Cu101  1  -0.00252047  0.66171148  0.50086818  1
  Cu  Cu102  1  0.33277893  0.65516176  -0.00163345  1
  Cu  Cu103  1  0.67280289  0.33353766  0.01284211  1
  Cu  Cu104  1  0.50285198  0.82650481  0.75016911  1
  Cu  Cu105  1  0.16186531  0.17261515  0.74596050  1
  Cu  Cu106  1  0.83897852  0.16095050  0.74917639  1
  Cu  Cu107  1  0.15660596  0.82082320  0.24994232  1
  Cu  Cu108  1  0.50308050  0.83706538  0.24725623  1
  Cu  Cu109  1  0.16128895  0.83210729  0.75070750  1
  Cu  Cu110  1  0.00021263  0.01178296  0.00027421  1
  Cu  Cu111  1  0.33926363  0.00937007  0.49739941  1
  Cu  Cu112  1  -0.00152054  0.33814251  0.01123020  1
  Cu  Cu113  1  0.33509391  0.32729233  0.00267525  1
  Cu  Cu114  1  0.83974814  0.83292063  0.24659593  1
  Se  Se115  1  0.08638101  0.09311825  0.05326826  1
  Se  Se116  1  0.08023034  0.07889887  0.54941562  1
  Se  Se117  1  0.07488332  0.42042809  0.07168508  1
  Se  Se118  1  0.07738821  0.41385366  0.54691264  1
  Se  Se119  1  0.09739016  0.77042243  0.05256513  1
  Se  Se120  1  0.07852328  0.74643622  0.55639186  1
  Se  Se121  1  0.41107663  0.07502881  0.05920869  1
  Se  Se122  1  0.42525690  0.09509042  0.54529372  1
  Se  Se123  1  0.42361562  0.40874047  0.05184909  1
  Se  Se124  1  0.40536292  0.42244703  0.56291006  1
  Se  Se125  1  0.41103676  0.73775116  0.06086829  1
  Se  Se126  1  0.41174963  0.74401487  0.55488271  1
  Se  Se127  1  0.73595833  0.10133069  0.07043544  1
  Se  Se128  1  0.75902490  0.08784484  0.55114168  1
  Se  Se129  1  0.75818791  0.41900208  0.06146858  1
  Se  Se130  1  0.74386049  0.40931570  0.55308626  1
  Se  Se131  1  0.75592934  0.75161895  0.05557423  1
  Se  Se132  1  0.75801955  0.75167805  0.54329702  1
  Se  Se133  1  0.24954549  0.24640287  0.05500134  1
  Se  Se134  1  0.25030279  0.24997535  0.54488164  1
  Se  Se135  1  0.25127682  0.58318341  0.06406484  1
  Se  Se136  1  0.24292988  0.57953882  0.56302330  1
  Se  Se137  1  0.24613372  0.91241549  0.04888484  1
  Se  Se138  1  0.25797667  0.92540115  0.55285939  1
  Se  Se139  1  0.59675132  0.25020032  0.07295150  1
  Se  Se140  1  0.58606521  0.25555543  0.54510046  1
  Se  Se141  1  0.58475935  0.57887291  0.05109300  1
  Se  Se142  1  0.59057576  0.59107431  0.54601380  1
  Se  Se143  1  0.58638831  0.91262263  0.06358472  1
  Se  Se144  1  0.59626288  0.93356592  0.56128719  1
  Se  Se145  1  0.91284779  0.25113887  0.05917291  1
  Se  Se146  1  0.91171926  0.24365129  0.54443373  1
  Se  Se147  1  0.93372504  0.59271470  0.06475155  1
  Se  Se148  1  0.91628799  0.57993932  0.56131366  1
  Se  Se149  1  0.91603621  0.93283451  0.05623671  1
  Se  Se150  1  0.91663321  0.90979556  0.55585668  1
  Se  Se151  1  0.08843864  0.24346611  0.44473382  1
  Se  Se152  1  0.07940498  0.25947197  0.95004263  1
  Se  Se153  1  0.07294932  0.57579382  0.44376184  1
  Se  Se154  1  0.07251683  0.59887225  0.94619638  1
  Se  Se155  1  0.08609983  0.90723818  0.44768426  1
  Se  Se156  1  0.08002397  0.92381012  0.94629495  1
  Se  Se157  1  0.42402184  0.26205882  0.44274437  1
  Se  Se158  1  0.41188905  0.24679103  0.93827150  1
  Se  Se159  1  0.40191508  0.59594471  0.44440618  1
  Se  Se160  1  0.42080087  0.57317791  0.95051108  1
  Se  Se161  1  0.41354030  0.92687355  0.43403468  1
  Se  Se162  1  0.40816719  0.91976321  0.93703077  1
  Se  Se163  1  0.76057703  0.24854201  0.43470179  1
  Se  Se164  1  0.75248080  0.25134458  0.95436610  1
  Se  Se165  1  0.74274988  0.58525299  0.42872406  1
  Se  Se166  1  0.76058734  0.57672386  0.95665005  1
  Se  Se167  1  0.75674539  0.91390380  0.44666994  1
  Se  Se168  1  0.73587212  0.93399248  0.95885968  1
  Se  Se169  1  0.24851361  0.08556850  0.44543973  1
  Se  Se170  1  0.24479484  0.08742548  0.94836468  1
  Se  Se171  1  0.24569330  0.41987327  0.44533117  1
  Se  Se172  1  0.25515700  0.40980397  0.94283532  1
  Se  Se173  1  0.24602125  0.74772220  0.45484722  1
  Se  Se174  1  0.25232086  0.74370470  0.94883035  1
  Se  Se175  1  0.58922189  0.08894260  0.44414027  1
  Se  Se176  1  0.59268169  0.07206551  0.94988558  1
  Se  Se177  1  0.59375398  0.41408266  0.42864360  1
  Se  Se178  1  0.58759714  0.41064166  0.95466876  1
  Se  Se179  1  0.58580273  0.75545364  0.43529206  1
  Se  Se180  1  0.59556250  0.73779738  0.93859428  1
  Se  Se181  1  0.92104538  0.07632609  0.44257420  1
  Se  Se182  1  0.91454833  0.09512404  0.94824179  1
  Se  Se183  1  0.92009549  0.40135723  0.42809862  1
  Se  Se184  1  0.92069877  0.42417393  0.95436824  1
  Se  Se185  1  0.91257359  0.74127399  0.44533594  1
  Se  Se186  1  0.89251689  0.78113450  0.94191500  1
  Se  Se187  1  0.25204944  0.25232311  0.30432682  1
  Se  Se188  1  0.24878537  0.25057090  0.80009146  1
  Se  Se189  1  0.23828991  0.57660601  0.31449507  1
  Se  Se190  1  0.25701817  0.59053446  0.80606950  1
  Se  Se191  1  0.24006417  0.90510398  0.30340273  1
  Se  Se192  1  0.24138049  0.91231528  0.81426180  1
  Se  Se193  1  0.60682445  0.26873277  0.29964335  1
  Se  Se194  1  0.57358487  0.23652665  0.80944365  1
  Se  Se195  1  0.58281016  0.58955797  0.29845497  1
  Se  Se196  1  0.57955723  0.56692428  0.81233717  1
  Se  Se197  1  0.59055648  0.92022208  0.29674591  1
  Se  Se198  1  0.57958700  0.90051716  0.81568849  1
  Se  Se199  1  0.92810462  0.23782825  0.29577487  1
  Se  Se200  1  0.91007939  0.25343188  0.80859972  1
  Se  Se201  1  0.90671831  0.57101093  0.29339006  1
  Se  Se202  1  0.91881291  0.58710373  0.81021628  1
  Se  Se203  1  0.91615326  0.91235323  0.31141297  1
  Se  Se204  1  0.91747026  0.92794032  0.80794970  1
  Se  Se205  1  0.09376967  0.08047897  0.30736986  1
  Se  Se206  1  0.07873156  0.09241252  0.80171504  1
  Se  Se207  1  0.08409334  0.41177340  0.30274901  1
  Se  Se208  1  0.09832841  0.43088513  0.81015119  1
  Se  Se209  1  0.07660647  0.73977508  0.30671215  1
  Se  Se210  1  0.08137734  0.75177904  0.80946266  1
  Se  Se211  1  0.41838442  0.09188605  0.31721012  1
  Se  Se212  1  0.41639759  0.08130557  0.80127084  1
  Se  Se213  1  0.41428356  0.42255205  0.30002477  1
  Se  Se214  1  0.41132442  0.40727900  0.80876890  1
  Se  Se215  1  0.42328536  0.76373877  0.31186172  1
  Se  Se216  1  0.41849143  0.74128893  0.80007584  1
  Se  Se217  1  0.74654040  0.07922940  0.29926283  1
  Se  Se218  1  0.76196134  0.09105977  0.81794746  1
  Se  Se219  1  0.76739043  0.42283454  0.28498728  1
  Se  Se220  1  0.75732837  0.42150073  0.81234779  1
  Se  Se221  1  0.75365107  0.75160588  0.30089818  1
  Se  Se222  1  0.75985302  0.74987953  0.80775188  1
  Se  Se223  1  0.24299154  0.08060547  0.18643419  1
  Se  Se224  1  0.23881955  0.09398793  0.68178267  1
  Se  Se225  1  0.25422409  0.41175801  0.19843775  1
  Se  Se226  1  0.24450343  0.39838518  0.69920360  1
  Se  Se227  1  0.24081094  0.74488764  0.19003430  1
  Se  Se228  1  0.24794679  0.75090307  0.69858563  1
  Se  Se229  1  0.56316312  0.09526698  0.21157251  1
  Se  Se230  1  0.58475105  0.08817827  0.69047779  1
  Se  Se231  1  0.57613097  0.42569002  0.18979345  1
  Se  Se232  1  0.57252855  0.41913424  0.68979248  1
  Se  Se233  1  0.58540893  0.74615545  0.20129133  1
  Se  Se234  1  0.57784361  0.75310974  0.68116173  1
  Se  Se235  1  0.90397400  0.09648867  0.19302721  1
  Se  Se236  1  0.92173224  0.08002322  0.69486390  1
  Se  Se237  1  0.93997018  0.38514698  0.19962389  1
  Se  Se238  1  0.91052795  0.42448848  0.69131100  1
  Se  Se239  1  0.92379120  0.75029150  0.19482798  1
  Se  Se240  1  0.92057975  0.74801160  0.69924667  1
  Se  Se241  1  0.08937416  0.24547217  0.19688366  1
  Se  Se242  1  0.08301633  0.24894985  0.68123721  1
  Se  Se243  1  0.08314670  0.58364149  0.20284927  1
  Se  Se244  1  0.07467454  0.59114668  0.70129102  1
  Se  Se245  1  0.08297760  0.90320532  0.18741235  1
  Se  Se246  1  0.08196550  0.91877941  0.69763373  1
  Se  Se247  1  0.41681187  0.24595821  0.20425384  1
  Se  Se248  1  0.41126906  0.25214460  0.69250055  1
  Se  Se249  1  0.41444969  0.58339584  0.18602466  1
  Se  Se250  1  0.41345197  0.58537291  0.70178112  1
  Se  Se251  1  0.42097193  0.91182492  0.18652427  1
  Se  Se252  1  0.42353177  0.90746170  0.68888934  1
  Se  Se253  1  0.72760321  0.28096945  0.20842215  1
  Se  Se254  1  0.75794609  0.24316900  0.69019616  1
  Se  Se255  1  0.74316013  0.59431023  0.19636916  1
  Se  Se256  1  0.75479674  0.57791228  0.68826074  1
  Se  Se257  1  0.75233190  0.91543082  0.19619565  1
  Se  Se258  1  0.75497611  0.91238047  0.69505884  1
