# generated using pymatgen
data_In86Cu29Se144
_symmetry_space_group_name_H-M   'P 1'
_cell_length_a   17.58230056
_cell_length_b   17.57924370
_cell_length_c   23.44563325
_cell_angle_alpha   89.96597617
_cell_angle_beta   89.99011192
_cell_angle_gamma   89.99100089
_symmetry_Int_Tables_number   1
_chemical_formula_structural   In86Cu29Se144
_chemical_formula_sum   'In86 Cu29 Se144'
_cell_volume   7246.65799589
_cell_formula_units_Z   1
loop_
 _symmetry_equiv_pos_site_id
 _symmetry_equiv_pos_as_xyz
  1  'x, y, z'
loop_
 _atom_site_type_symbol
 _atom_site_label
 _atom_site_symmetry_multiplicity
 _atom_site_fract_x
 _atom_site_fract_y
 _atom_site_fract_z
 _atom_site_occupancy
  In  In0  1  -0.00799066  0.15161617  0.11655765  1
  In  In1  1  0.01019925  0.17350169  0.62693898  1
  In  In2  1  0.00106612  0.51915144  0.12944798  1
  In  In3  1  0.01303615  0.49290373  0.63158636  1
  In  In4  1  0.00128621  0.83074383  0.12303836  1
  In  In5  1  -0.00075849  0.81727667  0.62947922  1
  In  In6  1  0.31654172  0.16759427  0.12058342  1
  In  In7  1  0.34200530  0.15657708  0.63066763  1
  In  In8  1  0.34665218  0.51042647  0.13158218  1
  In  In9  1  0.32896446  0.50213735  0.62544718  1
  In  In10  1  0.33422038  0.83486953  0.12515771  1
  In  In11  1  0.33245366  0.83458004  0.62295201  1
  In  In12  1  0.67652263  0.16212405  0.12694303  1
  In  In13  1  0.65054390  0.16586969  0.62372299  1
  In  In14  1  0.66500918  0.48916499  0.13089415  1
  In  In15  1  0.66315491  0.50315847  0.61859706  1
  In  In16  1  0.67113714  0.83531612  0.11003636  1
  In  In17  1  0.66776419  0.84387878  0.62775817  1
  In  In18  1  0.16160598  -0.00962342  0.36750664  1
  In  In19  1  0.17379106  -0.00974938  0.87952563  1
  In  In20  1  0.17934472  0.33142909  0.38212970  1
  In  In21  1  0.15978690  0.32756764  0.86780876  1
  In  In22  1  0.17010512  0.67015473  0.37568034  1
  In  In23  1  0.17460132  0.67520718  0.86877203  1
  In  In24  1  0.48681247  0.01174455  0.37940337  1
  In  In25  1  0.48720853  -0.01090787  0.86736695  1
  In  In26  1  0.50762675  0.32959925  0.38822800  1
  In  In27  1  0.49464352  0.34299512  0.86851467  1
  In  In28  1  0.48631851  0.67726252  0.38523758  1
  In  In29  1  0.49916722  0.67811094  0.87341846  1
  In  In30  1  0.84160680  -0.01050888  0.36661567  1
  In  In31  1  0.82834931  0.00197016  0.87916106  1
  In  In32  1  0.82699358  0.34377277  0.37260926  1
  In  In33  1  0.84191641  0.32593392  0.88077455  1
  In  In34  1  0.84011769  0.66682826  0.36671046  1
  In  In35  1  0.83511440  0.65799231  0.88782148  1
  In  In36  1  0.01133221  0.15820108  0.37247365  1
  In  In37  1  -0.00670962  0.17152106  0.88012611  1
  In  In38  1  -0.00225756  0.51321860  0.37739714  1
  In  In39  1  -0.00566495  0.49562658  0.87167559  1
  In  In40  1  0.00837519  0.84387918  0.36208821  1
  In  In41  1  0.00615915  0.82597379  0.87867067  1
  In  In42  1  0.34789267  0.16697256  0.37183818  1
  In  In43  1  0.32419184  0.15793407  0.86679654  1
  In  In44  1  0.32269156  0.50729686  0.38647628  1
  In  In45  1  0.33306062  0.50146527  0.86251054  1
  In  In46  1  0.33256580  0.83509745  0.37454450  1
  In  In47  1  0.33266532  0.83277153  0.87399553  1
  In  In48  1  0.64469194  0.16994979  0.37297434  1
  In  In49  1  0.68280066  0.16413569  0.87644947  1
  In  In50  1  0.65869739  0.48496822  0.36997360  1
  In  In51  1  0.67285507  0.51702954  0.87971300  1
  In  In52  1  0.66438251  0.82300328  0.37455904  1
  In  In53  1  0.65191970  0.83253300  0.88583772  1
  In  In54  1  0.16657556  -0.00651945  0.12153094  1
  In  In55  1  0.18170209  0.00382121  0.62459611  1
  In  In56  1  0.17506391  0.32318303  0.12157334  1
  In  In57  1  0.15413551  0.34990159  0.62953489  1
  In  In58  1  0.15709457  0.68175285  0.13346202  1
  In  In59  1  0.16699942  0.66903361  0.62553905  1
  In  In60  1  0.50593401  -0.01053649  0.12776215  1
  In  In61  1  0.49774875  -0.00227499  0.62345954  1
  In  In62  1  0.50562283  0.34844388  0.13419487  1
  In  In63  1  0.49464816  0.31736288  0.61201788  1
  In  In64  1  0.48745433  0.66491130  0.13060878  1
  In  In65  1  0.48769042  0.65608030  0.61596195  1
  In  In66  1  0.83644066  0.00124961  0.11803992  1
  In  In67  1  0.82801275  -0.02111250  0.63773054  1
  In  In68  1  0.82768840  0.32204491  0.12048574  1
  In  In69  1  0.84198282  0.34438113  0.62838571  1
  In  In70  1  0.84672639  0.68252506  0.10607525  1
  In  In71  1  0.84622961  0.67386992  0.63246480  1
  In  In72  1  0.00150480  0.33227827  0.25545090  1
  In  In73  1  0.66981690  0.66563770  0.24791874  1
  In  In74  1  0.66922357  0.32959095  0.75001882  1
  In  In75  1  0.82503474  0.16978466  0.50576315  1
  In  In76  1  0.66671639  0.67170102  0.75242411  1
  In  In77  1  0.16527562  0.49976566  0.00488729  1
  In  In78  1  0.83109337  0.50061280  0.49857568  1
  In  In79  1  0.83100340  0.82879109  0.50086644  1
  In  In80  1  0.50039306  0.16486578  0.00361043  1
  In  In81  1  0.50462024  0.50625653  0.00297452  1
  In  In82  1  0.33976311  0.33311172  0.25519423  1
  In  In83  1  0.00387563  0.00151606  0.76057222  1
  In  In84  1  0.17394373  0.17086142  0.50057001  1
  In  In85  1  0.66555213  0.00118595  0.24323036  1
  Cu  Cu86  1  0.33051423  0.67431841  0.00147201  1
  Cu  Cu87  1  0.49703552  0.83459547  0.25141327  1
  Cu  Cu88  1  0.32921888  0.32952332  -0.00302852  1
  Cu  Cu89  1  0.50001799  0.16146491  0.74535216  1
  Cu  Cu90  1  0.00395631  0.66950888  0.00136221  1
  Cu  Cu91  1  0.17264309  0.17630804  0.74739237  1
  Cu  Cu92  1  0.83750268  0.16486279  0.75531138  1
  Cu  Cu93  1  0.01012441  0.66785061  0.50027053  1
  Cu  Cu94  1  0.49269854  0.49730268  0.74109701  1
  Cu  Cu95  1  0.16368898  0.50902894  0.74824948  1
  Cu  Cu96  1  0.49357800  0.83344322  0.74824765  1
  Cu  Cu97  1  0.33585973  -0.00272010  0.50015932  1
  Cu  Cu98  1  0.17074717  0.83584307  0.75016929  1
  Cu  Cu99  1  0.33438921  0.33728407  0.50465361  1
  Cu  Cu100  1  0.65825324  -0.00022940  0.50237645  1
  Cu  Cu101  1  0.82778087  0.16623952  0.24353258  1
  Cu  Cu102  1  0.84119153  0.50293459  0.75550524  1
  Cu  Cu103  1  0.32658278  0.67088556  0.50205698  1
  Cu  Cu104  1  0.16259645  0.15190170  0.24498572  1
  Cu  Cu105  1  0.00251729  -0.00320730  -0.00174163  1
  Cu  Cu106  1  0.66536666  0.00233668  0.00026073  1
  Cu  Cu107  1  0.83591664  0.50190010  0.24911275  1
  Cu  Cu108  1  0.65936745  0.66402392  0.49742238  1
  Cu  Cu109  1  0.00204216  -0.00598119  0.49280442  1
  Cu  Cu110  1  0.67473435  0.33485283  0.00181217  1
  Cu  Cu111  1  0.17551174  0.50540915  0.25430277  1
  Cu  Cu112  1  0.17321654  0.83058685  0.24722563  1
  Cu  Cu113  1  0.33256614  -0.00861504  -0.00396243  1
  Cu  Cu114  1  -0.00323408  0.33526921  -0.00274910  1
  Se  Se115  1  0.08708674  0.08034454  0.05121155  1
  Se  Se116  1  0.07798961  0.07591788  0.55549001  1
  Se  Se117  1  0.07357705  0.40899575  0.06507167  1
  Se  Se118  1  0.07827424  0.41874896  0.55111140  1
  Se  Se119  1  0.08956219  0.75294202  0.05174745  1
  Se  Se120  1  0.08659754  0.75554800  0.55446897  1
  Se  Se121  1  0.40847000  0.07259093  0.05960836  1
  Se  Se122  1  0.41762280  0.08368589  0.55293872  1
  Se  Se123  1  0.40848138  0.41008322  0.05710577  1
  Se  Se124  1  0.41757729  0.42103192  0.55745985  1
  Se  Se125  1  0.41875839  0.75012937  0.05623409  1
  Se  Se126  1  0.41496700  0.75301443  0.55242544  1
  Se  Se127  1  0.75030381  0.08616654  0.05141741  1
  Se  Se128  1  0.74668722  0.06705930  0.56478155  1
  Se  Se129  1  0.75240387  0.41923896  0.05771395  1
  Se  Se130  1  0.74318963  0.40427206  0.55633016  1
  Se  Se131  1  0.74967818  0.75149303  0.04284588  1
  Se  Se132  1  0.74183096  0.73690853  0.56167943  1
  Se  Se133  1  0.24252640  0.24418271  0.04333074  1
  Se  Se134  1  0.25569908  0.25684454  0.56794364  1
  Se  Se135  1  0.25557394  0.59059609  0.06366752  1
  Se  Se136  1  0.24594381  0.58412861  0.55558641  1
  Se  Se137  1  0.24948932  0.91010946  0.05241499  1
  Se  Se138  1  0.24848208  0.91676706  0.55159405  1
  Se  Se139  1  0.58802310  0.26103937  0.06141574  1
  Se  Se140  1  0.59084897  0.24882097  0.54686661  1
  Se  Se141  1  0.59076088  0.59200212  0.06636452  1
  Se  Se142  1  0.57818121  0.57833669  0.54903257  1
  Se  Se143  1  0.57848070  0.91810249  0.04888725  1
  Se  Se144  1  0.58028301  0.91127160  0.55481642  1
  Se  Se145  1  0.91753847  0.24768616  0.05264357  1
  Se  Se146  1  0.92537805  0.25807167  0.55693502  1
  Se  Se147  1  0.92199817  0.57872804  0.04841281  1
  Se  Se148  1  0.92298982  0.59004713  0.55855795  1
  Se  Se149  1  0.91865797  0.91451399  0.05279882  1
  Se  Se150  1  0.92264347  0.92110439  0.55946233  1
  Se  Se151  1  0.07457832  0.25567011  0.44314663  1
  Se  Se152  1  0.08286445  0.25411292  0.94497880  1
  Se  Se153  1  0.08917101  0.58279690  0.44572039  1
  Se  Se154  1  0.08284960  0.58837256  0.93909455  1
  Se  Se155  1  0.08562842  0.91070359  0.44256200  1
  Se  Se156  1  0.08635065  0.91241331  0.94643284  1
  Se  Se157  1  0.41134369  0.24965992  0.44966116  1
  Se  Se158  1  0.41408802  0.25351087  0.93825047  1
  Se  Se159  1  0.41318728  0.58534798  0.45306872  1
  Se  Se160  1  0.40552696  0.58646420  0.94187643  1
  Se  Se161  1  0.41872237  0.91441362  0.44544845  1
  Se  Se162  1  0.41975499  0.90969843  0.94565829  1
  Se  Se163  1  0.74188405  0.25415340  0.43765041  1
  Se  Se164  1  0.75441181  0.24751369  0.94946029  1
  Se  Se165  1  0.74500839  0.59181195  0.43528585  1
  Se  Se166  1  0.74923063  0.58123780  0.95775905  1
  Se  Se167  1  0.74311351  0.92486468  0.44106640  1
  Se  Se168  1  0.74576930  0.91705280  0.94630622  1
  Se  Se169  1  0.25479685  0.07698859  0.43752609  1
  Se  Se170  1  0.25316128  0.08156344  0.94529859  1
  Se  Se171  1  0.24550308  0.41810968  0.45535857  1
  Se  Se172  1  0.25386831  0.41607196  0.93851723  1
  Se  Se173  1  0.24812916  0.75569500  0.44566508  1
  Se  Se174  1  0.24730886  0.75336639  0.94520096  1
  Se  Se175  1  0.57881296  0.08457607  0.44853035  1
  Se  Se176  1  0.58449264  0.07868673  0.93688098  1
  Se  Se177  1  0.58550476  0.42252233  0.45161013  1
  Se  Se178  1  0.59137722  0.41001579  0.94050317  1
  Se  Se179  1  0.58065838  0.75606147  0.44951526  1
  Se  Se180  1  0.58303475  0.73464803  0.95087898  1
  Se  Se181  1  0.91678703  0.07827033  0.44232143  1
  Se  Se182  1  0.91682464  0.08115394  0.94618360  1
  Se  Se183  1  0.92511848  0.40966502  0.44143266  1
  Se  Se184  1  0.91419371  0.42111388  0.94677777  1
  Se  Se185  1  0.92580606  0.74577157  0.43975390  1
  Se  Se186  1  0.91821091  0.75169539  0.94896449  1
  Se  Se187  1  0.23942987  0.23752102  0.30541747  1
  Se  Se188  1  0.25716744  0.25811067  0.80186035  1
  Se  Se189  1  0.25757332  0.58835134  0.30741478  1
  Se  Se190  1  0.25182933  0.58967448  0.79871108  1
  Se  Se191  1  0.25384558  0.91698122  0.30111247  1
  Se  Se192  1  0.25394986  0.91942343  0.80311882  1
  Se  Se193  1  0.56943672  0.25445502  0.30480533  1
  Se  Se194  1  0.57763131  0.23903309  0.81074558  1
  Se  Se195  1  0.57975204  0.59124572  0.31700299  1
  Se  Se196  1  0.57262870  0.57355244  0.80540263  1
  Se  Se197  1  0.57970519  0.91424114  0.31039572  1
  Se  Se198  1  0.58077218  0.90860203  0.80555009  1
  Se  Se199  1  0.90747130  0.23917921  0.31130117  1
  Se  Se200  1  0.91975429  0.25241316  0.80388801  1
  Se  Se201  1  0.92262090  0.58413449  0.29855287  1
  Se  Se202  1  0.91739783  0.59175901  0.80870549  1
  Se  Se203  1  0.91604729  0.91309647  0.29377620  1
  Se  Se204  1  0.91170206  0.90962298  0.81319506  1
  Se  Se205  1  0.07630187  0.07260599  0.29832832  1
  Se  Se206  1  0.09605485  0.09608388  0.81313470  1
  Se  Se207  1  0.09583077  0.42177091  0.31263129  1
  Se  Se208  1  0.08439319  0.42185441  0.80349881  1
  Se  Se209  1  0.08854890  0.74881540  0.30249139  1
  Se  Se210  1  0.08478071  0.75307447  0.80144970  1
  Se  Se211  1  0.41586094  0.08190364  0.29937271  1
  Se  Se212  1  0.41446358  0.08129527  0.80038058  1
  Se  Se213  1  0.41663604  0.42114075  0.32259605  1
  Se  Se214  1  0.41096720  0.41241342  0.79487928  1
  Se  Se215  1  0.41551595  0.75053923  0.30506158  1
  Se  Se216  1  0.41225425  0.74832433  0.80197121  1
  Se  Se217  1  0.75148857  0.08962992  0.31113364  1
  Se  Se218  1  0.75097675  0.07974544  0.80192758  1
  Se  Se219  1  0.74925681  0.41791373  0.29739625  1
  Se  Se220  1  0.75468627  0.42348660  0.81190100  1
  Se  Se221  1  0.76202524  0.76306040  0.30216468  1
  Se  Se222  1  0.75047353  0.75110462  0.82090455  1
  Se  Se223  1  0.25134922  0.07637358  0.19177905  1
  Se  Se224  1  0.25186336  0.08355684  0.70060156  1
  Se  Se225  1  0.24547989  0.42094343  0.19130068  1
  Se  Se226  1  0.24651595  0.42143331  0.69702528  1
  Se  Se227  1  0.25949081  0.74636340  0.19681275  1
  Se  Se228  1  0.25105161  0.75215342  0.69370123  1
  Se  Se229  1  0.57176303  0.09632329  0.19164444  1
  Se  Se230  1  0.58416581  0.07661252  0.69531471  1
  Se  Se231  1  0.57566241  0.43093797  0.20643591  1
  Se  Se232  1  0.57947581  0.41676702  0.68779156  1
  Se  Se233  1  0.58233948  0.76208878  0.18934074  1
  Se  Se234  1  0.57256921  0.75053659  0.68738742  1
  Se  Se235  1  0.91222906  0.08171358  0.19375908  1
  Se  Se236  1  0.91534555  0.08625094  0.69034128  1
  Se  Se237  1  0.91559281  0.41791422  0.18932740  1
  Se  Se238  1  0.92205038  0.41791643  0.70154219  1
  Se  Se239  1  0.92617642  0.73622078  0.18827897  1
  Se  Se240  1  0.90409474  0.76731142  0.70333352  1
  Se  Se241  1  0.08490965  0.24151336  0.18991870  1
  Se  Se242  1  0.08226792  0.25631875  0.69941075  1
  Se  Se243  1  0.08851213  0.58610452  0.20201603  1
  Se  Se244  1  0.07820630  0.59289749  0.69647262  1
  Se  Se245  1  0.08673941  0.91152729  0.19282882  1
  Se  Se246  1  0.08876171  0.91736338  0.69066607  1
  Se  Se247  1  0.41687401  0.24535562  0.18464023  1
  Se  Se248  1  0.42088040  0.25110408  0.69424053  1
  Se  Se249  1  0.42719981  0.57749812  0.20633804  1
  Se  Se250  1  0.41061384  0.58794211  0.69518277  1
  Se  Se251  1  0.41554682  0.91842931  0.19661910  1
  Se  Se252  1  0.41270343  0.91877143  0.69365283  1
  Se  Se253  1  0.74421996  0.25479747  0.19763502  1
  Se  Se254  1  0.75940037  0.24046435  0.68813115  1
  Se  Se255  1  0.76173028  0.58268800  0.18517989  1
  Se  Se256  1  0.75676189  0.57496064  0.69221467  1
  Se  Se257  1  0.75499464  0.90885260  0.18708195  1
  Se  Se258  1  0.74441625  0.90629010  0.70783279  1
