# generated using pymatgen
data_In86Cu29Se144
_symmetry_space_group_name_H-M   'P 1'
_cell_length_a   17.58809273
_cell_length_b   17.58514531
_cell_length_c   23.45021743
_cell_angle_alpha   90.00086998
_cell_angle_beta   90.00604146
_cell_angle_gamma   90.00472431
_symmetry_Int_Tables_number   1
_chemical_formula_structural   In86Cu29Se144
_chemical_formula_sum   'In86 Cu29 Se144'
_cell_volume   7252.89813808
_cell_formula_units_Z   1
loop_
 _symmetry_equiv_pos_site_id
 _symmetry_equiv_pos_as_xyz
  1  'x, y, z'
loop_
 _atom_site_type_symbol
 _atom_site_label
 _atom_site_symmetry_multiplicity
 _atom_site_fract_x
 _atom_site_fract_y
 _atom_site_fract_z
 _atom_site_occupancy
  In  In0  1  -0.00543153  0.16273881  0.12357777  1
  In  In1  1  0.00368674  0.15992945  0.60735929  1
  In  In2  1  0.01191586  0.49102059  0.12868927  1
  In  In3  1  0.00062528  0.49556755  0.61704223  1
  In  In4  1  0.01716137  0.84336528  0.13673803  1
  In  In5  1  0.00002429  0.84033372  0.60362715  1
  In  In6  1  0.34891326  0.17144121  0.11383300  1
  In  In7  1  0.33498062  0.17196694  0.63126606  1
  In  In8  1  0.33664941  0.50156768  0.12524890  1
  In  In9  1  0.32636241  0.49091308  0.62053511  1
  In  In10  1  0.33112554  0.82389605  0.12960518  1
  In  In11  1  0.35040269  0.84644466  0.61399594  1
  In  In12  1  0.66277382  0.17501521  0.13374225  1
  In  In13  1  0.65899882  0.14541167  0.62411870  1
  In  In14  1  0.65190854  0.51045746  0.13609620  1
  In  In15  1  0.67316007  0.50897647  0.61474161  1
  In  In16  1  0.64127762  0.85346366  0.15198340  1
  In  In17  1  0.66559710  0.83841950  0.61482666  1
  In  In18  1  0.15923201  0.00978710  0.38709602  1
  In  In19  1  0.20727266  0.00422186  0.87702885  1
  In  In20  1  0.16986034  0.32851964  0.37637970  1
  In  In21  1  0.18680119  0.30552156  0.89754488  1
  In  In22  1  0.17402351  0.66108762  0.37772434  1
  In  In23  1  0.16342863  0.66309918  0.87964860  1
  In  In24  1  0.50537278  -0.02176996  0.37040958  1
  In  In25  1  0.49694825  -0.00112257  0.88339044  1
  In  In26  1  0.50911823  0.34160605  0.36616175  1
  In  In27  1  0.49111184  0.34289068  0.87995763  1
  In  In28  1  0.49119488  0.66929741  0.36839377  1
  In  In29  1  0.49617264  0.66799491  0.88434733  1
  In  In30  1  0.82775648  0.00174319  0.37597176  1
  In  In31  1  0.82115477  0.01353852  0.86870482  1
  In  In32  1  0.82504448  0.33988634  0.38522208  1
  In  In33  1  0.82430429  0.32932996  0.87170631  1
  In  In34  1  0.81880136  0.67510476  0.38193174  1
  In  In35  1  0.83747108  0.66991317  0.87225342  1
  In  In36  1  0.00492515  0.15253942  0.38682903  1
  In  In37  1  0.01326027  0.17643531  0.87359518  1
  In  In38  1  0.00334560  0.49431584  0.38225773  1
  In  In39  1  0.00686072  0.50025737  0.87611727  1
  In  In40  1  -0.01713521  0.85595290  0.39467190  1
  In  In41  1  0.00294762  0.83154993  0.87131422  1
  In  In42  1  0.32266808  0.16932660  0.37307593  1
  In  In43  1  0.33484851  0.16744995  0.88112097  1
  In  In44  1  0.33426475  0.49951005  0.37162828  1
  In  In45  1  0.34054354  0.48869684  0.88027233  1
  In  In46  1  0.34674627  0.82018643  0.38191695  1
  In  In47  1  0.35409409  0.85310378  0.86349067  1
  In  In48  1  0.67278090  0.17464117  0.37013624  1
  In  In49  1  0.66386547  0.14569868  0.86979930  1
  In  In50  1  0.65940364  0.49981259  0.37660613  1
  In  In51  1  0.66177791  0.49010986  0.87569677  1
  In  In52  1  0.65798170  0.83082217  0.36654658  1
  In  In53  1  0.64636818  0.83745794  0.87367794  1
  In  In54  1  0.16387158  -0.00341174  0.13164656  1
  In  In55  1  0.17935444  0.01180857  0.61029429  1
  In  In56  1  0.17142398  0.34760157  0.11790839  1
  In  In57  1  0.17329326  0.33132133  0.61935546  1
  In  In58  1  0.18445049  0.67164273  0.13184725  1
  In  In59  1  0.16473402  0.66046159  0.61658203  1
  In  In60  1  0.50185775  0.00958421  0.11620470  1
  In  In61  1  0.51022896  -0.00639587  0.64204474  1
  In  In62  1  0.49616663  0.33305838  0.12780764  1
  In  In63  1  0.48451460  0.33140464  0.62654276  1
  In  In64  1  0.50090633  0.66777449  0.12648002  1
  In  In65  1  0.50545326  0.66999082  0.61736718  1
  In  In66  1  0.83875352  0.00522894  0.13409725  1
  In  In67  1  0.82563021  -0.01268343  0.60731076  1
  In  In68  1  0.82749792  0.32402916  0.12914189  1
  In  In69  1  0.83945257  0.33643766  0.61539151  1
  In  In70  1  0.82285461  0.65452074  0.13200499  1
  In  In71  1  0.83220258  0.67087732  0.61160620  1
  In  In72  1  0.82930285  0.83229783  0.01213116  1
  In  In73  1  -0.00534671  0.67729631  0.26318118  1
  In  In74  1  0.00115424  0.00119006  0.74090232  1
  In  In75  1  0.17903279  0.83178953  0.00100978  1
  In  In76  1  -0.00086082  0.66561669  0.74592063  1
  In  In77  1  0.66175657  0.33363627  0.74925811  1
  In  In78  1  0.49614891  0.16592542  0.50367288  1
  In  In79  1  0.33408030  0.66912773  0.75458498  1
  In  In80  1  0.83547602  0.16626014  0.00045505  1
  In  In81  1  0.00478643  0.33326522  0.74257604  1
  In  In82  1  -0.00409081  0.32842491  0.25406192  1
  In  In83  1  0.82725119  0.49648966  -0.00358725  1
  In  In84  1  0.66708859  0.67035017  0.73777690  1
  In  In85  1  0.33445170  0.00108614  0.25198974  1
  Cu  Cu86  1  0.33520252  0.65988141  0.50006418  1
  Cu  Cu87  1  0.17288497  0.16355703  0.75320734  1
  Cu  Cu88  1  0.49547509  0.49882391  0.24935353  1
  Cu  Cu89  1  0.82922492  0.16519329  0.74031794  1
  Cu  Cu90  1  0.33309132  0.66299987  0.00433077  1
  Cu  Cu91  1  0.00283413  0.66141027  0.49453222  1
  Cu  Cu92  1  0.66488022  0.33555353  0.49686823  1
  Cu  Cu93  1  0.17541230  0.83631772  0.73664551  1
  Cu  Cu94  1  0.66123513  0.66594470  0.49190660  1
  Cu  Cu95  1  0.01329985  0.00223160  0.00018390  1
  Cu  Cu96  1  0.50159073  0.16330502  0.24440302  1
  Cu  Cu97  1  0.33490676  -0.00177576  0.49720325  1
  Cu  Cu98  1  0.65731617  0.33364644  0.00413408  1
  Cu  Cu99  1  0.65620137  0.66692636  0.00654614  1
  Cu  Cu100  1  0.83421563  0.16220874  0.25513143  1
  Cu  Cu101  1  0.83625791  0.83671508  0.25738053  1
  Cu  Cu102  1  0.17479978  0.50652044  0.24698408  1
  Cu  Cu103  1  0.82569873  0.83922260  0.73842948  1
  Cu  Cu104  1  0.16548841  0.84192029  0.26267418  1
  Cu  Cu105  1  0.66152372  -0.00271254  0.49520369  1
  Cu  Cu106  1  0.82515784  0.49665776  0.25953156  1
  Cu  Cu107  1  0.49830990  0.50342535  0.74977639  1
  Cu  Cu108  1  0.66265328  -0.00661138  0.00218213  1
  Cu  Cu109  1  0.33206129  0.33620829  0.49816771  1
  Cu  Cu110  1  0.16715461  0.17120570  0.25241291  1
  Cu  Cu111  1  0.00630344  0.65815609  0.00301970  1
  Cu  Cu112  1  0.33463712  0.33638564  0.00403385  1
  Cu  Cu113  1  0.00297560  0.33179552  0.49741137  1
  Cu  Cu114  1  0.17257677  0.48266078  0.74979579  1
  Se  Se115  1  0.08730233  0.08311941  0.06089334  1
  Se  Se116  1  0.07675252  0.06748832  0.54367962  1
  Se  Se117  1  0.07768497  0.41800393  0.05009325  1
  Se  Se118  1  0.08748285  0.41335172  0.55260780  1
  Se  Se119  1  0.08105864  0.74549487  0.06290630  1
  Se  Se120  1  0.08541111  0.74512664  0.54842543  1
  Se  Se121  1  0.41539221  0.07875985  0.04469946  1
  Se  Se122  1  0.41165525  0.07355666  0.56335075  1
  Se  Se123  1  0.41953701  0.41874329  0.05669117  1
  Se  Se124  1  0.41773066  0.41689841  0.55157700  1
  Se  Se125  1  0.41378181  0.74857599  0.05718442  1
  Se  Se126  1  0.41933708  0.74786622  0.54931569  1
  Se  Se127  1  0.74597078  0.07567259  0.06075673  1
  Se  Se128  1  0.74350269  0.08320290  0.54767427  1
  Se  Se129  1  0.74052487  0.41251320  0.06344857  1
  Se  Se130  1  0.75219659  0.41870551  0.55008473  1
  Se  Se131  1  0.73769940  0.74295265  0.06740131  1
  Se  Se132  1  0.74401020  0.75135384  0.54701907  1
  Se  Se133  1  0.25084771  0.25290584  0.05617002  1
  Se  Se134  1  0.25754311  0.24573494  0.55370360  1
  Se  Se135  1  0.24698620  0.58376533  0.05721043  1
  Se  Se136  1  0.24902806  0.57659428  0.55113369  1
  Se  Se137  1  0.26054267  0.92618588  0.06202202  1
  Se  Se138  1  0.25080365  0.91133803  0.54802104  1
  Se  Se139  1  0.58077910  0.24716988  0.05917870  1
  Se  Se140  1  0.58871577  0.25764944  0.56242923  1
  Se  Se141  1  0.57668389  0.57706179  0.05519846  1
  Se  Se142  1  0.58109097  0.58236054  0.54879056  1
  Se  Se143  1  0.58483652  0.90982092  0.05894691  1
  Se  Se144  1  0.57482587  0.92575013  0.55525550  1
  Se  Se145  1  0.92304801  0.26328041  0.05602948  1
  Se  Se146  1  0.91655273  0.24901102  0.54803214  1
  Se  Se147  1  0.91922715  0.58490555  0.06068631  1
  Se  Se148  1  0.91822205  0.58153921  0.55139814  1
  Se  Se149  1  0.93183951  0.92369640  0.06150608  1
  Se  Se150  1  0.90966176  0.91234928  0.53755337  1
  Se  Se151  1  0.08709212  0.24844681  0.44591115  1
  Se  Se152  1  0.07082572  0.25463937  0.95343530  1
  Se  Se153  1  0.08962219  0.57796317  0.44601953  1
  Se  Se154  1  0.08822702  0.57722183  0.94888050  1
  Se  Se155  1  0.09641918  0.90804866  0.45134847  1
  Se  Se156  1  0.08784018  0.92084288  0.93649666  1
  Se  Se157  1  0.41423446  0.25660982  0.43827813  1
  Se  Se158  1  0.41722348  0.25399524  0.94857458  1
  Se  Se159  1  0.41725593  0.58176560  0.44127585  1
  Se  Se160  1  0.41536963  0.57978968  0.94799447  1
  Se  Se161  1  0.42183185  0.91473192  0.44803158  1
  Se  Se162  1  0.41633927  0.91077519  0.95112164  1
  Se  Se163  1  0.74695353  0.24633728  0.44973275  1
  Se  Se164  1  0.73594420  0.25216014  0.94255601  1
  Se  Se165  1  0.74810409  0.57757549  0.44621275  1
  Se  Se166  1  0.73907544  0.59588605  0.94004205  1
  Se  Se167  1  0.73919877  0.91344819  0.43815823  1
  Se  Se168  1  0.74993631  0.92033081  0.94179297  1
  Se  Se169  1  0.25386742  0.08951181  0.44997048  1
  Se  Se170  1  0.23039290  0.10859361  0.94945265  1
  Se  Se171  1  0.24972419  0.41750498  0.44221751  1
  Se  Se172  1  0.24903199  0.41958727  0.95087153  1
  Se  Se173  1  0.25313922  0.74609709  0.44772881  1
  Se  Se174  1  0.26485316  0.74521842  0.93510557  1
  Se  Se175  1  0.58216466  0.08086635  0.43585099  1
  Se  Se176  1  0.58587394  0.08345678  0.95023218  1
  Se  Se177  1  0.57671370  0.41632785  0.44728381  1
  Se  Se178  1  0.57959467  0.42165312  0.94974114  1
  Se  Se179  1  0.57810754  0.74919874  0.43876388  1
  Se  Se180  1  0.58038458  0.75333769  0.94982487  1
  Se  Se181  1  0.90909639  0.07978837  0.44835342  1
  Se  Se182  1  0.92607224  0.07421733  0.93803902  1
  Se  Se183  1  0.91634329  0.41808564  0.45019918  1
  Se  Se184  1  0.91803313  0.40657183  0.93787430  1
  Se  Se185  1  0.91411583  0.74568603  0.44813002  1
  Se  Se186  1  0.92605209  0.74500020  0.94753955  1
  Se  Se187  1  0.25193389  0.25656087  0.30073972  1
  Se  Se188  1  0.25041840  0.24922963  0.80861727  1
  Se  Se189  1  0.25544184  0.58890286  0.30221618  1
  Se  Se190  1  0.24287297  0.57285894  0.80952927  1
  Se  Se191  1  0.25091047  0.91866667  0.32111292  1
  Se  Se192  1  0.25313510  0.91493298  0.79691913  1
  Se  Se193  1  0.58272376  0.24740845  0.30049468  1
  Se  Se194  1  0.57911821  0.24905356  0.81613364  1
  Se  Se195  1  0.57784412  0.57987725  0.30563471  1
  Se  Se196  1  0.58048305  0.58270643  0.80759375  1
  Se  Se197  1  0.58416538  0.91420745  0.29241386  1
  Se  Se198  1  0.59386314  0.94086754  0.80912489  1
  Se  Se199  1  0.91056941  0.24301797  0.31884278  1
  Se  Se200  1  0.90868948  0.24000695  0.80300192  1
  Se  Se201  1  0.90917979  0.57625962  0.31554488  1
  Se  Se202  1  0.91002558  0.57298328  0.80621951  1
  Se  Se203  1  0.91890801  0.92120310  0.30822655  1
  Se  Se204  1  0.90820335  0.91214717  0.80457055  1
  Se  Se205  1  0.08813699  0.08745330  0.30842065  1
  Se  Se206  1  0.09108187  0.07994209  0.80954150  1
  Se  Se207  1  0.09025259  0.42561983  0.30414655  1
  Se  Se208  1  0.09177265  0.40929077  0.81294527  1
  Se  Se209  1  0.08435380  0.76316391  0.32328083  1
  Se  Se210  1  0.09833411  0.75783994  0.80110732  1
  Se  Se211  1  0.42695935  0.08990927  0.31371831  1
  Se  Se212  1  0.39044641  0.05939935  0.81932381  1
  Se  Se213  1  0.41258406  0.41323940  0.30118741  1
  Se  Se214  1  0.41676453  0.41835031  0.80156229  1
  Se  Se215  1  0.41703853  0.75834506  0.29869157  1
  Se  Se216  1  0.43748290  0.75571364  0.80268299  1
  Se  Se217  1  0.74521271  0.08038241  0.30313993  1
  Se  Se218  1  0.74351568  0.08014883  0.78973178  1
  Se  Se219  1  0.74262299  0.41074076  0.30977588  1
  Se  Se220  1  0.75848343  0.42793938  0.80271261  1
  Se  Se221  1  0.75057748  0.74820997  0.30164063  1
  Se  Se222  1  0.75494751  0.75906101  0.80567594  1
  Se  Se223  1  0.24950108  0.09440275  0.19104543  1
  Se  Se224  1  0.24855686  0.08120705  0.69302057  1
  Se  Se225  1  0.25128137  0.41805632  0.19424687  1
  Se  Se226  1  0.25609711  0.40422323  0.69452245  1
  Se  Se227  1  0.24627458  0.75942705  0.20700054  1
  Se  Se228  1  0.25211998  0.74947381  0.68198841  1
  Se  Se229  1  0.58421141  0.07816425  0.19377253  1
  Se  Se230  1  0.55513081  0.11411516  0.69648757  1
  Se  Se231  1  0.58055211  0.41212073  0.19908931  1
  Se  Se232  1  0.58116819  0.42978836  0.68666870  1
  Se  Se233  1  0.59985413  0.72786142  0.19617158  1
  Se  Se234  1  0.57369016  0.76525145  0.68953118  1
  Se  Se235  1  0.92430927  0.08608935  0.20176253  1
  Se  Se236  1  0.90843742  0.08583570  0.67974397  1
  Se  Se237  1  0.90685042  0.42484586  0.19510756  1
  Se  Se238  1  0.90903733  0.42554083  0.69218738  1
  Se  Se239  1  0.91070760  0.75876055  0.18970535  1
  Se  Se240  1  0.91425818  0.75985741  0.68475313  1
  Se  Se241  1  0.08867560  0.24961894  0.18924691  1
  Se  Se242  1  0.08916211  0.23344673  0.68721897  1
  Se  Se243  1  0.08395837  0.58824039  0.19676756  1
  Se  Se244  1  0.09278761  0.56818699  0.69357331  1
  Se  Se245  1  0.08421988  0.92792540  0.21087138  1
  Se  Se246  1  0.08951156  0.91122916  0.67976434  1
  Se  Se247  1  0.41358677  0.24605088  0.19583290  1
  Se  Se248  1  0.42362484  0.24524653  0.70151774  1
  Se  Se249  1  0.41522271  0.58547193  0.19553665  1
  Se  Se250  1  0.41904118  0.58192055  0.68771105  1
  Se  Se251  1  0.42102902  0.91647005  0.18759777  1
  Se  Se252  1  0.41119674  0.91516618  0.69861323  1
  Se  Se253  1  0.75168491  0.24938365  0.20404926  1
  Se  Se254  1  0.75124555  0.24955951  0.68341920  1
  Se  Se255  1  0.74382507  0.58152259  0.20641168  1
  Se  Se256  1  0.76524941  0.57973318  0.68895769  1
  Se  Se257  1  0.75655812  0.92025911  0.19996256  1
  Se  Se258  1  0.74401305  0.92290478  0.68675345  1
