# generated using pymatgen
data_In86Cu29Se144
_symmetry_space_group_name_H-M   'P 1'
_cell_length_a   17.57491146
_cell_length_b   17.57558322
_cell_length_c   23.43559562
_cell_angle_alpha   90.00448997
_cell_angle_beta   90.02033848
_cell_angle_gamma   90.00129120
_symmetry_Int_Tables_number   1
_chemical_formula_structural   In86Cu29Se144
_chemical_formula_sum   'In86 Cu29 Se144'
_cell_volume   7239.00469018
_cell_formula_units_Z   1
loop_
 _symmetry_equiv_pos_site_id
 _symmetry_equiv_pos_as_xyz
  1  'x, y, z'
loop_
 _atom_site_type_symbol
 _atom_site_label
 _atom_site_symmetry_multiplicity
 _atom_site_fract_x
 _atom_site_fract_y
 _atom_site_fract_z
 _atom_site_occupancy
  In  In0  1  -0.00071118  0.15440587  0.12860707  1
  In  In1  1  -0.00088894  0.16635023  0.62183134  1
  In  In2  1  -0.00277033  0.52183496  0.13038039  1
  In  In3  1  -0.00218658  0.47506573  0.62918134  1
  In  In4  1  0.00849377  0.82213156  0.12795676  1
  In  In5  1  -0.00075257  0.84906906  0.62639605  1
  In  In6  1  0.33056726  0.16362128  0.11930622  1
  In  In7  1  0.34264762  0.17459124  0.62239494  1
  In  In8  1  0.33520871  0.48890404  0.12254376  1
  In  In9  1  0.32697903  0.51350998  0.63607547  1
  In  In10  1  0.33812886  0.84173843  0.11913949  1
  In  In11  1  0.33573368  0.81916689  0.62760863  1
  In  In12  1  0.66326221  0.17090748  0.11949878  1
  In  In13  1  0.65276140  0.16140346  0.61723357  1
  In  In14  1  0.66925673  0.50102882  0.12068827  1
  In  In15  1  0.66326390  0.50063492  0.63082663  1
  In  In16  1  0.65025085  0.83191870  0.12159315  1
  In  In17  1  0.67439201  0.84274510  0.61680435  1
  In  In18  1  0.17811894  0.00189700  0.36853787  1
  In  In19  1  0.15667855  0.01073704  0.87754940  1
  In  In20  1  0.16539163  0.33181651  0.38502109  1
  In  In21  1  0.16115803  0.32750639  0.86911309  1
  In  In22  1  0.15566312  0.66532719  0.37372288  1
  In  In23  1  0.18134024  0.65883328  0.88042279  1
  In  In24  1  0.49072072  0.00776654  0.37836693  1
  In  In25  1  0.51369847  -0.00374466  0.88824451  1
  In  In26  1  0.50692691  0.32381585  0.37521801  1
  In  In27  1  0.48967186  0.34209980  0.88453100  1
  In  In28  1  0.51709035  0.66342741  0.37158180  1
  In  In29  1  0.49719398  0.66630981  0.88274166  1
  In  In30  1  0.84231677  -0.00970782  0.38023583  1
  In  In31  1  0.83537065  0.00171187  0.86495603  1
  In  In32  1  0.81842284  0.33934486  0.37308049  1
  In  In33  1  0.84412851  0.33266849  0.87431158  1
  In  In34  1  0.84304635  0.67297995  0.36821271  1
  In  In35  1  0.82595783  0.66457426  0.88105804  1
  In  In36  1  0.00924462  0.15500391  0.38152553  1
  In  In37  1  0.00210238  0.17552087  0.86782349  1
  In  In38  1  0.00180398  0.51173282  0.37253002  1
  In  In39  1  0.00260703  0.49095091  0.87620430  1
  In  In40  1  -0.00327428  0.82586435  0.36961357  1
  In  In41  1  -0.00671978  0.84770251  0.87633180  1
  In  In42  1  0.34107968  0.16282790  0.38228808  1
  In  In43  1  0.32202857  0.17198550  0.87519820  1
  In  In44  1  0.33255952  0.48771881  0.37793849  1
  In  In45  1  0.34348021  0.50432449  0.86328960  1
  In  In46  1  0.32721479  0.84901864  0.37510623  1
  In  In47  1  0.34426782  0.82289817  0.88011316  1
  In  In48  1  0.66132780  0.17490084  0.37823280  1
  In  In49  1  0.67173878  0.15622855  0.87785276  1
  In  In50  1  0.68761180  0.50616802  0.35091192  1
  In  In51  1  0.66459930  0.49354448  0.89096198  1
  In  In52  1  0.67406060  0.83120925  0.37955889  1
  In  In53  1  0.65833672  0.83564406  0.87934752  1
  In  In54  1  0.16792806  0.00140920  0.12321580  1
  In  In55  1  0.15027412  0.00023692  0.62708081  1
  In  In56  1  0.17568061  0.33320752  0.12438808  1
  In  In57  1  0.16782352  0.33121849  0.62413147  1
  In  In58  1  0.13382345  0.66767360  0.12372819  1
  In  In59  1  0.17993607  0.66762429  0.62752766  1
  In  In60  1  0.49251243  -0.01301747  0.11273721  1
  In  In61  1  0.50833573  0.00655344  0.62141765  1
  In  In62  1  0.52227036  0.34087463  0.09657944  1
  In  In63  1  0.50279064  0.32275365  0.62943385  1
  In  In64  1  0.50952603  0.67569244  0.12185948  1
  In  In65  1  0.48841000  0.66706479  0.62631886  1
  In  In66  1  0.84251489  0.00934935  0.13025706  1
  In  In67  1  0.82973199  0.00390934  0.62117714  1
  In  In68  1  0.81269024  0.33704272  0.12705218  1
  In  In69  1  0.85128209  0.33486363  0.62854868  1
  In  In70  1  0.84497688  0.65047853  0.13903951  1
  In  In71  1  0.82126231  0.66740246  0.62320460  1
  In  In72  1  0.66182463  0.66645295  0.75873494  1
  In  In73  1  0.16750029  0.50075028  0.00304917  1
  In  In74  1  -0.00497446  0.33813310  0.25411173  1
  In  In75  1  0.83769635  0.49913806  0.49802589  1
  In  In76  1  0.16748711  0.83581270  0.50241081  1
  In  In77  1  0.50145757  0.49181940  0.50031385  1
  In  In78  1  0.83078311  0.17065894  0.00324480  1
  In  In79  1  0.00358789  0.66664813  0.75795215  1
  In  In80  1  0.66538574  0.33256275  0.75315850  1
  In  In81  1  0.33489471  0.00170139  0.75359424  1
  In  In82  1  0.33807948  0.32869148  0.24208163  1
  In  In83  1  0.33088528  0.67202743  0.24904548  1
  In  In84  1  0.83138306  0.83050208  -0.00084175  1
  In  In85  1  0.66860795  -0.00068887  0.24672605  1
  Cu  Cu86  1  0.32873184  -0.00099058  -0.00556497  1
  Cu  Cu87  1  0.33501533  0.00420952  0.50124405  1
  Cu  Cu88  1  0.49602500  0.16654536  0.24946186  1
  Cu  Cu89  1  0.33527925  0.66409077  0.50529172  1
  Cu  Cu90  1  0.16402800  0.83720694  0.24600038  1
  Cu  Cu91  1  0.33460690  0.66876249  0.00295982  1
  Cu  Cu92  1  0.49593139  0.83966062  0.24596559  1
  Cu  Cu93  1  0.83497992  0.84302754  0.74454448  1
  Cu  Cu94  1  -0.00411411  0.00155078  0.50073372  1
  Cu  Cu95  1  0.83273576  0.16510255  0.74519623  1
  Cu  Cu96  1  0.66276558  0.00387893  0.49644098  1
  Cu  Cu97  1  0.66703112  0.33311408  0.49738921  1
  Cu  Cu98  1  0.16042485  0.16838398  0.74775135  1
  Cu  Cu99  1  0.16464058  0.49409531  0.75136682  1
  Cu  Cu100  1  0.17161129  0.83317506  0.74992446  1
  Cu  Cu101  1  0.00291778  0.33005418  -0.00197181  1
  Cu  Cu102  1  0.32953396  0.33239430  0.50343411  1
  Cu  Cu103  1  0.17047031  0.16303602  0.25101627  1
  Cu  Cu104  1  0.00390062  0.32425404  0.50209577  1
  Cu  Cu105  1  0.66727898  0.67585774  0.49644269  1
  Cu  Cu106  1  0.66639025  0.66283903  0.00373279  1
  Cu  Cu107  1  -0.00304096  0.66777735  0.49664268  1
  Cu  Cu108  1  0.50505747  0.83404056  0.75676778  1
  Cu  Cu109  1  0.00609498  0.00338315  0.00045102  1
  Cu  Cu110  1  0.83438403  0.82976401  0.25321075  1
  Cu  Cu111  1  0.50861096  0.49588421  0.24006851  1
  Cu  Cu112  1  0.32895847  0.32982546  -0.00245789  1
  Cu  Cu113  1  0.50137437  0.16417116  0.74957195  1
  Cu  Cu114  1  0.83514147  0.16511179  0.25074158  1
  Se  Se115  1  0.08585304  0.08931811  0.05422983  1
  Se  Se116  1  0.08332169  0.08318915  0.55154927  1
  Se  Se117  1  0.07464036  0.41268498  0.06385082  1
  Se  Se118  1  0.08374398  0.41384382  0.55311140  1
  Se  Se119  1  0.08645687  0.75938829  0.04712921  1
  Se  Se120  1  0.07647460  0.74457543  0.56256376  1
  Se  Se121  1  0.41183979  0.07983533  0.05059532  1
  Se  Se122  1  0.42035112  0.08638026  0.55462311  1
  Se  Se123  1  0.41272567  0.41691633  0.04684815  1
  Se  Se124  1  0.40956796  0.41212730  0.56498647  1
  Se  Se125  1  0.42003509  0.75301842  0.05432552  1
  Se  Se126  1  0.41974085  0.75233164  0.55124166  1
  Se  Se127  1  0.74575647  0.07051682  0.05846187  1
  Se  Se128  1  0.74594019  0.08615475  0.55198095  1
  Se  Se129  1  0.74339734  0.41254321  0.05011344  1
  Se  Se130  1  0.74411700  0.41278411  0.56069434  1
  Se  Se131  1  0.74697347  0.74315387  0.06430918  1
  Se  Se132  1  0.75492283  0.75375282  0.54989469  1
  Se  Se133  1  0.24523907  0.24864892  0.05178610  1
  Se  Se134  1  0.24832368  0.24486544  0.55489589  1
  Se  Se135  1  0.25305414  0.59320580  0.06621744  1
  Se  Se136  1  0.24976163  0.58066281  0.55474933  1
  Se  Se137  1  0.24708124  0.91754315  0.05201585  1
  Se  Se138  1  0.25782286  0.92431688  0.56505603  1
  Se  Se139  1  0.57432065  0.22444865  0.04066449  1
  Se  Se140  1  0.57816279  0.25418400  0.54958834  1
  Se  Se141  1  0.57731622  0.58109437  0.05374048  1
  Se  Se142  1  0.59106044  0.59137774  0.55699601  1
  Se  Se143  1  0.58806692  0.91741789  0.04685834  1
  Se  Se144  1  0.58139459  0.91776605  0.55094562  1
  Se  Se145  1  0.92291308  0.25748242  0.06524690  1
  Se  Se146  1  0.91240474  0.24779043  0.55252002  1
  Se  Se147  1  0.91985543  0.59261631  0.05485378  1
  Se  Se148  1  0.92533866  0.58697501  0.56364711  1
  Se  Se149  1  0.92247813  0.92369535  0.05865130  1
  Se  Se150  1  0.91343149  0.91640788  0.55299540  1
  Se  Se151  1  0.08900893  0.24122058  0.45009397  1
  Se  Se152  1  0.08389479  0.24725751  0.94375279  1
  Se  Se153  1  0.08338779  0.58340488  0.44882835  1
  Se  Se154  1  0.07621844  0.58940951  0.94306792  1
  Se  Se155  1  0.07855098  0.92142215  0.43912638  1
  Se  Se156  1  0.08455581  0.91724050  0.94608858  1
  Se  Se157  1  0.41747007  0.25644545  0.44720076  1
  Se  Se158  1  0.41127699  0.24512434  0.94519372  1
  Se  Se159  1  0.41456205  0.58817453  0.43982442  1
  Se  Se160  1  0.40843562  0.58071182  0.94564564  1
  Se  Se161  1  0.41461446  0.91752690  0.44772714  1
  Se  Se162  1  0.41825420  0.91492678  0.94728945  1
  Se  Se163  1  0.75305365  0.25014581  0.44664621  1
  Se  Se164  1  0.74475380  0.26010087  0.94086946  1
  Se  Se165  1  0.74443205  0.58747534  0.43898000  1
  Se  Se166  1  0.75261027  0.58093759  0.95263683  1
  Se  Se167  1  0.74994189  0.91837801  0.44839242  1
  Se  Se168  1  0.74820787  0.92817971  0.94054989  1
  Se  Se169  1  0.24878702  0.08174233  0.44564401  1
  Se  Se170  1  0.24488064  0.08656315  0.94582571  1
  Se  Se171  1  0.24821614  0.41855505  0.45142170  1
  Se  Se172  1  0.25125684  0.41395339  0.93689476  1
  Se  Se173  1  0.25593250  0.74320858  0.44126136  1
  Se  Se174  1  0.25127499  0.75103930  0.94905709  1
  Se  Se175  1  0.57877319  0.08856265  0.44432647  1
  Se  Se176  1  0.57987577  0.09762720  0.95268527  1
  Se  Se177  1  0.59879177  0.42037320  0.43329410  1
  Se  Se178  1  0.57775183  0.41327504  0.95508404  1
  Se  Se179  1  0.57887989  0.75450589  0.44475873  1
  Se  Se180  1  0.58569550  0.74766097  0.94858339  1
  Se  Se181  1  0.91224035  0.08550334  0.44780677  1
  Se  Se182  1  0.92082024  0.08145718  0.94055152  1
  Se  Se183  1  0.92673266  0.40615867  0.43871798  1
  Se  Se184  1  0.91876496  0.41515992  0.94835057  1
  Se  Se185  1  0.91517405  0.75258895  0.44512241  1
  Se  Se186  1  0.92655566  0.74323715  0.94148957  1
  Se  Se187  1  0.24826918  0.24701718  0.31001007  1
  Se  Se188  1  0.24751234  0.24960673  0.79888207  1
  Se  Se189  1  0.24896380  0.57720603  0.31102143  1
  Se  Se190  1  0.24762706  0.58254385  0.80070132  1
  Se  Se191  1  0.25336270  0.91812195  0.29559945  1
  Se  Se192  1  0.24751692  0.91216628  0.81510773  1
  Se  Se193  1  0.58417338  0.24800392  0.29984873  1
  Se  Se194  1  0.57773793  0.24367499  0.81437627  1
  Se  Se195  1  0.58577851  0.58353642  0.29497332  1
  Se  Se196  1  0.57766405  0.57109235  0.81581027  1
  Se  Se197  1  0.57764720  0.91532231  0.31042458  1
  Se  Se198  1  0.58535560  0.92158089  0.80731647  1
  Se  Se199  1  0.91319994  0.24192524  0.31521518  1
  Se  Se200  1  0.91394088  0.25094658  0.79824454  1
  Se  Se201  1  0.90038857  0.56643685  0.30635707  1
  Se  Se202  1  0.90812757  0.57767419  0.81139999  1
  Se  Se203  1  0.91813913  0.91633576  0.30305115  1
  Se  Se204  1  0.92252576  0.92248374  0.79717993  1
  Se  Se205  1  0.08556914  0.08100312  0.30411513  1
  Se  Se206  1  0.07849227  0.08345027  0.80063678  1
  Se  Se207  1  0.09423150  0.42120963  0.31098276  1
  Se  Se208  1  0.07775369  0.41241385  0.80141544  1
  Se  Se209  1  0.08534531  0.75004737  0.30049679  1
  Se  Se210  1  0.09362372  0.75745258  0.81621392  1
  Se  Se211  1  0.41225352  0.08552019  0.30346295  1
  Se  Se212  1  0.42566843  0.08635600  0.81546846  1
  Se  Se213  1  0.42870341  0.42109926  0.30473820  1
  Se  Se214  1  0.40905797  0.40045392  0.80348854  1
  Se  Se215  1  0.42197244  0.75852466  0.31155635  1
  Se  Se216  1  0.42275675  0.74628237  0.80560799  1
  Se  Se217  1  0.75445482  0.08541788  0.31254839  1
  Se  Se218  1  0.74832014  0.08437655  0.79966097  1
  Se  Se219  1  0.74820846  0.40163637  0.28998543  1
  Se  Se220  1  0.75231400  0.42408179  0.81284978  1
  Se  Se221  1  0.74690266  0.74979197  0.30503935  1
  Se  Se222  1  0.75930115  0.76327044  0.80882392  1
  Se  Se223  1  0.25259027  0.08434606  0.19307464  1
  Se  Se224  1  0.24497923  0.08746821  0.68959995  1
  Se  Se225  1  0.24033935  0.42784817  0.19794869  1
  Se  Se226  1  0.24889742  0.41491501  0.69479048  1
  Se  Se227  1  0.24215591  0.75543989  0.18433882  1
  Se  Se228  1  0.25537250  0.74625872  0.70274392  1
  Se  Se229  1  0.57388244  0.08411788  0.18742645  1
  Se  Se230  1  0.58585918  0.08246913  0.69717306  1
  Se  Se231  1  0.58311780  0.40822576  0.18411652  1
  Se  Se232  1  0.57061942  0.42534725  0.69703155  1
  Se  Se233  1  0.58164216  0.75294435  0.20010030  1
  Se  Se234  1  0.58269193  0.75694429  0.69036562  1
  Se  Se235  1  0.92339422  0.08008669  0.20585536  1
  Se  Se236  1  0.91671929  0.08220060  0.69082071  1
  Se  Se237  1  0.90949187  0.42178495  0.18821109  1
  Se  Se238  1  0.90653550  0.42355517  0.70470814  1
  Se  Se239  1  0.92102454  0.74911407  0.19943630  1
  Se  Se240  1  0.91245841  0.75272948  0.69116392  1
  Se  Se241  1  0.08929814  0.24686640  0.19440533  1
  Se  Se242  1  0.07883538  0.25162300  0.69172725  1
  Se  Se243  1  0.08825496  0.58115108  0.20462247  1
  Se  Se244  1  0.08677626  0.57837072  0.69034309  1
  Se  Se245  1  0.08086899  0.92037567  0.19195542  1
  Se  Se246  1  0.08323411  0.91581872  0.70255543  1
  Se  Se247  1  0.43107081  0.24879388  0.17963981  1
  Se  Se248  1  0.41606426  0.24913062  0.70095800  1
  Se  Se249  1  0.42077541  0.57839146  0.18895873  1
  Se  Se250  1  0.42454722  0.58272803  0.70034421  1
  Se  Se251  1  0.41380918  0.92263886  0.19395356  1
  Se  Se252  1  0.42400440  0.91096838  0.69249181  1
  Se  Se253  1  0.74793946  0.23959203  0.19492950  1
  Se  Se254  1  0.75009607  0.24594562  0.68568156  1
  Se  Se255  1  0.73432927  0.59072376  0.19441770  1
  Se  Se256  1  0.75641725  0.57710215  0.69875430  1
  Se  Se257  1  0.75792607  0.90658843  0.18759619  1
  Se  Se258  1  0.74653510  0.92200807  0.69286532  1
