# generated using pymatgen
data_In86Cu29Se144
_symmetry_space_group_name_H-M   'P 1'
_cell_length_a   17.55102577
_cell_length_b   17.55130602
_cell_length_c   23.39991191
_cell_angle_alpha   89.96399805
_cell_angle_beta   89.98287937
_cell_angle_gamma   89.97764274
_symmetry_Int_Tables_number   1
_chemical_formula_structural   In86Cu29Se144
_chemical_formula_sum   'In86 Cu29 Se144'
_cell_volume   7208.18669887
_cell_formula_units_Z   1
loop_
 _symmetry_equiv_pos_site_id
 _symmetry_equiv_pos_as_xyz
  1  'x, y, z'
loop_
 _atom_site_type_symbol
 _atom_site_label
 _atom_site_symmetry_multiplicity
 _atom_site_fract_x
 _atom_site_fract_y
 _atom_site_fract_z
 _atom_site_occupancy
  In  In0  1  0.00006023  0.16417775  0.11865187  1
  In  In1  1  -0.00135721  0.16120940  0.65224070  1
  In  In2  1  -0.02112284  0.47563266  0.09470769  1
  In  In3  1  -0.00230292  0.48845303  0.62752468  1
  In  In4  1  0.01552021  0.83485599  0.12302033  1
  In  In5  1  0.00297869  0.83819631  0.62319499  1
  In  In6  1  0.32306046  0.15498093  0.11259986  1
  In  In7  1  0.33194375  0.15830286  0.64776349  1
  In  In8  1  0.31199539  0.49712039  0.11837708  1
  In  In9  1  0.34458236  0.49160451  0.64013366  1
  In  In10  1  0.33660221  0.84352507  0.12055650  1
  In  In11  1  0.32794413  0.83619363  0.62748556  1
  In  In12  1  0.66804815  0.16888256  0.11287152  1
  In  In13  1  0.67052626  0.16646859  0.64000728  1
  In  In14  1  0.66818803  0.46252007  0.11507223  1
  In  In15  1  0.66210977  0.49818813  0.62896727  1
  In  In16  1  0.68239927  0.84870696  0.12550907  1
  In  In17  1  0.67152253  0.84694824  0.61626622  1
  In  In18  1  0.15910084  -0.00743909  0.36731628  1
  In  In19  1  0.16316557  0.00200219  0.87726792  1
  In  In20  1  0.15618479  0.34155163  0.36867664  1
  In  In21  1  0.16412079  0.32455623  0.87796532  1
  In  In22  1  0.18136141  0.66950182  0.37358400  1
  In  In23  1  0.18145770  0.66374649  0.88324581  1
  In  In24  1  0.49349257  -0.00334847  0.37092809  1
  In  In25  1  0.51133129  0.01792778  0.86428417  1
  In  In26  1  0.51598542  0.33006847  0.38290684  1
  In  In27  1  0.50024055  0.32617822  0.87139831  1
  In  In28  1  0.49608385  0.66654514  0.38659703  1
  In  In29  1  0.49525947  0.67470424  0.86890796  1
  In  In30  1  0.82907523  0.00351365  0.37160154  1
  In  In31  1  0.86821776  0.04057934  0.83134808  1
  In  In32  1  0.83169897  0.32835300  0.36685548  1
  In  In33  1  0.83248082  0.32009000  0.88145479  1
  In  In34  1  0.84933110  0.67185886  0.37563079  1
  In  In35  1  0.82997476  0.65999238  0.87379164  1
  In  In36  1  -0.00148858  0.16516365  0.36135624  1
  In  In37  1  0.00258365  0.17122869  0.88033992  1
  In  In38  1  0.00079163  0.49258532  0.36720200  1
  In  In39  1  0.01270149  0.47029655  0.89917578  1
  In  In40  1  -0.00678382  0.84584074  0.38572050  1
  In  In41  1  0.00326171  0.86709479  0.86390007  1
  In  In42  1  0.34852170  0.15895747  0.37285752  1
  In  In43  1  0.33079096  0.16670139  0.87288475  1
  In  In44  1  0.33012299  0.51373926  0.37552704  1
  In  In45  1  0.32988120  0.49443989  0.86812459  1
  In  In46  1  0.32627161  0.83779178  0.38340712  1
  In  In47  1  0.32407981  0.83136251  0.86662929  1
  In  In48  1  0.67306687  0.17437322  0.36863673  1
  In  In49  1  0.67331502  0.16321235  0.87834399  1
  In  In50  1  0.66513100  0.48481349  0.37700494  1
  In  In51  1  0.68630940  0.48506616  0.88639521  1
  In  In52  1  0.65800610  0.84404650  0.38450210  1
  In  In53  1  0.67245015  0.84212228  0.86821233  1
  In  In54  1  0.16780935  -0.00081481  0.12187300  1
  In  In55  1  0.17819266  -0.00410934  0.64453624  1
  In  In56  1  0.14073365  0.31017700  0.09520417  1
  In  In57  1  0.16706822  0.32294741  0.64785980  1
  In  In58  1  0.16424560  0.65774401  0.10481735  1
  In  In59  1  0.16357147  0.68426114  0.62812683  1
  In  In60  1  0.49468247  0.00481727  0.12618504  1
  In  In61  1  0.50341677  -0.00811405  0.62856676  1
  In  In62  1  0.51342719  0.32492362  0.12318650  1
  In  In63  1  0.50261300  0.33419204  0.63150343  1
  In  In64  1  0.49012690  0.66808519  0.12562366  1
  In  In65  1  0.49241938  0.66012083  0.62217045  1
  In  In66  1  0.82419650  0.01306345  0.12780088  1
  In  In67  1  0.84127439  -0.01981772  0.64707578  1
  In  In68  1  0.84060282  0.32221986  0.10998747  1
  In  In69  1  0.83506819  0.32568356  0.64504475  1
  In  In70  1  0.84617539  0.66694332  0.12248472  1
  In  In71  1  0.81988475  0.66910847  0.62631657  1
  In  In72  1  0.65984173  0.66390171  0.74796458  1
  In  In73  1  0.00377492  0.66312595  0.75095336  1
  In  In74  1  0.50764757  0.16631844  0.51310206  1
  In  In75  1  0.83701047  0.83905535  -0.00529965  1
  In  In76  1  0.33143531  0.66732868  0.24646778  1
  In  In77  1  0.83012060  0.16626379  0.50578459  1
  In  In78  1  0.00581091  0.66622398  0.24826285  1
  In  In79  1  0.49269912  0.83759418  -0.00090128  1
  In  In80  1  0.16919739  0.50624349  0.49748066  1
  In  In81  1  0.67043260  0.66608304  0.24814725  1
  In  In82  1  0.49262118  0.49524629  -0.00749498  1
  In  In83  1  0.16768269  0.16430068  0.51279277  1
  In  In84  1  0.33071976  0.32704179  0.24731214  1
  In  In85  1  0.82844295  0.50753939  0.50417617  1
  Cu  Cu86  1  0.83685494  0.17473001  0.24207337  1
  Cu  Cu87  1  0.34103785  0.34031516  0.51252770  1
  Cu  Cu88  1  0.16672220  0.16617872  0.23823827  1
  Cu  Cu89  1  -0.00278970  0.00617384  -0.00725467  1
  Cu  Cu90  1  0.66884443  0.00387760  0.50133868  1
  Cu  Cu91  1  0.16413978  0.83621303  0.75224566  1
  Cu  Cu92  1  0.50329885  0.48726206  0.25110280  1
  Cu  Cu93  1  0.50839846  0.49468140  0.75405570  1
  Cu  Cu94  1  0.00145694  0.67455605  -0.00809871  1
  Cu  Cu95  1  -0.00088387  0.32727544  0.50403472  1
  Cu  Cu96  1  0.33386474  0.66831601  0.50451794  1
  Cu  Cu97  1  0.14699410  0.48577305  0.23413597  1
  Cu  Cu98  1  0.50554922  0.84355618  0.25286308  1
  Cu  Cu99  1  0.32704846  -0.00284244  0.50374028  1
  Cu  Cu100  1  0.49886997  0.16971417  0.75526258  1
  Cu  Cu101  1  0.65799426  0.66112388  0.00208285  1
  Cu  Cu102  1  0.17023202  0.83928493  0.24799654  1
  Cu  Cu103  1  0.00132602  0.00050380  0.50697716  1
  Cu  Cu104  1  0.82664286  0.48607147  0.23609383  1
  Cu  Cu105  1  0.33566549  0.33041161  -0.00947474  1
  Cu  Cu106  1  0.84492714  0.48689475  0.76126612  1
  Cu  Cu107  1  0.00317822  0.67924728  0.50121611  1
  Cu  Cu108  1  0.50832604  0.16334392  0.24742084  1
  Cu  Cu109  1  0.83449584  0.84916110  0.25589383  1
  Cu  Cu110  1  0.67178262  0.00772396  -0.00791472  1
  Cu  Cu111  1  0.33116627  -0.00020757  -0.00613560  1
  Cu  Cu112  1  0.49044604  0.83502910  0.74690513  1
  Cu  Cu113  1  0.66418734  0.67319325  0.50315361  1
  Cu  Cu114  1  0.16697444  0.49759636  0.76288121  1
  Se  Se115  1  0.08522624  0.08026477  0.05159729  1
  Se  Se116  1  0.07346708  0.07962110  0.57243811  1
  Se  Se117  1  0.10937891  0.44192273  0.05213058  1
  Se  Se118  1  0.08806750  0.40645440  0.55894043  1
  Se  Se119  1  0.08444058  0.75565327  0.04638183  1
  Se  Se120  1  0.08890615  0.76055431  0.55230411  1
  Se  Se121  1  0.41892024  0.07869329  0.04890854  1
  Se  Se122  1  0.40390761  0.08068248  0.56393311  1
  Se  Se123  1  0.40817990  0.40583762  0.06075518  1
  Se  Se124  1  0.42542268  0.42373247  0.56173836  1
  Se  Se125  1  0.40296232  0.73887082  0.05174707  1
  Se  Se126  1  0.41456686  0.75446818  0.55875521  1
  Se  Se127  1  0.75905849  0.08789088  0.04629413  1
  Se  Se128  1  0.74739764  0.07391372  0.56782998  1
  Se  Se129  1  0.77034023  0.42196570  0.04311777  1
  Se  Se130  1  0.75553271  0.40856434  0.56713535  1
  Se  Se131  1  0.74414664  0.74570441  0.05631689  1
  Se  Se132  1  0.75235845  0.75464052  0.55206131  1
  Se  Se133  1  0.25126698  0.24360904  0.04219800  1
  Se  Se134  1  0.26017392  0.25748847  0.56942600  1
  Se  Se135  1  0.26205882  0.58734006  0.04199486  1
  Se  Se136  1  0.25477324  0.58718482  0.56708707  1
  Se  Se137  1  0.25008070  0.91658250  0.05012714  1
  Se  Se138  1  0.24113659  0.92128703  0.56094344  1
  Se  Se139  1  0.57946774  0.24706649  0.04558014  1
  Se  Se140  1  0.60190293  0.25855220  0.56356771  1
  Se  Se141  1  0.58280828  0.58017899  0.06332059  1
  Se  Se142  1  0.58896709  0.58445984  0.55798459  1
  Se  Se143  1  0.59450540  0.92473762  0.05300672  1
  Se  Se144  1  0.57801691  0.92053101  0.54887615  1
  Se  Se145  1  0.94621537  0.26227783  0.04361900  1
  Se  Se146  1  0.92522105  0.24869763  0.56834588  1
  Se  Se147  1  0.91520432  0.59211644  0.04413329  1
  Se  Se148  1  0.92847564  0.59469407  0.56286803  1
  Se  Se149  1  0.92294593  0.92573547  0.06128587  1
  Se  Se150  1  0.91209659  0.92135687  0.55955559  1
  Se  Se151  1  0.08034097  0.24992033  0.44208088  1
  Se  Se152  1  0.06644111  0.26615932  0.95320869  1
  Se  Se153  1  0.07257424  0.59329033  0.43640229  1
  Se  Se154  1  0.08446554  0.58533251  0.94419827  1
  Se  Se155  1  0.08713377  0.92316342  0.44977390  1
  Se  Se156  1  0.08249396  0.91649872  0.94878498  1
  Se  Se157  1  0.41234296  0.25300699  0.44978878  1
  Se  Se158  1  0.41952198  0.24485980  0.94192440  1
  Se  Se159  1  0.41365893  0.57898209  0.45237455  1
  Se  Se160  1  0.40827548  0.59320474  0.93753450  1
  Se  Se161  1  0.41497451  0.92179074  0.44686917  1
  Se  Se162  1  0.41462570  0.92580457  0.93108339  1
  Se  Se163  1  0.74427090  0.26167015  0.44556508  1
  Se  Se164  1  0.75134615  0.23982642  0.95302619  1
  Se  Se165  1  0.74198031  0.59616009  0.43616358  1
  Se  Se166  1  0.75055580  0.58795716  0.95009854  1
  Se  Se167  1  0.75398680  0.92289688  0.44594506  1
  Se  Se168  1  0.75451927  0.93039192  0.93363703  1
  Se  Se169  1  0.25311037  0.08125905  0.44114971  1
  Se  Se170  1  0.24620881  0.08713306  0.94482830  1
  Se  Se171  1  0.25783993  0.40621658  0.44147025  1
  Se  Se172  1  0.25113198  0.41478288  0.94066414  1
  Se  Se173  1  0.24684319  0.75031839  0.45168622  1
  Se  Se174  1  0.24596454  0.76608224  0.94605657  1
  Se  Se175  1  0.58917451  0.08411146  0.43985710  1
  Se  Se176  1  0.57730560  0.08795937  0.94732879  1
  Se  Se177  1  0.57950494  0.42289345  0.45239416  1
  Se  Se178  1  0.59099650  0.40194653  0.94703322  1
  Se  Se179  1  0.57774026  0.75550727  0.45039264  1
  Se  Se180  1  0.59057525  0.74818255  0.94043928  1
  Se  Se181  1  0.92696771  0.08395422  0.44337170  1
  Se  Se182  1  0.90882323  0.07883635  0.93628197  1
  Se  Se183  1  0.91988028  0.41129784  0.44463358  1
  Se  Se184  1  0.88689247  0.43107237  0.94837150  1
  Se  Se185  1  0.91171208  0.75767441  0.45177093  1
  Se  Se186  1  0.92574543  0.75379119  0.92919610  1
  Se  Se187  1  0.24096402  0.23812128  0.31104837  1
  Se  Se188  1  0.24524993  0.24705008  0.80467398  1
  Se  Se189  1  0.23169810  0.56743086  0.29565657  1
  Se  Se190  1  0.25256594  0.58915721  0.80340968  1
  Se  Se191  1  0.25644021  0.91604744  0.30486224  1
  Se  Se192  1  0.24650878  0.92484622  0.80265181  1
  Se  Se193  1  0.58255439  0.25317831  0.30260843  1
  Se  Se194  1  0.59037984  0.24647393  0.80650658  1
  Se  Se195  1  0.57408766  0.57990262  0.30889031  1
  Se  Se196  1  0.58677732  0.57099806  0.81892904  1
  Se  Se197  1  0.59105144  0.92427823  0.30588409  1
  Se  Se198  1  0.57505944  0.91111507  0.80336369  1
  Se  Se199  1  0.92063231  0.25656495  0.29709543  1
  Se  Se200  1  0.92048911  0.25225573  0.80939407  1
  Se  Se201  1  0.90358321  0.57133959  0.29836781  1
  Se  Se202  1  0.92524252  0.57044800  0.81756451  1
  Se  Se203  1  0.92512133  0.92579039  0.30797007  1
  Se  Se204  1  0.90029423  0.90454153  0.79296105  1
  Se  Se205  1  0.08632698  0.08285837  0.29792292  1
  Se  Se206  1  0.06082915  0.06563520  0.81272290  1
  Se  Se207  1  0.06848330  0.40572432  0.29320962  1
  Se  Se208  1  0.08121288  0.41406727  0.81087245  1
  Se  Se209  1  0.09135901  0.75880185  0.31087874  1
  Se  Se210  1  0.08803433  0.75396002  0.81466218  1
  Se  Se211  1  0.41924986  0.08044287  0.29667418  1
  Se  Se212  1  0.40936010  0.08286243  0.80006754  1
  Se  Se213  1  0.41567506  0.41727475  0.31316009  1
  Se  Se214  1  0.41977446  0.41351442  0.80417040  1
  Se  Se215  1  0.42391367  0.75564423  0.30866415  1
  Se  Se216  1  0.40990853  0.74860305  0.79889448  1
  Se  Se217  1  0.75624217  0.09243227  0.30145949  1
  Se  Se218  1  0.72289011  0.05263015  0.81377262  1
  Se  Se219  1  0.74664898  0.41369849  0.30125092  1
  Se  Se220  1  0.75209638  0.40668668  0.80801954  1
  Se  Se221  1  0.75722594  0.75787672  0.31120500  1
  Se  Se222  1  0.75817564  0.75187836  0.80172628  1
  Se  Se223  1  0.25372093  0.07968183  0.19256065  1
  Se  Se224  1  0.21861847  0.11057256  0.70688580  1
  Se  Se225  1  0.23461212  0.40330929  0.18275404  1
  Se  Se226  1  0.25179261  0.41670173  0.70560286  1
  Se  Se227  1  0.23942730  0.75180825  0.18467088  1
  Se  Se228  1  0.24967080  0.75240452  0.70115424  1
  Se  Se229  1  0.58926196  0.08500056  0.18668612  1
  Se  Se230  1  0.57478082  0.08399376  0.69693218  1
  Se  Se231  1  0.58745853  0.40672401  0.19797454  1
  Se  Se232  1  0.59151307  0.41146333  0.70115726  1
  Se  Se233  1  0.57933148  0.76089780  0.18782582  1
  Se  Se234  1  0.57583812  0.75764737  0.68649586  1
  Se  Se235  1  0.91950883  0.08639572  0.19238324  1
  Se  Se236  1  0.89326651  0.08986628  0.70951812  1
  Se  Se237  1  0.91710484  0.41132089  0.18251994  1
  Se  Se238  1  0.92948064  0.40912365  0.70422647  1
  Se  Se239  1  0.91081253  0.76396816  0.19543075  1
  Se  Se240  1  0.91178319  0.75046579  0.69065935  1
  Se  Se241  1  0.08392424  0.25111133  0.18707889  1
  Se  Se242  1  0.07614800  0.25273762  0.71488350  1
  Se  Se243  1  0.07694456  0.57689868  0.17642750  1
  Se  Se244  1  0.09601265  0.57200263  0.69024123  1
  Se  Se245  1  0.08368718  0.92128881  0.19587008  1
  Se  Se246  1  0.07621942  0.91649713  0.69986130  1
  Se  Se247  1  0.42010430  0.23805068  0.18676571  1
  Se  Se248  1  0.41704200  0.25526389  0.70127048  1
  Se  Se249  1  0.41869608  0.56483072  0.19123020  1
  Se  Se250  1  0.42620069  0.58316425  0.70339936  1
  Se  Se251  1  0.41678506  0.91659220  0.19525284  1
  Se  Se252  1  0.40770676  0.92328957  0.69622911  1
  Se  Se253  1  0.75259603  0.25012202  0.18323260  1
  Se  Se254  1  0.75650172  0.23962660  0.71084824  1
  Se  Se255  1  0.75046463  0.57473648  0.17956016  1
  Se  Se256  1  0.76349950  0.56859379  0.70065601  1
  Se  Se257  1  0.74857136  0.92914547  0.20210931  1
  Se  Se258  1  0.73064576  0.91526380  0.70159536  1
