# generated using pymatgen
data_In86Cu29Se144
_symmetry_space_group_name_H-M   'P 1'
_cell_length_a   17.58738070
_cell_length_b   17.58437509
_cell_length_c   23.45179236
_cell_angle_alpha   89.98360967
_cell_angle_beta   89.98697995
_cell_angle_gamma   90.00672866
_symmetry_Int_Tables_number   1
_chemical_formula_structural   In86Cu29Se144
_chemical_formula_sum   'In86 Cu29 Se144'
_cell_volume   7252.77345140
_cell_formula_units_Z   1
loop_
 _symmetry_equiv_pos_site_id
 _symmetry_equiv_pos_as_xyz
  1  'x, y, z'
loop_
 _atom_site_type_symbol
 _atom_site_label
 _atom_site_symmetry_multiplicity
 _atom_site_fract_x
 _atom_site_fract_y
 _atom_site_fract_z
 _atom_site_occupancy
  In  In0  1  -0.03104904  0.12407854  0.09161079  1
  In  In1  1  0.00400364  0.17365221  0.61411327  1
  In  In2  1  -0.00566480  0.51034127  0.12072758  1
  In  In3  1  0.00401077  0.49226441  0.63209718  1
  In  In4  1  -0.01074475  0.85157024  0.13098048  1
  In  In5  1  -0.01560658  0.83382047  0.62386944  1
  In  In6  1  0.32457368  0.15930355  0.12008521  1
  In  In7  1  0.32672512  0.17614547  0.62110421  1
  In  In8  1  0.35800602  0.49653667  0.13179374  1
  In  In9  1  0.34780983  0.51571080  0.61372380  1
  In  In10  1  0.34418386  0.82005278  0.13328531  1
  In  In11  1  0.33619013  0.81861070  0.62744163  1
  In  In12  1  0.66343476  0.16152118  0.13066601  1
  In  In13  1  0.66824597  0.15224520  0.62350773  1
  In  In14  1  0.65886948  0.48877257  0.11872196  1
  In  In15  1  0.66293773  0.51559099  0.62725047  1
  In  In16  1  0.67655058  0.85052197  0.11983175  1
  In  In17  1  0.66057936  0.82154580  0.61058323  1
  In  In18  1  0.17534373  0.00898237  0.36937645  1
  In  In19  1  0.16536837  0.00287980  0.88207243  1
  In  In20  1  0.16613117  0.33655998  0.38150930  1
  In  In21  1  0.15914748  0.33678897  0.87434815  1
  In  In22  1  0.16620084  0.65638572  0.38181571  1
  In  In23  1  0.16639153  0.66710371  0.86333658  1
  In  In24  1  0.49306290  -0.00071196  0.36333024  1
  In  In25  1  0.50843778  -0.01079156  0.88997158  1
  In  In26  1  0.50826180  0.33624278  0.37001261  1
  In  In27  1  0.49876893  0.33660649  0.88351258  1
  In  In28  1  0.49711822  0.67266103  0.37931405  1
  In  In29  1  0.50254809  0.66521933  0.87314486  1
  In  In30  1  0.83824167  0.00007671  0.37057640  1
  In  In31  1  0.83588029  0.00348493  0.89044234  1
  In  In32  1  0.81545945  0.32382899  0.36790837  1
  In  In33  1  0.84104146  0.32980354  0.88025767  1
  In  In34  1  0.83976643  0.67368260  0.37795315  1
  In  In35  1  0.83061113  0.66772099  0.87518776  1
  In  In36  1  0.00954731  0.15096620  0.38382653  1
  In  In37  1  -0.00892575  0.17624306  0.88629672  1
  In  In38  1  0.00209754  0.51014997  0.37964134  1
  In  In39  1  0.00062505  0.49464509  0.86660314  1
  In  In40  1  -0.01405551  0.84456780  0.38036632  1
  In  In41  1  0.00175911  0.82717404  0.87559639  1
  In  In42  1  0.33248492  0.15903693  0.37024122  1
  In  In43  1  0.33462351  0.16627300  0.88767989  1
  In  In44  1  0.33019469  0.50573526  0.38043487  1
  In  In45  1  0.34301128  0.51293573  0.87192719  1
  In  In46  1  0.34595312  0.84475168  0.36882425  1
  In  In47  1  0.34495937  0.82005413  0.88013322  1
  In  In48  1  0.66991568  0.17298073  0.36475573  1
  In  In49  1  0.66960369  0.16260095  0.88763072  1
  In  In50  1  0.66169344  0.48549072  0.36947028  1
  In  In51  1  0.65408260  0.51726215  0.88420182  1
  In  In52  1  0.66567367  0.83791727  0.37569763  1
  In  In53  1  0.67156918  0.82678798  0.87840213  1
  In  In54  1  0.15920904  0.00674345  0.13352851  1
  In  In55  1  0.15374278  0.00992293  0.61432050  1
  In  In56  1  0.17461042  0.32065883  0.12569894  1
  In  In57  1  0.15703225  0.32942925  0.61849214  1
  In  In58  1  0.17247537  0.67895461  0.12624216  1
  In  In59  1  0.18056715  0.65433069  0.63303007  1
  In  In60  1  0.50159094  -0.00266243  0.12677383  1
  In  In61  1  0.50842502  -0.01130602  0.62455034  1
  In  In62  1  0.51576171  0.34161825  0.12304383  1
  In  In63  1  0.48900216  0.33735476  0.62588568  1
  In  In64  1  0.49711893  0.66053942  0.11920056  1
  In  In65  1  0.50304515  0.66970545  0.62790894  1
  In  In66  1  0.82220184  -0.00495588  0.12969496  1
  In  In67  1  0.83793123  -0.00406495  0.61123047  1
  In  In68  1  0.81853985  0.31688411  0.11871393  1
  In  In69  1  0.84216494  0.34186287  0.62698878  1
  In  In70  1  0.83287184  0.67028719  0.11344948  1
  In  In71  1  0.81975221  0.67465122  0.63238136  1
  In  In72  1  0.66389669  0.67070729  0.25326365  1
  In  In73  1  0.33226983  -0.00782764  0.74842386  1
  In  In74  1  0.17417494  0.50059194  -0.00837862  1
  In  In75  1  -0.00099651  -0.00382278  0.74663923  1
  In  In76  1  0.83063757  0.49984426  0.50207034  1
  In  In77  1  0.66971057  0.34088891  0.75085262  1
  In  In78  1  0.34078671  0.32642388  0.25014575  1
  In  In79  1  0.15841617  0.83936310  0.00262628  1
  In  In80  1  0.67057458  -0.00953252  0.75922821  1
  In  In81  1  -0.00091235  0.32600198  0.24314659  1
  In  In82  1  0.32755595  0.34129595  0.75509359  1
  In  In83  1  0.49877193  0.16620137  0.48735219  1
  In  In84  1  0.00328333  0.67569467  0.25266674  1
  In  In85  1  0.17040072  0.83406692  0.50282773  1
  Cu  Cu86  1  0.84256030  0.17196409  0.75283003  1
  Cu  Cu87  1  0.34468036  0.33128622  0.00680688  1
  Cu  Cu88  1  0.49708432  0.16341347  0.76152474  1
  Cu  Cu89  1  0.33859447  0.00167553  0.49349041  1
  Cu  Cu90  1  0.66583874  0.66973035  0.50093817  1
  Cu  Cu91  1  0.15862598  0.15876762  0.24541081  1
  Cu  Cu92  1  0.00260467  0.66620171  0.50524446  1
  Cu  Cu93  1  0.17364587  0.83700526  0.25324720  1
  Cu  Cu94  1  0.66530672  0.67133984  -0.00067263  1
  Cu  Cu95  1  0.50245514  0.83284838  0.24846792  1
  Cu  Cu96  1  0.82446863  0.49745892  0.24432236  1
  Cu  Cu97  1  -0.01102363  0.67038421  -0.00356292  1
  Cu  Cu98  1  0.66211574  0.00370187  0.00803085  1
  Cu  Cu99  1  0.67404455  0.33158410  0.00115226  1
  Cu  Cu100  1  0.32486267  0.34087574  0.50269036  1
  Cu  Cu101  1  0.82633328  0.83077574  0.74909745  1
  Cu  Cu102  1  0.83551020  0.50405855  0.75422589  1
  Cu  Cu103  1  0.16746626  0.82694562  0.75097674  1
  Cu  Cu104  1  0.83391782  0.15992909  0.24463056  1
  Cu  Cu105  1  0.17455053  0.50283903  0.25594507  1
  Cu  Cu106  1  0.00685400  0.33706661  -0.00177208  1
  Cu  Cu107  1  0.15548517  0.17032211  0.74589992  1
  Cu  Cu108  1  0.33864135  0.66248479  0.00107236  1
  Cu  Cu109  1  0.33245010  -0.00491416  0.00531613  1
  Cu  Cu110  1  0.16689035  0.49837044  0.74422342  1
  Cu  Cu111  1  0.66050455  0.32898739  0.49480814  1
  Cu  Cu112  1  0.67577468  -0.00567131  0.49589764  1
  Cu  Cu113  1  0.33992127  0.66756193  0.50242106  1
  Cu  Cu114  1  -0.00785919  0.33032625  0.49947602  1
  Se  Se115  1  0.10057203  0.08701081  0.05313755  1
  Se  Se116  1  0.07830632  0.08857894  0.54350899  1
  Se  Se117  1  0.08663309  0.41660433  0.06065169  1
  Se  Se118  1  0.07394622  0.41659116  0.55239442  1
  Se  Se119  1  0.06809922  0.74529333  0.06171926  1
  Se  Se120  1  0.08467950  0.74392807  0.56624701  1
  Se  Se121  1  0.41681778  0.07903956  0.05679400  1
  Se  Se122  1  0.41585993  0.08031080  0.56067489  1
  Se  Se123  1  0.42696398  0.42033129  0.05335678  1
  Se  Se124  1  0.41943404  0.41697252  0.54988774  1
  Se  Se125  1  0.41790007  0.75141204  0.05231375  1
  Se  Se126  1  0.42258185  0.75270372  0.55383804  1
  Se  Se127  1  0.74933941  0.08592372  0.05829268  1
  Se  Se128  1  0.75122016  0.08410012  0.54949375  1
  Se  Se129  1  0.75600922  0.41883134  0.05300675  1
  Se  Se130  1  0.73602023  0.40977696  0.56043584  1
  Se  Se131  1  0.74854827  0.75727739  0.05082817  1
  Se  Se132  1  0.75968391  0.74932391  0.54769083  1
  Se  Se133  1  0.25172725  0.24936842  0.04905719  1
  Se  Se134  1  0.24393635  0.24949779  0.54954200  1
  Se  Se135  1  0.25665946  0.58465191  0.06210893  1
  Se  Se136  1  0.24818775  0.58533631  0.54952267  1
  Se  Se137  1  0.25412319  0.91458574  0.06722233  1
  Se  Se138  1  0.26269255  0.92616917  0.56225413  1
  Se  Se139  1  0.59086044  0.24987188  0.05694783  1
  Se  Se140  1  0.58297465  0.25032246  0.56085323  1
  Se  Se141  1  0.58571267  0.58311852  0.05232900  1
  Se  Se142  1  0.58164490  0.58642186  0.55292521  1
  Se  Se143  1  0.57683510  0.91317567  0.05207368  1
  Se  Se144  1  0.58428867  0.91724999  0.54741358  1
  Se  Se145  1  0.92485864  0.25737433  0.05575506  1
  Se  Se146  1  0.90570168  0.25261696  0.55386412  1
  Se  Se147  1  0.91112219  0.57991151  0.04699904  1
  Se  Se148  1  0.91811039  0.58756116  0.56490124  1
  Se  Se149  1  0.91010944  0.92141380  0.05700218  1
  Se  Se150  1  0.93229597  0.92263872  0.54753165  1
  Se  Se151  1  0.08011173  0.25266320  0.44542261  1
  Se  Se152  1  0.09064339  0.25159081  0.94784078  1
  Se  Se153  1  0.08415238  0.57992985  0.45457631  1
  Se  Se154  1  0.07789693  0.59363899  0.93995036  1
  Se  Se155  1  0.08738696  0.92412751  0.43989969  1
  Se  Se156  1  0.06532642  0.92930527  0.94571317  1
  Se  Se157  1  0.40371997  0.26273874  0.43786853  1
  Se  Se158  1  0.42528977  0.24555346  0.95128989  1
  Se  Se159  1  0.42046539  0.58284059  0.44753901  1
  Se  Se160  1  0.42361562  0.58131157  0.94800502  1
  Se  Se161  1  0.42488699  0.92069847  0.44364329  1
  Se  Se162  1  0.41269523  0.91041536  0.95077696  1
  Se  Se163  1  0.74483578  0.24546584  0.44508400  1
  Se  Se164  1  0.75812710  0.24744157  0.94900787  1
  Se  Se165  1  0.74147297  0.58667069  0.43745543  1
  Se  Se166  1  0.75202707  0.58675289  0.94866107  1
  Se  Se167  1  0.75892323  0.91228257  0.44176234  1
  Se  Se168  1  0.74012524  0.92225120  0.94718375  1
  Se  Se169  1  0.25263272  0.08620391  0.44585830  1
  Se  Se170  1  0.25021874  0.07921152  0.95135814  1
  Se  Se171  1  0.24317113  0.42513285  0.44816224  1
  Se  Se172  1  0.26815456  0.40667754  0.93741234  1
  Se  Se173  1  0.26167184  0.74902302  0.43998010  1
  Se  Se174  1  0.24594880  0.73914196  0.94664517  1
  Se  Se175  1  0.59283644  0.07374063  0.43599649  1
  Se  Se176  1  0.57817857  0.08744805  0.95352589  1
  Se  Se177  1  0.57967471  0.41731105  0.44658346  1
  Se  Se178  1  0.58869591  0.41471026  0.94833294  1
  Se  Se179  1  0.58503389  0.75358813  0.44496863  1
  Se  Se180  1  0.57981845  0.75108791  0.94484764  1
  Se  Se181  1  0.89800847  0.09787428  0.44154520  1
  Se  Se182  1  0.91711462  0.08929050  0.95510579  1
  Se  Se183  1  0.91434082  0.40957188  0.43538144  1
  Se  Se184  1  0.92484885  0.42008218  0.94386239  1
  Se  Se185  1  0.92151174  0.74843254  0.45044456  1
  Se  Se186  1  0.90973958  0.75760874  0.94407653  1
  Se  Se187  1  0.23457444  0.24547477  0.30476658  1
  Se  Se188  1  0.24376717  0.23794123  0.80903452  1
  Se  Se189  1  0.25274891  0.58934326  0.30766896  1
  Se  Se190  1  0.24936385  0.57753451  0.80150770  1
  Se  Se191  1  0.25787103  0.92403050  0.30256682  1
  Se  Se192  1  0.24172283  0.90794729  0.81398369  1
  Se  Se193  1  0.56388474  0.23554069  0.30344463  1
  Se  Se194  1  0.58374876  0.24465477  0.81313099  1
  Se  Se195  1  0.57444918  0.57801569  0.30885836  1
  Se  Se196  1  0.58666033  0.58503818  0.80311641  1
  Se  Se197  1  0.58478831  0.91500139  0.30277822  1
  Se  Se198  1  0.57115589  0.90370981  0.80995106  1
  Se  Se199  1  0.91299041  0.23996808  0.30807723  1
  Se  Se200  1  0.92438973  0.25444420  0.80607508  1
  Se  Se201  1  0.90754735  0.57518144  0.30442742  1
  Se  Se202  1  0.91930040  0.58849916  0.80620253  1
  Se  Se203  1  0.92032513  0.91744416  0.30067171  1
  Se  Se204  1  0.90429680  0.91446416  0.80955827  1
  Se  Se205  1  0.07748260  0.07781147  0.30240534  1
  Se  Se206  1  0.08309395  0.08798379  0.80992286  1
  Se  Se207  1  0.08434094  0.42325474  0.30687357  1
  Se  Se208  1  0.08631891  0.41321746  0.79830233  1
  Se  Se209  1  0.09283663  0.76046874  0.31746882  1
  Se  Se210  1  0.07575946  0.74922190  0.80036368  1
  Se  Se211  1  0.43027814  0.10409910  0.30121039  1
  Se  Se212  1  0.41858122  0.07837850  0.81660243  1
  Se  Se213  1  0.41905158  0.42689602  0.30778521  1
  Se  Se214  1  0.43091879  0.42426286  0.80546088  1
  Se  Se215  1  0.42013559  0.75028312  0.30370978  1
  Se  Se216  1  0.40556947  0.73535570  0.80545266  1
  Se  Se217  1  0.75043995  0.08137216  0.30198311  1
  Se  Se218  1  0.76144227  0.09088014  0.81112332  1
  Se  Se219  1  0.74407681  0.41119083  0.29627622  1
  Se  Se220  1  0.75572087  0.42509332  0.81634198  1
  Se  Se221  1  0.76202018  0.75819285  0.30661132  1
  Se  Se222  1  0.74566618  0.74689382  0.80350971  1
  Se  Se223  1  0.25448945  0.08131631  0.19889075  1
  Se  Se224  1  0.24040560  0.08887505  0.69125462  1
  Se  Se225  1  0.24669837  0.42123162  0.19192869  1
  Se  Se226  1  0.24791542  0.42111828  0.68177959  1
  Se  Se227  1  0.25205381  0.74687945  0.20291267  1
  Se  Se228  1  0.25513588  0.74529911  0.70127641  1
  Se  Se229  1  0.60169917  0.05797615  0.19487558  1
  Se  Se230  1  0.57599626  0.08546967  0.69954805  1
  Se  Se231  1  0.57889187  0.42795537  0.19872514  1
  Se  Se232  1  0.57376284  0.42442908  0.69222120  1
  Se  Se233  1  0.58197023  0.75703506  0.18476415  1
  Se  Se234  1  0.59579730  0.75010207  0.69097180  1
  Se  Se235  1  0.91855391  0.08002103  0.18990717  1
  Se  Se236  1  0.91103473  0.08831837  0.68744585  1
  Se  Se237  1  0.90924687  0.42035185  0.18597655  1
  Se  Se238  1  0.91665232  0.41617266  0.70301017  1
  Se  Se239  1  0.90595447  0.75407198  0.19257493  1
  Se  Se240  1  0.91458200  0.75002293  0.69791969  1
  Se  Se241  1  0.08031350  0.23327884  0.18157373  1
  Se  Se242  1  0.07494648  0.25312375  0.69197696  1
  Se  Se243  1  0.09191127  0.57881868  0.19305970  1
  Se  Se244  1  0.08054955  0.58540469  0.69695349  1
  Se  Se245  1  0.08504060  0.91429101  0.20038443  1
  Se  Se246  1  0.09466858  0.90885038  0.68764989  1
  Se  Se247  1  0.42254199  0.24540736  0.18082822  1
  Se  Se248  1  0.41942928  0.24018150  0.69862588  1
  Se  Se249  1  0.41108247  0.59979345  0.19692431  1
  Se  Se250  1  0.41383986  0.58792444  0.69304835  1
  Se  Se251  1  0.41583953  0.91693007  0.19765093  1
  Se  Se252  1  0.42874719  0.90328048  0.69565020  1
  Se  Se253  1  0.74718069  0.24826115  0.19957589  1
  Se  Se254  1  0.75397448  0.24181384  0.69167193  1
  Se  Se255  1  0.75181434  0.58478881  0.18643264  1
  Se  Se256  1  0.74829793  0.58304476  0.70130765  1
  Se  Se257  1  0.73718514  0.92320672  0.20321050  1
  Se  Se258  1  0.75415159  0.91386669  0.68550064  1
