# generated using pymatgen
data_In86Cu29Se144
_symmetry_space_group_name_H-M   'P 1'
_cell_length_a   17.57558348
_cell_length_b   17.57761700
_cell_length_c   23.43993521
_cell_angle_alpha   90.01522039
_cell_angle_beta   89.99345015
_cell_angle_gamma   89.98488079
_symmetry_Int_Tables_number   1
_chemical_formula_structural   In86Cu29Se144
_chemical_formula_sum   'In86 Cu29 Se144'
_cell_volume   7241.45977819
_cell_formula_units_Z   1
loop_
 _symmetry_equiv_pos_site_id
 _symmetry_equiv_pos_as_xyz
  1  'x, y, z'
loop_
 _atom_site_type_symbol
 _atom_site_label
 _atom_site_symmetry_multiplicity
 _atom_site_fract_x
 _atom_site_fract_y
 _atom_site_fract_z
 _atom_site_occupancy
  In  In0  1  0.00198325  0.17011577  0.12435643  1
  In  In1  1  -0.00954783  0.15800430  0.62393638  1
  In  In2  1  0.01187813  0.49121412  0.12910771  1
  In  In3  1  0.01467910  0.50263976  0.62539808  1
  In  In4  1  0.01062778  0.82141559  0.13510563  1
  In  In5  1  -0.00239880  0.83913660  0.62856367  1
  In  In6  1  0.32567614  0.18114498  0.12464470  1
  In  In7  1  0.34012076  0.16424742  0.63029919  1
  In  In8  1  0.33535532  0.50565413  0.12053774  1
  In  In9  1  0.35215360  0.49307748  0.64090961  1
  In  In10  1  0.32041432  0.82507925  0.11664778  1
  In  In11  1  0.34340308  0.82561804  0.63483095  1
  In  In12  1  0.67205251  0.15442783  0.12591626  1
  In  In13  1  0.66890251  0.18065371  0.61575068  1
  In  In14  1  0.65964215  0.51240498  0.13186223  1
  In  In15  1  0.64856830  0.49791676  0.62144256  1
  In  In16  1  0.65665112  0.83593696  0.12750950  1
  In  In17  1  0.66795454  0.82747757  0.61330599  1
  In  In18  1  0.14471456  0.00682240  0.36860046  1
  In  In19  1  0.16648361  0.00056571  0.87838889  1
  In  In20  1  0.17091549  0.34178491  0.36999546  1
  In  In21  1  0.17282758  0.32304575  0.88654861  1
  In  In22  1  0.16966003  0.66397568  0.36217735  1
  In  In23  1  0.16907650  0.66938088  0.87837105  1
  In  In24  1  0.49949121  -0.00264774  0.38536503  1
  In  In25  1  0.48287946  0.00116278  0.87337621  1
  In  In26  1  0.50314921  0.32838417  0.39296745  1
  In  In27  1  0.50435092  0.34319700  0.87135976  1
  In  In28  1  0.49928676  0.66654069  0.37130386  1
  In  In29  1  0.48785364  0.67509463  0.88201445  1
  In  In30  1  0.83708670  -0.00276513  0.37813589  1
  In  In31  1  0.84920147  -0.00364333  0.87310193  1
  In  In32  1  0.82526629  0.32057208  0.37824462  1
  In  In33  1  0.82414929  0.33079030  0.87466595  1
  In  In34  1  0.83512147  0.67657825  0.36163191  1
  In  In35  1  0.83971990  0.65203651  0.87487220  1
  In  In36  1  -0.01241890  0.15350496  0.36028213  1
  In  In37  1  0.01340355  0.15886092  0.88738184  1
  In  In38  1  0.00404024  0.50096108  0.36143170  1
  In  In39  1  -0.00018486  0.51083901  0.87800765  1
  In  In40  1  -0.01835356  0.82420580  0.35483560  1
  In  In41  1  0.01089047  0.84288183  0.87168399  1
  In  In42  1  0.34027034  0.17419081  0.37919928  1
  In  In43  1  0.32397584  0.16021427  0.86898181  1
  In  In44  1  0.33737828  0.50599864  0.37420181  1
  In  In45  1  0.33237163  0.50316002  0.87676953  1
  In  In46  1  0.34519982  0.83221269  0.37760901  1
  In  In47  1  0.33042910  0.83437801  0.87727916  1
  In  In48  1  0.66688424  0.17611200  0.39188697  1
  In  In49  1  0.66218736  0.18122974  0.87424532  1
  In  In50  1  0.63784923  0.50308111  0.37456803  1
  In  In51  1  0.66986220  0.48331379  0.87435566  1
  In  In52  1  0.67391508  0.82583652  0.37687935  1
  In  In53  1  0.66036897  0.81945639  0.87527711  1
  In  In54  1  0.16306568  -0.00383637  0.12036911  1
  In  In55  1  0.16762547  0.00200972  0.63733331  1
  In  In56  1  0.13994927  0.32099638  0.09823310  1
  In  In57  1  0.17744006  0.34237625  0.62898510  1
  In  In58  1  0.16928201  0.66505134  0.12329694  1
  In  In59  1  0.16897265  0.66954631  0.63484634  1
  In  In60  1  0.51019016  -0.00416306  0.12663743  1
  In  In61  1  0.49583170  -0.00613565  0.62095187  1
  In  In62  1  0.48750010  0.34029321  0.12744252  1
  In  In63  1  0.49628614  0.33762555  0.62452184  1
  In  In64  1  0.48987518  0.66101884  0.12874674  1
  In  In65  1  0.49702865  0.65906199  0.61871334  1
  In  In66  1  0.83261189  0.01681260  0.12326527  1
  In  In67  1  0.83893026  0.00246496  0.62077209  1
  In  In68  1  0.85218207  0.33233744  0.12294205  1
  In  In69  1  0.83495206  0.31407345  0.62116579  1
  In  In70  1  0.83410800  0.67101771  0.13922307  1
  In  In71  1  0.82991006  0.67599970  0.61944774  1
  In  In72  1  0.66559311  0.33505046  0.26160571  1
  In  In73  1  0.66764092  0.00388657  0.73794392  1
  In  In74  1  0.49711731  0.16579425  0.00210409  1
  In  In75  1  0.16782228  0.83397295  0.49761144  1
  In  In76  1  0.32669424  -0.00283884  0.25305149  1
  In  In77  1  0.82695732  0.49961490  0.49559431  1
  In  In78  1  0.17780013  0.50103498  0.49692239  1
  In  In79  1  0.00354237  0.32855585  0.75149925  1
  In  In80  1  0.17024974  0.16817769  0.50096920  1
  In  In81  1  0.83491764  0.83645460  0.00619689  1
  In  In82  1  0.83445716  0.49934701  0.00386012  1
  In  In83  1  0.66623319  0.66172197  0.74366589  1
  In  In84  1  0.33055564  0.33992743  0.24908843  1
  In  In85  1  0.67064413  -0.00276131  0.25442299  1
  Cu  Cu86  1  0.34328424  0.66168346  0.50306713  1
  Cu  Cu87  1  0.83422638  0.16101644  0.74677828  1
  Cu  Cu88  1  -0.00000744  0.32498383  0.49317788  1
  Cu  Cu89  1  0.83778192  0.17123907  0.25051183  1
  Cu  Cu90  1  0.33326934  0.33904012  -0.00069834  1
  Cu  Cu91  1  0.00335170  0.67118914  0.00306073  1
  Cu  Cu92  1  0.84603132  0.82630833  0.74692306  1
  Cu  Cu93  1  0.49559124  0.17878403  0.74978509  1
  Cu  Cu94  1  0.65202548  0.66556628  0.00434159  1
  Cu  Cu95  1  0.16816636  0.16699084  0.75837601  1
  Cu  Cu96  1  -0.00955127  -0.00532044  0.49712461  1
  Cu  Cu97  1  0.16820910  0.82955898  0.24334299  1
  Cu  Cu98  1  0.49742148  0.50408286  0.75145651  1
  Cu  Cu99  1  0.32998329  -0.00156949  -0.00291641  1
  Cu  Cu100  1  0.66752421  0.33359875  0.00046891  1
  Cu  Cu101  1  0.16960215  0.49620559  0.24019234  1
  Cu  Cu102  1  0.16796340  0.83398650  0.75711951  1
  Cu  Cu103  1  0.49419100  0.82357259  0.24860610  1
  Cu  Cu104  1  0.66580029  -0.00433060  0.00201552  1
  Cu  Cu105  1  0.16985481  0.50563488  0.75590399  1
  Cu  Cu106  1  0.00317302  0.00390766  0.00028956  1
  Cu  Cu107  1  0.49493812  0.83981346  0.75122251  1
  Cu  Cu108  1  -0.00418696  0.67240455  0.49129231  1
  Cu  Cu109  1  0.33129561  -0.00083712  0.50296357  1
  Cu  Cu110  1  0.66435257  0.67144330  0.49321407  1
  Cu  Cu111  1  0.83683027  0.49386510  0.75194694  1
  Cu  Cu112  1  0.66774223  0.00113424  0.50188163  1
  Cu  Cu113  1  0.83472466  0.50138218  0.24861937  1
  Cu  Cu114  1  0.33375032  0.66625698  0.00058803  1
  Se  Se115  1  0.08645745  0.08720197  0.05399378  1
  Se  Se116  1  0.07929166  0.06933331  0.55590397  1
  Se  Se117  1  0.07918993  0.43196806  0.04283749  1
  Se  Se118  1  0.08040128  0.40584064  0.55235457  1
  Se  Se119  1  0.08763677  0.75403322  0.05552230  1
  Se  Se120  1  0.07946477  0.74140219  0.55702652  1
  Se  Se121  1  0.40748869  0.07526982  0.06330741  1
  Se  Se122  1  0.41391170  0.08304119  0.55563432  1
  Se  Se123  1  0.41899799  0.41982313  0.05109706  1
  Se  Se124  1  0.42070911  0.43133194  0.55787373  1
  Se  Se125  1  0.41738746  0.74856984  0.05568926  1
  Se  Se126  1  0.41845305  0.75399776  0.55563726  1
  Se  Se127  1  0.74895944  0.08537000  0.04717532  1
  Se  Se128  1  0.75033158  0.08347053  0.55670659  1
  Se  Se129  1  0.74221274  0.41257867  0.06611837  1
  Se  Se130  1  0.74712096  0.41158857  0.56265924  1
  Se  Se131  1  0.74239862  0.74104344  0.06020116  1
  Se  Se132  1  0.75462516  0.75100974  0.54338653  1
  Se  Se133  1  0.25024291  0.24887323  0.04554528  1
  Se  Se134  1  0.25948920  0.25873566  0.55909096  1
  Se  Se135  1  0.24792953  0.58243048  0.05134494  1
  Se  Se136  1  0.25853302  0.58830444  0.56481474  1
  Se  Se137  1  0.24547738  0.91550505  0.04997383  1
  Se  Se138  1  0.25319661  0.91958151  0.56414251  1
  Se  Se139  1  0.58801755  0.25494639  0.06400380  1
  Se  Se140  1  0.57009472  0.24903015  0.55415650  1
  Se  Se141  1  0.57420127  0.57833105  0.05693144  1
  Se  Se142  1  0.58440679  0.58609963  0.54743228  1
  Se  Se143  1  0.58013916  0.91333802  0.05155851  1
  Se  Se144  1  0.58313087  0.91595131  0.55241438  1
  Se  Se145  1  0.91165530  0.24050569  0.05229748  1
  Se  Se146  1  0.92106089  0.24204192  0.54911851  1
  Se  Se147  1  0.91961654  0.59399656  0.06343012  1
  Se  Se148  1  0.92587823  0.58585550  0.55476382  1
  Se  Se149  1  0.92706032  0.92397479  0.06437781  1
  Se  Se150  1  0.91316028  0.90920056  0.55351923  1
  Se  Se151  1  0.08230265  0.24933850  0.43297720  1
  Se  Se152  1  0.07588558  0.25779409  0.95249054  1
  Se  Se153  1  0.07995573  0.58879068  0.43856981  1
  Se  Se154  1  0.08409845  0.58687041  0.94825776  1
  Se  Se155  1  0.07041476  0.91454011  0.43755269  1
  Se  Se156  1  0.08490735  0.91651037  0.94892037  1
  Se  Se157  1  0.41764427  0.24187734  0.45561215  1
  Se  Se158  1  0.41239411  0.25448892  0.93818353  1
  Se  Se159  1  0.42279080  0.58083217  0.44503169  1
  Se  Se160  1  0.41782209  0.58091802  0.94854067  1
  Se  Se161  1  0.41594713  0.91298008  0.45275648  1
  Se  Se162  1  0.41736303  0.91551375  0.94762605  1
  Se  Se163  1  0.75750660  0.24995775  0.45848232  1
  Se  Se164  1  0.74896930  0.24849088  0.94857368  1
  Se  Se165  1  0.74469543  0.59141967  0.43218205  1
  Se  Se166  1  0.73784390  0.58909913  0.94438159  1
  Se  Se167  1  0.74811073  0.91901578  0.44400980  1
  Se  Se168  1  0.74451623  0.91835113  0.93766946  1
  Se  Se169  1  0.25131795  0.07067566  0.43774726  1
  Se  Se170  1  0.24890119  0.08705901  0.94669871  1
  Se  Se171  1  0.26641048  0.40464823  0.44325479  1
  Se  Se172  1  0.24863436  0.42183713  0.94679195  1
  Se  Se173  1  0.25612092  0.73543582  0.44239678  1
  Se  Se174  1  0.25024285  0.75225684  0.94840382  1
  Se  Se175  1  0.58180638  0.08356189  0.45083157  1
  Se  Se176  1  0.58699040  0.07652346  0.93870862  1
  Se  Se177  1  0.60641266  0.40253078  0.44889283  1
  Se  Se178  1  0.58325653  0.41661599  0.94874520  1
  Se  Se179  1  0.57761954  0.75370021  0.44144884  1
  Se  Se180  1  0.57633271  0.75445286  0.95030966  1
  Se  Se181  1  0.91693654  0.08798645  0.44466614  1
  Se  Se182  1  0.91375651  0.08175426  0.94786999  1
  Se  Se183  1  0.92639558  0.41529230  0.43737573  1
  Se  Se184  1  0.91940952  0.41100339  0.93997682  1
  Se  Se185  1  0.91320153  0.75368465  0.43804495  1
  Se  Se186  1  0.91969873  0.74600931  0.94122972  1
  Se  Se187  1  0.24588951  0.24000396  0.30671546  1
  Se  Se188  1  0.24958792  0.25750996  0.80526009  1
  Se  Se189  1  0.25229811  0.57448646  0.29924695  1
  Se  Se190  1  0.25366302  0.59005272  0.80743230  1
  Se  Se191  1  0.23773345  0.90530658  0.31502771  1
  Se  Se192  1  0.25086536  0.92065056  0.80821811  1
  Se  Se193  1  0.57530740  0.24004513  0.31482461  1
  Se  Se194  1  0.58416970  0.25757537  0.80134677  1
  Se  Se195  1  0.58480347  0.59226333  0.29918745  1
  Se  Se196  1  0.58158095  0.58033623  0.81346421  1
  Se  Se197  1  0.57165856  0.90853408  0.30840358  1
  Se  Se198  1  0.58338981  0.91594358  0.80748357  1
  Se  Se199  1  0.91570010  0.26024689  0.30362804  1
  Se  Se200  1  0.91378498  0.23889450  0.81102731  1
  Se  Se201  1  0.92021897  0.58767945  0.29842221  1
  Se  Se202  1  0.92009598  0.58096516  0.79962763  1
  Se  Se203  1  0.92747603  0.94032508  0.30237458  1
  Se  Se204  1  0.92231416  0.91539606  0.79971966  1
  Se  Se205  1  0.08931437  0.09569518  0.29389624  1
  Se  Se206  1  0.08216869  0.08293921  0.80768711  1
  Se  Se207  1  0.08763633  0.41422522  0.29694467  1
  Se  Se208  1  0.08892349  0.42051354  0.81272535  1
  Se  Se209  1  0.08330054  0.74686486  0.29779696  1
  Se  Se210  1  0.08300203  0.74744895  0.80670926  1
  Se  Se211  1  0.42230286  0.08352487  0.31073191  1
  Se  Se212  1  0.41662990  0.08824073  0.80029150  1
  Se  Se213  1  0.42759372  0.41342144  0.31471830  1
  Se  Se214  1  0.41415361  0.42040965  0.80544642  1
  Se  Se215  1  0.40754728  0.74501746  0.30276111  1
  Se  Se216  1  0.41614679  0.75427549  0.80604812  1
  Se  Se217  1  0.75192396  0.09759146  0.31249195  1
  Se  Se218  1  0.75170425  0.08522660  0.81013480  1
  Se  Se219  1  0.75681137  0.42980295  0.31661536  1
  Se  Se220  1  0.74977687  0.41020326  0.79898952  1
  Se  Se221  1  0.75196129  0.76321249  0.29717395  1
  Se  Se222  1  0.76065717  0.75079888  0.80635812  1
  Se  Se223  1  0.24414899  0.08934939  0.19010947  1
  Se  Se224  1  0.25236222  0.08700622  0.70054169  1
  Se  Se225  1  0.24083328  0.41116083  0.17757938  1
  Se  Se226  1  0.25195346  0.42054150  0.70281789  1
  Se  Se227  1  0.25420246  0.74506865  0.19514863  1
  Se  Se228  1  0.25200443  0.75193450  0.70203991  1
  Se  Se229  1  0.57569984  0.09130134  0.19864917  1
  Se  Se230  1  0.57316528  0.09684534  0.68716090  1
  Se  Se231  1  0.57549292  0.42043179  0.19765027  1
  Se  Se232  1  0.57972186  0.41890133  0.69813892  1
  Se  Se233  1  0.58051559  0.74637160  0.19354885  1
  Se  Se234  1  0.57711251  0.75987996  0.69074362  1
  Se  Se235  1  0.91797932  0.08749010  0.19575530  1
  Se  Se236  1  0.91893622  0.07524621  0.69806163  1
  Se  Se237  1  0.91918559  0.41779010  0.19734067  1
  Se  Se238  1  0.91565177  0.41686580  0.68614701  1
  Se  Se239  1  0.91254969  0.76000823  0.20227939  1
  Se  Se240  1  0.92225525  0.73996012  0.69110819  1
  Se  Se241  1  0.08319367  0.26169910  0.18787090  1
  Se  Se242  1  0.09233570  0.23946887  0.68720864  1
  Se  Se243  1  0.08410950  0.58630250  0.19445504  1
  Se  Se244  1  0.08399943  0.58402362  0.70029438  1
  Se  Se245  1  0.08664239  0.91980412  0.19639126  1
  Se  Se246  1  0.08389067  0.91381871  0.69939891  1
  Se  Se247  1  0.42502259  0.23997689  0.19699460  1
  Se  Se248  1  0.40990803  0.26034094  0.69694197  1
  Se  Se249  1  0.41584139  0.57200581  0.19806060  1
  Se  Se250  1  0.42016857  0.59728722  0.70180799  1
  Se  Se251  1  0.41787090  0.91021131  0.18989692  1
  Se  Se252  1  0.41383912  0.92568096  0.69857221  1
  Se  Se253  1  0.75227439  0.24926331  0.19214326  1
  Se  Se254  1  0.75072827  0.24606990  0.69628826  1
  Se  Se255  1  0.74682274  0.58525838  0.20164798  1
  Se  Se256  1  0.75882164  0.57095282  0.68571630  1
  Se  Se257  1  0.75845648  0.91496237  0.18818429  1
  Se  Se258  1  0.75787917  0.90214107  0.68891537  1
