# generated using pymatgen
data_In86Cu29Se144
_symmetry_space_group_name_H-M   'P 1'
_cell_length_a   17.58405657
_cell_length_b   17.58408634
_cell_length_c   23.45041996
_cell_angle_alpha   89.99995114
_cell_angle_beta   90.00164677
_cell_angle_gamma   89.99906287
_symmetry_Int_Tables_number   1
_chemical_formula_structural   In86Cu29Se144
_chemical_formula_sum   'In86 Cu29 Se144'
_cell_volume   7250.85973644
_cell_formula_units_Z   1
loop_
 _symmetry_equiv_pos_site_id
 _symmetry_equiv_pos_as_xyz
  1  'x, y, z'
loop_
 _atom_site_type_symbol
 _atom_site_label
 _atom_site_symmetry_multiplicity
 _atom_site_fract_x
 _atom_site_fract_y
 _atom_site_fract_z
 _atom_site_occupancy
  In  In0  1  -0.00879575  0.15103181  0.11075419  1
  In  In1  1  -0.00594852  0.17555150  0.63239241  1
  In  In2  1  0.00965974  0.51140118  0.11787695  1
  In  In3  1  -0.00519621  0.49497037  0.61621434  1
  In  In4  1  0.01824640  0.82476383  0.14190075  1
  In  In5  1  0.01602062  0.83910851  0.62226650  1
  In  In6  1  0.32990534  0.17849784  0.12730912  1
  In  In7  1  0.32642813  0.16119266  0.63005103  1
  In  In8  1  0.31387642  0.51719399  0.14335232  1
  In  In9  1  0.33547865  0.49949971  0.61315681  1
  In  In10  1  0.31837103  0.82575896  0.12845382  1
  In  In11  1  0.34105662  0.85089893  0.60384976  1
  In  In12  1  0.68367493  0.15762696  0.13423577  1
  In  In13  1  0.66978336  0.14558141  0.63055914  1
  In  In14  1  0.66406740  0.48784303  0.12706727  1
  In  In15  1  0.67128419  0.50743574  0.61855463  1
  In  In16  1  0.67964439  0.84402117  0.12567633  1
  In  In17  1  0.65942416  0.84542795  0.63068052  1
  In  In18  1  0.16064998  -0.00432718  0.37913069  1
  In  In19  1  0.16037381  0.00100781  0.88079441  1
  In  In20  1  0.17987208  0.32991436  0.36933089  1
  In  In21  1  0.15493948  0.34324343  0.88048792  1
  In  In22  1  0.16103056  0.66833976  0.37050627  1
  In  In23  1  0.16578866  0.67111984  0.89048519  1
  In  In24  1  0.49937023  -0.01900089  0.37784968  1
  In  In25  1  0.50248960  0.00775995  0.85817393  1
  In  In26  1  0.50678768  0.34170374  0.37162902  1
  In  In27  1  0.50040499  0.33515845  0.87220607  1
  In  In28  1  0.48642655  0.67734830  0.38183680  1
  In  In29  1  0.50507079  0.65943043  0.86937262  1
  In  In30  1  0.84585713  0.01410339  0.37465827  1
  In  In31  1  0.84200782  0.00785472  0.87226094  1
  In  In32  1  0.82730593  0.33905820  0.37860590  1
  In  In33  1  0.84361781  0.31664284  0.88613667  1
  In  In34  1  0.83744403  0.65707029  0.37543128  1
  In  In35  1  0.82561335  0.67149697  0.87358854  1
  In  In36  1  -0.00654263  0.14754501  0.37719445  1
  In  In37  1  -0.00506904  0.16253717  0.87935828  1
  In  In38  1  -0.00769639  0.50930003  0.37701415  1
  In  In39  1  0.00313957  0.48949524  0.88050006  1
  In  In40  1  0.01760075  0.85108908  0.36090831  1
  In  In41  1  0.00928962  0.84895545  0.87628443  1
  In  In42  1  0.32220417  0.16547460  0.37123680  1
  In  In43  1  0.33593369  0.15002034  0.87275825  1
  In  In44  1  0.32989666  0.50037162  0.37422894  1
  In  In45  1  0.32754736  0.49687670  0.87791202  1
  In  In46  1  0.33770297  0.82985407  0.37899738  1
  In  In47  1  0.31544828  0.84064929  0.88208829  1
  In  In48  1  0.67518819  0.17591032  0.37255363  1
  In  In49  1  0.67467295  0.16260850  0.87551402  1
  In  In50  1  0.67650631  0.49429322  0.38156784  1
  In  In51  1  0.66678306  0.50770806  0.87255026  1
  In  In52  1  0.65350217  0.83307035  0.37692812  1
  In  In53  1  0.67289194  0.83602915  0.86456773  1
  In  In54  1  0.14782495  -0.01858124  0.10563564  1
  In  In55  1  0.16670288  -0.00357467  0.63222914  1
  In  In56  1  0.16940723  0.34206960  0.12116195  1
  In  In57  1  0.15342836  0.32631473  0.62319897  1
  In  In58  1  0.17168490  0.66306357  0.12893012  1
  In  In59  1  0.17697327  0.67405080  0.61531359  1
  In  In60  1  0.51143072  0.00994045  0.12632773  1
  In  In61  1  0.50403169  -0.00324116  0.62965335  1
  In  In62  1  0.49887745  0.33666204  0.13455527  1
  In  In63  1  0.49230920  0.33474232  0.62007674  1
  In  In64  1  0.49587142  0.65457280  0.13094492  1
  In  In65  1  0.50423228  0.67676838  0.61645963  1
  In  In66  1  0.83363033  0.00532400  0.12769796  1
  In  In67  1  0.83359641  0.00724720  0.62784067  1
  In  In68  1  0.82874272  0.32454005  0.12150072  1
  In  In69  1  0.84129073  0.34196576  0.61940331  1
  In  In70  1  0.84826327  0.67599187  0.12446908  1
  In  In71  1  0.83223837  0.65283629  0.62189792  1
  In  In72  1  0.33152556  -0.00141924  0.24999696  1
  In  In73  1  0.83647070  0.83085496  0.50168637  1
  In  In74  1  0.49565430  0.83410068  0.00794574  1
  In  In75  1  0.49338827  0.49888177  -0.00377310  1
  In  In76  1  0.32756569  0.32781735  0.74476841  1
  In  In77  1  0.33262092  0.67343657  0.75180822  1
  In  In78  1  0.50289781  0.16271151  0.50657578  1
  In  In79  1  0.66991219  0.32720070  0.75693212  1
  In  In80  1  0.84394331  0.84096985  -0.00529324  1
  In  In81  1  0.50056933  0.17100150  -0.00538680  1
  In  In82  1  -0.00443117  0.67033138  0.74486768  1
  In  In83  1  0.66576697  0.66633824  0.25590402  1
  In  In84  1  0.00013062  0.33144635  0.24099351  1
  In  In85  1  0.16563975  0.16459009  0.49650685  1
  Cu  Cu86  1  0.49791267  0.83383040  0.74301011  1
  Cu  Cu87  1  0.00311140  0.66247032  0.00684861  1
  Cu  Cu88  1  0.16769411  0.83988656  0.75177411  1
  Cu  Cu89  1  0.50588182  0.16863191  0.25106621  1
  Cu  Cu90  1  -0.00367075  0.33159150  0.00256058  1
  Cu  Cu91  1  0.16512631  0.16134283  0.24631689  1
  Cu  Cu92  1  0.67448819  0.33190170  0.49846948  1
  Cu  Cu93  1  0.83095703  0.49743839  0.25214429  1
  Cu  Cu94  1  0.50615055  0.50502784  0.74473376  1
  Cu  Cu95  1  0.83033745  0.83513278  0.74996235  1
  Cu  Cu96  1  0.32617632  0.65868820  0.49223023  1
  Cu  Cu97  1  0.16045281  0.16331528  0.75449868  1
  Cu  Cu98  1  0.50048843  0.83408841  0.25313786  1
  Cu  Cu99  1  0.67330160  0.32711513  0.00619607  1
  Cu  Cu100  1  0.83700411  0.84240107  0.24938399  1
  Cu  Cu101  1  0.66982818  0.66603819  -0.00693394  1
  Cu  Cu102  1  -0.00035179  0.33694028  0.49764195  1
  Cu  Cu103  1  0.83647576  0.16502171  0.75378463  1
  Cu  Cu104  1  0.33711024  0.33891862  0.49351799  1
  Cu  Cu105  1  0.32974929  0.00076505  -0.00205447  1
  Cu  Cu106  1  0.16599390  0.49995201  0.24966930  1
  Cu  Cu107  1  0.66657308  -0.00380524  0.50434484  1
  Cu  Cu108  1  0.32463347  0.34092246  0.00439590  1
  Cu  Cu109  1  0.15778223  0.50075811  0.75028231  1
  Cu  Cu110  1  0.49460590  0.49771021  0.25687084  1
  Cu  Cu111  1  0.83689443  0.49413120  0.74446489  1
  Cu  Cu112  1  0.83291229  0.16903371  0.24869915  1
  Cu  Cu113  1  0.66034120  0.66545025  0.49727834  1
  Cu  Cu114  1  0.00431859  0.66645446  0.49693544  1
  Se  Se115  1  0.09878392  0.09542718  0.04859462  1
  Se  Se116  1  0.07939350  0.08568787  0.56465077  1
  Se  Se117  1  0.08172396  0.41721700  0.05169432  1
  Se  Se118  1  0.08683529  0.41577900  0.55104872  1
  Se  Se119  1  0.08326039  0.74598818  0.06156046  1
  Se  Se120  1  0.08510621  0.75122475  0.55037155  1
  Se  Se121  1  0.41115286  0.08008559  0.05836628  1
  Se  Se122  1  0.40596665  0.07467023  0.55988328  1
  Se  Se123  1  0.40913184  0.41626172  0.06446712  1
  Se  Se124  1  0.42346894  0.41905282  0.54664667  1
  Se  Se125  1  0.40983077  0.73655530  0.06191422  1
  Se  Se126  1  0.40776982  0.74221624  0.54882655  1
  Se  Se127  1  0.75108058  0.08251182  0.05616139  1
  Se  Se128  1  0.75155660  0.08192732  0.55241888  1
  Se  Se129  1  0.75125030  0.41858499  0.05535497  1
  Se  Se130  1  0.75318253  0.42051843  0.55274194  1
  Se  Se131  1  0.74723133  0.74727160  0.05394268  1
  Se  Se132  1  0.73996667  0.74479084  0.56085038  1
  Se  Se133  1  0.24657028  0.25022020  0.05374416  1
  Se  Se134  1  0.25953781  0.25764424  0.55620698  1
  Se  Se135  1  0.24641382  0.57464160  0.05826603  1
  Se  Se136  1  0.24465910  0.57696563  0.54874179  1
  Se  Se137  1  0.25537313  0.91018425  0.05101477  1
  Se  Se138  1  0.22357130  0.90723783  0.55521275  1
  Se  Se139  1  0.58626442  0.25233381  0.06457238  1
  Se  Se140  1  0.59756895  0.25393818  0.56345697  1
  Se  Se141  1  0.59005826  0.58805348  0.05598046  1
  Se  Se142  1  0.57843448  0.58081501  0.55190417  1
  Se  Se143  1  0.59567063  0.92713860  0.05430838  1
  Se  Se144  1  0.57845513  0.91535355  0.55391349  1
  Se  Se145  1  0.91087322  0.24631862  0.05098177  1
  Se  Se146  1  0.92098645  0.25228036  0.55396543  1
  Se  Se147  1  0.91053734  0.58268515  0.05308744  1
  Se  Se148  1  0.91741836  0.58415011  0.54834999  1
  Se  Se149  1  0.92624857  0.91117720  0.07038466  1
  Se  Se150  1  0.92362139  0.92413478  0.55926271  1
  Se  Se151  1  0.07652947  0.25623589  0.43464751  1
  Se  Se152  1  0.07900594  0.25133700  0.94532985  1
  Se  Se153  1  0.08610881  0.58079197  0.44368466  1
  Se  Se154  1  0.08069976  0.57877735  0.94814610  1
  Se  Se155  1  0.07732911  0.91732804  0.44798087  1
  Se  Se156  1  0.09245417  0.90969664  0.95251145  1
  Se  Se157  1  0.41424743  0.24866593  0.43937773  1
  Se  Se158  1  0.40353470  0.26370813  0.94012487  1
  Se  Se159  1  0.41724119  0.57731875  0.44469096  1
  Se  Se160  1  0.40643410  0.59663713  0.94052501  1
  Se  Se161  1  0.41451439  0.91395153  0.44984568  1
  Se  Se162  1  0.41825230  0.92706061  0.93897461  1
  Se  Se163  1  0.75731851  0.24592478  0.44851095  1
  Se  Se164  1  0.74944269  0.24071069  0.95044214  1
  Se  Se165  1  0.75138813  0.58634511  0.44831467  1
  Se  Se166  1  0.75371050  0.58105761  0.94373951  1
  Se  Se167  1  0.74636439  0.91993366  0.43996279  1
  Se  Se168  1  0.74440452  0.92288784  0.93866902  1
  Se  Se169  1  0.26169519  0.07126301  0.44504370  1
  Se  Se170  1  0.24849886  0.08726830  0.94684575  1
  Se  Se171  1  0.24575693  0.41611991  0.44379976  1
  Se  Se172  1  0.24339937  0.42311849  0.94824115  1
  Se  Se173  1  0.24648188  0.74702589  0.44115877  1
  Se  Se174  1  0.25544025  0.74897712  0.95331393  1
  Se  Se175  1  0.58939738  0.07747877  0.44011216  1
  Se  Se176  1  0.58594479  0.07278792  0.94040238  1
  Se  Se177  1  0.58717123  0.41355169  0.44766329  1
  Se  Se178  1  0.59391640  0.40655172  0.94370144  1
  Se  Se179  1  0.57721758  0.75347606  0.44977533  1
  Se  Se180  1  0.58697819  0.74920734  0.93941848  1
  Se  Se181  1  0.91498274  0.08463172  0.45599180  1
  Se  Se182  1  0.92134650  0.07368595  0.94918464  1
  Se  Se183  1  0.91458971  0.42040223  0.44468240  1
  Se  Se184  1  0.91213353  0.41708471  0.94960264  1
  Se  Se185  1  0.92544921  0.74831317  0.43645047  1
  Se  Se186  1  0.93075187  0.74144874  0.93817528  1
  Se  Se187  1  0.25144652  0.24567674  0.29541314  1
  Se  Se188  1  0.24190170  0.24662964  0.81343752  1
  Se  Se189  1  0.24849018  0.58287530  0.30468148  1
  Se  Se190  1  0.23872092  0.58091270  0.80855108  1
  Se  Se191  1  0.24418509  0.90891379  0.30949522  1
  Se  Se192  1  0.24741961  0.92376315  0.80763209  1
  Se  Se193  1  0.58690275  0.25370603  0.30531823  1
  Se  Se194  1  0.57202197  0.23628739  0.80856681  1
  Se  Se195  1  0.57661647  0.57883865  0.31740463  1
  Se  Se196  1  0.59013385  0.58630378  0.79780258  1
  Se  Se197  1  0.58644135  0.91841831  0.30105532  1
  Se  Se198  1  0.58423123  0.91436754  0.79785389  1
  Se  Se199  1  0.91495879  0.24773600  0.30969700  1
  Se  Se200  1  0.91919499  0.24981997  0.80625655  1
  Se  Se201  1  0.91608265  0.58328084  0.29928126  1
  Se  Se202  1  0.91278929  0.57757481  0.80786252  1
  Se  Se203  1  0.91882101  0.92809220  0.30225792  1
  Se  Se204  1  0.91594037  0.91288204  0.80546818  1
  Se  Se205  1  0.08771464  0.08306737  0.30702193  1
  Se  Se206  1  0.07836909  0.08033045  0.80900339  1
  Se  Se207  1  0.08412620  0.41832482  0.30831815  1
  Se  Se208  1  0.07743296  0.41514530  0.80204812  1
  Se  Se209  1  0.06660656  0.73764494  0.30288707  1
  Se  Se210  1  0.09117151  0.75053540  0.80815805  1
  Se  Se211  1  0.42614932  0.08655109  0.31146223  1
  Se  Se212  1  0.41027283  0.08289987  0.79436859  1
  Se  Se213  1  0.40981580  0.41126188  0.30603938  1
  Se  Se214  1  0.42104112  0.42698167  0.80266418  1
  Se  Se215  1  0.41482455  0.75139497  0.30272771  1
  Se  Se216  1  0.42185975  0.76303189  0.81330402  1
  Se  Se217  1  0.75267419  0.08548457  0.30602134  1
  Se  Se218  1  0.75010083  0.08078435  0.80267564  1
  Se  Se219  1  0.74727671  0.41515951  0.30373940  1
  Se  Se220  1  0.76205372  0.41823171  0.81289032  1
  Se  Se221  1  0.75843150  0.76075812  0.31142957  1
  Se  Se222  1  0.74860289  0.74488002  0.79729578  1
  Se  Se223  1  0.24383316  0.08121873  0.18432510  1
  Se  Se224  1  0.24625464  0.08318401  0.70102953  1
  Se  Se225  1  0.24799359  0.40927126  0.20128696  1
  Se  Se226  1  0.24194002  0.42594019  0.68814550  1
  Se  Se227  1  0.24883145  0.74525899  0.20201573  1
  Se  Se228  1  0.24804503  0.76338155  0.68956609  1
  Se  Se229  1  0.58970525  0.08293708  0.20123617  1
  Se  Se230  1  0.57905484  0.08145509  0.70021179  1
  Se  Se231  1  0.58210185  0.41959866  0.20289949  1
  Se  Se232  1  0.58263274  0.41589370  0.69031003  1
  Se  Se233  1  0.58147464  0.75704038  0.18899040  1
  Se  Se234  1  0.58251521  0.74833335  0.69354755  1
  Se  Se235  1  0.91919329  0.08807120  0.19570718  1
  Se  Se236  1  0.91988400  0.08240083  0.69920202  1
  Se  Se237  1  0.91068332  0.42577077  0.18512581  1
  Se  Se238  1  0.92447118  0.41466575  0.69384890  1
  Se  Se239  1  0.91764613  0.75042773  0.20307260  1
  Se  Se240  1  0.90720952  0.76005853  0.68304248  1
  Se  Se241  1  0.08757504  0.23954893  0.18289231  1
  Se  Se242  1  0.08281101  0.25286367  0.70186062  1
  Se  Se243  1  0.08112090  0.58289788  0.19751843  1
  Se  Se244  1  0.08901006  0.58413939  0.68499939  1
  Se  Se245  1  0.08912273  0.92974217  0.19762183  1
  Se  Se246  1  0.07744249  0.91995121  0.70250219  1
  Se  Se247  1  0.41770307  0.24794897  0.19948751  1
  Se  Se248  1  0.42734818  0.24037206  0.69268888  1
  Se  Se249  1  0.41460532  0.58652028  0.20664418  1
  Se  Se250  1  0.41845010  0.58098429  0.68840783  1
  Se  Se251  1  0.42514502  0.91211822  0.18656938  1
  Se  Se252  1  0.40995228  0.91242469  0.69019707  1
  Se  Se253  1  0.74914247  0.25746029  0.20054654  1
  Se  Se254  1  0.75847899  0.24538297  0.69009241  1
  Se  Se255  1  0.75393675  0.58244835  0.18976286  1
  Se  Se256  1  0.75076402  0.57892135  0.69624183  1
  Se  Se257  1  0.75023072  0.92469698  0.19990428  1
  Se  Se258  1  0.75094796  0.92202613  0.69545863  1
