# generated using pymatgen
data_In86Cu29Se144
_symmetry_space_group_name_H-M   'P 1'
_cell_length_a   17.57786544
_cell_length_b   17.57638210
_cell_length_c   23.43996620
_cell_angle_alpha   89.98190521
_cell_angle_beta   89.99192118
_cell_angle_gamma   90.00920104
_symmetry_Int_Tables_number   1
_chemical_formula_structural   In86Cu29Se144
_chemical_formula_sum   'In86 Cu29 Se144'
_cell_volume   7241.90078534
_cell_formula_units_Z   1
loop_
 _symmetry_equiv_pos_site_id
 _symmetry_equiv_pos_as_xyz
  1  'x, y, z'
loop_
 _atom_site_type_symbol
 _atom_site_label
 _atom_site_symmetry_multiplicity
 _atom_site_fract_x
 _atom_site_fract_y
 _atom_site_fract_z
 _atom_site_occupancy
  In  In0  1  0.03080293  0.12909165  0.16983422  1
  In  In1  1  0.00580390  0.16878906  0.61572899  1
  In  In2  1  0.00040429  0.49357354  0.12918142  1
  In  In3  1  0.00589630  0.48978262  0.61937786  1
  In  In4  1  0.01099741  0.84917975  0.12090246  1
  In  In5  1  0.00415811  0.84682643  0.61221651  1
  In  In6  1  0.34361630  0.16270736  0.12414004  1
  In  In7  1  0.32782570  0.15543693  0.63030001  1
  In  In8  1  0.33596460  0.49990132  0.12745821  1
  In  In9  1  0.34307437  0.49445930  0.62742252  1
  In  In10  1  0.32312883  0.84250820  0.13070351  1
  In  In11  1  0.33077210  0.83384495  0.62626361  1
  In  In12  1  0.65864024  0.16071316  0.12816221  1
  In  In13  1  0.65512862  0.15377189  0.61744713  1
  In  In14  1  0.67493537  0.50422328  0.13078117  1
  In  In15  1  0.66137096  0.52062514  0.62247948  1
  In  In16  1  0.66641660  0.82839011  0.13007135  1
  In  In17  1  0.66159991  0.83717050  0.62229787  1
  In  In18  1  0.15633154  0.01315156  0.37803310  1
  In  In19  1  0.17734717  -0.00146789  0.88178434  1
  In  In20  1  0.15418373  0.31191033  0.35660155  1
  In  In21  1  0.18523212  0.30551954  0.88225124  1
  In  In22  1  0.18479038  0.67177439  0.37562862  1
  In  In23  1  0.18042111  0.67722526  0.86774835  1
  In  In24  1  0.51645608  -0.01387551  0.38272077  1
  In  In25  1  0.50399920  0.00557341  0.87220381  1
  In  In26  1  0.49183063  0.33803306  0.38295330  1
  In  In27  1  0.48029135  0.32805372  0.87143182  1
  In  In28  1  0.49593254  0.67022202  0.37114590  1
  In  In29  1  0.49673361  0.67469028  0.86283782  1
  In  In30  1  0.82928644  0.00309074  0.36430258  1
  In  In31  1  0.81554545  -0.01338094  0.87340233  1
  In  In32  1  0.83111656  0.30352670  0.36588961  1
  In  In33  1  0.84545709  0.32858636  0.87794822  1
  In  In34  1  0.83092960  0.68801017  0.37862591  1
  In  In35  1  0.82869715  0.69100856  0.87808688  1
  In  In36  1  0.00102284  0.15716887  0.36467835  1
  In  In37  1  0.00794650  0.16933908  0.88112382  1
  In  In38  1  0.00967434  0.48936131  0.37510349  1
  In  In39  1  0.00106591  0.49982518  0.87688767  1
  In  In40  1  -0.01309513  0.85036967  0.38313701  1
  In  In41  1  -0.00158316  0.83938388  0.88232978  1
  In  In42  1  0.32270141  0.17366322  0.37880486  1
  In  In43  1  0.33100643  0.16701961  0.86989228  1
  In  In44  1  0.33872680  0.50208469  0.37308188  1
  In  In45  1  0.33884607  0.49964088  0.86452288  1
  In  In46  1  0.34627931  0.82653882  0.38402019  1
  In  In47  1  0.32165885  0.84405905  0.85896744  1
  In  In48  1  0.67709733  0.15158499  0.38331706  1
  In  In49  1  0.65892551  0.13952384  0.87063010  1
  In  In50  1  0.64711691  0.50036970  0.37972379  1
  In  In51  1  0.64993966  0.50465317  0.87300745  1
  In  In52  1  0.66422388  0.83913828  0.36589622  1
  In  In53  1  0.66922104  0.84284740  0.86952370  1
  In  In54  1  0.17290348  -0.00745247  0.12016984  1
  In  In55  1  0.17403421  0.00393909  0.62333152  1
  In  In56  1  0.18875289  0.30455066  0.14742391  1
  In  In57  1  0.17839324  0.32829530  0.62552484  1
  In  In58  1  0.16649468  0.68743280  0.12717631  1
  In  In59  1  0.17302861  0.68515098  0.62457701  1
  In  In60  1  0.49350711  0.00716486  0.12933166  1
  In  In61  1  0.49909422  0.00044747  0.62319246  1
  In  In62  1  0.50207659  0.30945613  0.12689280  1
  In  In63  1  0.48091679  0.31842721  0.61071237  1
  In  In64  1  0.49894020  0.67617204  0.13861884  1
  In  In65  1  0.49933715  0.67292198  0.62239484  1
  In  In66  1  0.84220537  0.00137657  0.13304877  1
  In  In67  1  0.82350917  -0.00782425  0.61661202  1
  In  In68  1  0.84383981  0.32930394  0.13325675  1
  In  In69  1  0.84554836  0.32348197  0.61739222  1
  In  In70  1  0.81633598  0.67168096  0.13316534  1
  In  In71  1  0.81375691  0.67300233  0.62510603  1
  In  In72  1  0.17317518  0.49583785  0.49678637  1
  In  In73  1  0.34079149  -0.00730320  0.25467292  1
  In  In74  1  0.65884961  0.33386591  0.25176865  1
  In  In75  1  0.82948562  0.50564492  0.01576602  1
  In  In76  1  0.49805067  0.84169688  -0.00039143  1
  In  In77  1  -0.00262023  0.66970605  0.75406790  1
  In  In78  1  0.49842377  0.49859282  -0.00190186  1
  In  In79  1  0.00764901  0.33366529  0.74318674  1
  In  In80  1  0.83200578  0.49873319  0.50377624  1
  In  In81  1  0.83895609  0.16284209  0.00870426  1
  In  In82  1  0.66030964  0.33420899  0.74102336  1
  In  In83  1  0.01233753  0.00245263  0.75183125  1
  In  In84  1  0.00277170  0.66747810  0.25405676  1
  In  In85  1  0.16439574  0.50591589  -0.00491462  1
  Cu  Cu86  1  0.66168714  0.67811368  0.49668278  1
  Cu  Cu87  1  0.83247895  0.15589685  0.74397310  1
  Cu  Cu88  1  0.66814435  0.67070405  0.00379309  1
  Cu  Cu89  1  0.00045952  0.68558460  0.00335676  1
  Cu  Cu90  1  0.17428024  0.49619956  0.25387272  1
  Cu  Cu91  1  0.83468858  0.83772677  0.25026203  1
  Cu  Cu92  1  0.49803468  0.16520763  0.74195857  1
  Cu  Cu93  1  0.67106559  -0.00167410  0.49622266  1
  Cu  Cu94  1  0.00043916  0.67256228  0.49960723  1
  Cu  Cu95  1  0.66455522  0.33048040  0.49602714  1
  Cu  Cu96  1  0.82604378  0.83118475  0.74409475  1
  Cu  Cu97  1  0.32690182  0.67908137  -0.00465009  1
  Cu  Cu98  1  0.32463906  0.32553909  0.49791250  1
  Cu  Cu99  1  0.81902528  0.50257460  0.75060992  1
  Cu  Cu100  1  0.34013947  0.67144760  0.49880727  1
  Cu  Cu101  1  -0.00300504  0.31625439  0.48646747  1
  Cu  Cu102  1  0.82800103  0.50399412  0.25929570  1
  Cu  Cu103  1  0.16974678  0.83506999  0.25401534  1
  Cu  Cu104  1  0.49562781  0.16582618  0.25614242  1
  Cu  Cu105  1  0.00871049  0.33156591  0.01194989  1
  Cu  Cu106  1  0.16635654  0.50102448  0.74924276  1
  Cu  Cu107  1  0.33243487  0.31841181  0.00173324  1
  Cu  Cu108  1  0.50424761  0.50771289  0.74423282  1
  Cu  Cu109  1  0.49424279  0.50351544  0.25409907  1
  Cu  Cu110  1  0.49915035  0.83415406  0.74528400  1
  Cu  Cu111  1  -0.00143764  0.00521544  0.49551548  1
  Cu  Cu112  1  0.00077441  0.00606285  0.00746382  1
  Cu  Cu113  1  0.66231920  0.31334982  0.00111723  1
  Cu  Cu114  1  0.33534108  -0.00057272  0.49959190  1
  Se  Se115  1  0.07674091  0.08567435  0.06930591  1
  Se  Se116  1  0.08637382  0.07969151  0.55269646  1
  Se  Se117  1  0.09447683  0.41394017  0.06597335  1
  Se  Se118  1  0.07708410  0.39694287  0.54870952  1
  Se  Se119  1  0.09211409  0.76378358  0.05199452  1
  Se  Se120  1  0.08697494  0.75378017  0.55133338  1
  Se  Se121  1  0.40484920  0.06660261  0.05491504  1
  Se  Se122  1  0.41424463  0.08438598  0.55639615  1
  Se  Se123  1  0.41304217  0.40352804  0.05842303  1
  Se  Se124  1  0.40755760  0.41597398  0.54659327  1
  Se  Se125  1  0.41233162  0.74566656  0.06028941  1
  Se  Se126  1  0.41788304  0.75720970  0.55409917  1
  Se  Se127  1  0.74425942  0.07343010  0.06161750  1
  Se  Se128  1  0.75149671  0.08642880  0.54965083  1
  Se  Se129  1  0.73920848  0.39902013  0.06170278  1
  Se  Se130  1  0.73995412  0.40887075  0.56375168  1
  Se  Se131  1  0.75178773  0.75339145  0.05536581  1
  Se  Se132  1  0.74787147  0.75771877  0.55047182  1
  Se  Se133  1  0.24862385  0.24192533  0.05896695  1
  Se  Se134  1  0.24902908  0.24049130  0.55582602  1
  Se  Se135  1  0.25423471  0.59411876  0.05776131  1
  Se  Se136  1  0.25640397  0.58957233  0.55798224  1
  Se  Se137  1  0.26055888  0.91905037  0.05095879  1
  Se  Se138  1  0.25131025  0.91682998  0.55424387  1
  Se  Se139  1  0.57602611  0.23193679  0.05145508  1
  Se  Se140  1  0.58167317  0.24678255  0.55071981  1
  Se  Se141  1  0.58674891  0.58852599  0.06137629  1
  Se  Se142  1  0.57956619  0.59116532  0.54835180  1
  Se  Se143  1  0.58786752  0.92320777  0.06372094  1
  Se  Se144  1  0.58359374  0.92126538  0.55147940  1
  Se  Se145  1  0.93146412  0.24639673  0.06847122  1
  Se  Se146  1  0.91367469  0.23771292  0.54455281  1
  Se  Se147  1  0.92753511  0.60020888  0.06630402  1
  Se  Se148  1  0.92322977  0.59210031  0.56226145  1
  Se  Se149  1  0.91498219  0.92123810  0.05641744  1
  Se  Se150  1  0.91273002  0.91995500  0.54607800  1
  Se  Se151  1  0.08650476  0.23742266  0.43728441  1
  Se  Se152  1  0.08594826  0.25028790  0.95325824  1
  Se  Se153  1  0.07903697  0.59097777  0.44076835  1
  Se  Se154  1  0.07383744  0.60397667  0.93920271  1
  Se  Se155  1  0.08560007  0.91957266  0.44686382  1
  Se  Se156  1  0.08115238  0.92574505  0.94703600  1
  Se  Se157  1  0.41549759  0.24508523  0.44825417  1
  Se  Se158  1  0.41838608  0.24068595  0.94628200  1
  Se  Se159  1  0.41756094  0.58420136  0.44356781  1
  Se  Se160  1  0.40917711  0.59417820  0.93937082  1
  Se  Se161  1  0.42279307  0.91546684  0.45132681  1
  Se  Se162  1  0.40737218  0.92188076  0.93447326  1
  Se  Se163  1  0.75216564  0.24764136  0.44870096  1
  Se  Se164  1  0.74906003  0.24470996  0.93744507  1
  Se  Se165  1  0.74472599  0.59029159  0.44184344  1
  Se  Se166  1  0.74410614  0.58578003  0.94176804  1
  Se  Se167  1  0.75018082  0.91884676  0.43594045  1
  Se  Se168  1  0.74921059  0.90537692  0.94879826  1
  Se  Se169  1  0.24938021  0.08251729  0.44763561  1
  Se  Se170  1  0.22723297  0.11235747  0.93863555  1
  Se  Se171  1  0.24813409  0.40229201  0.43124740  1
  Se  Se172  1  0.26307434  0.41316195  0.94246712  1
  Se  Se173  1  0.24978236  0.75463931  0.45191769  1
  Se  Se174  1  0.25009061  0.76383005  0.93962961  1
  Se  Se175  1  0.58086080  0.08487575  0.45070280  1
  Se  Se176  1  0.58832241  0.07063791  0.94976363  1
  Se  Se177  1  0.57680211  0.41794445  0.45360780  1
  Se  Se178  1  0.58851490  0.40156963  0.94171141  1
  Se  Se179  1  0.58224046  0.75564704  0.43671403  1
  Se  Se180  1  0.58457516  0.74352198  0.94021155  1
  Se  Se181  1  0.91567240  0.08118570  0.43615940  1
  Se  Se182  1  0.91859379  0.07268341  0.93664083  1
  Se  Se183  1  0.91439182  0.40768541  0.43812137  1
  Se  Se184  1  0.92410185  0.41306854  0.95443631  1
  Se  Se185  1  0.91398959  0.75786165  0.45227292  1
  Se  Se186  1  0.91039200  0.76278737  0.95176697  1
  Se  Se187  1  0.25777853  0.24684842  0.29625262  1
  Se  Se188  1  0.27051809  0.26762964  0.79963970  1
  Se  Se189  1  0.25388038  0.58391534  0.30442741  1
  Se  Se190  1  0.25193246  0.58448831  0.80109753  1
  Se  Se191  1  0.24587954  0.91187606  0.31919520  1
  Se  Se192  1  0.25193628  0.94456893  0.79491097  1
  Se  Se193  1  0.57824920  0.24465051  0.31730271  1
  Se  Se194  1  0.57809782  0.24371597  0.80690989  1
  Se  Se195  1  0.58256354  0.58417145  0.30368174  1
  Se  Se196  1  0.58551733  0.59065405  0.79856296  1
  Se  Se197  1  0.58405028  0.92439816  0.29788515  1
  Se  Se198  1  0.57971355  0.91672308  0.80220995  1
  Se  Se199  1  0.93309424  0.25703055  0.29750432  1
  Se  Se200  1  0.91398406  0.23836858  0.80210921  1
  Se  Se201  1  0.91141224  0.58095905  0.31861989  1
  Se  Se202  1  0.90298671  0.57787749  0.81279743  1
  Se  Se203  1  0.92172161  0.92058815  0.29980052  1
  Se  Se204  1  0.91106936  0.90940117  0.80293056  1
  Se  Se205  1  0.09171688  0.08427471  0.29375539  1
  Se  Se206  1  0.09499150  0.09881514  0.80828316  1
  Se  Se207  1  0.08115995  0.41559846  0.29761197  1
  Se  Se208  1  0.09288588  0.41841090  0.81317929  1
  Se  Se209  1  0.08575243  0.75913199  0.31655362  1
  Se  Se210  1  0.08695812  0.76614568  0.80662703  1
  Se  Se211  1  0.42270786  0.08403440  0.31993993  1
  Se  Se212  1  0.41946381  0.08560510  0.80314235  1
  Se  Se213  1  0.41715216  0.41306670  0.30496098  1
  Se  Se214  1  0.42275638  0.41955633  0.79605801  1
  Se  Se215  1  0.40380664  0.74438536  0.30431473  1
  Se  Se216  1  0.40944853  0.75507668  0.79805484  1
  Se  Se217  1  0.74422073  0.08840533  0.29914393  1
  Se  Se218  1  0.74962850  0.07450497  0.79817788  1
  Se  Se219  1  0.75028007  0.41974777  0.31743324  1
  Se  Se220  1  0.75112368  0.41513763  0.81291841  1
  Se  Se221  1  0.75153233  0.75112266  0.29988247  1
  Se  Se222  1  0.74361535  0.74969979  0.80027820  1
  Se  Se223  1  0.25252807  0.08080280  0.19314500  1
  Se  Se224  1  0.25913781  0.06406650  0.70269504  1
  Se  Se225  1  0.25858113  0.41608534  0.19831866  1
  Se  Se226  1  0.24923691  0.41917399  0.69356000  1
  Se  Se227  1  0.25362027  0.75084498  0.20233103  1
  Se  Se228  1  0.25666019  0.74753286  0.69966580  1
  Se  Se229  1  0.57767520  0.08357957  0.20127631  1
  Se  Se230  1  0.58497980  0.07917618  0.69615802  1
  Se  Se231  1  0.56972362  0.42385614  0.18753690  1
  Se  Se232  1  0.57240701  0.42139309  0.67901084  1
  Se  Se233  1  0.60013569  0.73721855  0.20175911  1
  Se  Se234  1  0.58413495  0.75144338  0.69305938  1
  Se  Se235  1  0.90035501  0.09197537  0.20840029  1
  Se  Se236  1  0.91820156  0.08224828  0.68473464  1
  Se  Se237  1  0.90871184  0.42789008  0.20009441  1
  Se  Se238  1  0.90482829  0.42604765  0.69198822  1
  Se  Se239  1  0.91840207  0.75696492  0.18989575  1
  Se  Se240  1  0.91370746  0.75738393  0.68513980  1
  Se  Se241  1  0.06124773  0.27047288  0.19333860  1
  Se  Se242  1  0.09643596  0.23530103  0.69288803  1
  Se  Se243  1  0.09570377  0.57954417  0.19222408  1
  Se  Se244  1  0.08548266  0.57858606  0.68852826  1
  Se  Se245  1  0.09127975  0.91832894  0.19725007  1
  Se  Se246  1  0.09207935  0.90667119  0.69058450  1
  Se  Se247  1  0.41361625  0.24755275  0.20117623  1
  Se  Se248  1  0.41210058  0.24916582  0.69280916  1
  Se  Se249  1  0.41240370  0.58530694  0.19690885  1
  Se  Se250  1  0.41692682  0.58851961  0.69241129  1
  Se  Se251  1  0.43086746  0.90030961  0.19633701  1
  Se  Se252  1  0.41711514  0.91822131  0.69271401  1
  Se  Se253  1  0.75114675  0.24465625  0.19446132  1
  Se  Se254  1  0.75620574  0.24300028  0.68635121  1
  Se  Se255  1  0.74541942  0.58548078  0.20610969  1
  Se  Se256  1  0.74134272  0.59035640  0.69941240  1
  Se  Se257  1  0.75058759  0.91644597  0.19443128  1
  Se  Se258  1  0.74587897  0.91926334  0.69304364  1
