# generated using pymatgen
data_In86Cu29Se144
_symmetry_space_group_name_H-M   'P 1'
_cell_length_a   17.57011197
_cell_length_b   17.57530302
_cell_length_c   23.43358089
_cell_angle_alpha   89.98314631
_cell_angle_beta   89.98966499
_cell_angle_gamma   90.00916682
_symmetry_Int_Tables_number   1
_chemical_formula_structural   In86Cu29Se144
_chemical_formula_sum   'In86 Cu29 Se144'
_cell_volume   7236.29024179
_cell_formula_units_Z   1
loop_
 _symmetry_equiv_pos_site_id
 _symmetry_equiv_pos_as_xyz
  1  'x, y, z'
loop_
 _atom_site_type_symbol
 _atom_site_label
 _atom_site_symmetry_multiplicity
 _atom_site_fract_x
 _atom_site_fract_y
 _atom_site_fract_z
 _atom_site_occupancy
  In  In0  1  0.01202615  0.16968272  0.12563211  1
  In  In1  1  0.00914217  0.17162371  0.62772502  1
  In  In2  1  -0.00142444  0.50185258  0.12424661  1
  In  In3  1  -0.00016650  0.49654591  0.62409054  1
  In  In4  1  -0.00512819  0.82163289  0.11847630  1
  In  In5  1  0.00724750  0.84225815  0.63913828  1
  In  In6  1  0.33159209  0.15378980  0.12605329  1
  In  In7  1  0.32893456  0.17089380  0.63140277  1
  In  In8  1  0.33177280  0.50846247  0.11967917  1
  In  In9  1  0.31084175  0.48298561  0.60875685  1
  In  In10  1  0.34275789  0.84059203  0.11350393  1
  In  In11  1  0.32984901  0.84144316  0.62949185  1
  In  In12  1  0.66134154  0.18870930  0.12374552  1
  In  In13  1  0.65808191  0.16082725  0.61960279  1
  In  In14  1  0.68033714  0.48724978  0.13444707  1
  In  In15  1  0.66552526  0.49396192  0.61421606  1
  In  In16  1  0.64990365  0.83442792  0.12547997  1
  In  In17  1  0.67348790  0.84422937  0.62848015  1
  In  In18  1  0.17379798  -0.00235215  0.37795021  1
  In  In19  1  0.17150152  -0.00254750  0.85960121  1
  In  In20  1  0.15578008  0.34271928  0.38212238  1
  In  In21  1  0.17020718  0.34404727  0.86665855  1
  In  In22  1  0.15739953  0.67108483  0.37632534  1
  In  In23  1  0.15904953  0.67277182  0.87782855  1
  In  In24  1  0.49512258  0.01523767  0.37809892  1
  In  In25  1  0.49013787  0.00833509  0.86913677  1
  In  In26  1  0.50634890  0.32413158  0.38120406  1
  In  In27  1  0.48868605  0.32281106  0.87157657  1
  In  In28  1  0.49963721  0.65067526  0.37418936  1
  In  In29  1  0.51251070  0.66739909  0.88171899  1
  In  In30  1  0.84235954  0.01263802  0.38261418  1
  In  In31  1  0.84254087  0.00637213  0.86580203  1
  In  In32  1  0.83683339  0.33419374  0.37807456  1
  In  In33  1  0.84522069  0.32984373  0.87450141  1
  In  In34  1  0.82479859  0.65619191  0.36843143  1
  In  In35  1  0.83830120  0.65468206  0.88097216  1
  In  In36  1  -0.01558995  0.17879690  0.39539981  1
  In  In37  1  0.01834537  0.17512356  0.85198182  1
  In  In38  1  0.00073092  0.49807857  0.37570859  1
  In  In39  1  -0.00250070  0.50444060  0.87351674  1
  In  In40  1  0.01419393  0.82776430  0.37221211  1
  In  In41  1  0.02491730  0.84378462  0.85556438  1
  In  In42  1  0.34123716  0.16075328  0.37968890  1
  In  In43  1  0.33703034  0.18557212  0.84461516  1
  In  In44  1  0.33587941  0.50255992  0.39039084  1
  In  In45  1  0.32562577  0.47159991  0.87482636  1
  In  In46  1  0.31913356  0.84549900  0.37259388  1
  In  In47  1  0.32445675  0.84264546  0.87729508  1
  In  In48  1  0.66063536  0.17861784  0.38323809  1
  In  In49  1  0.66556671  0.15929164  0.87305144  1
  In  In50  1  0.67142898  0.49504360  0.37538372  1
  In  In51  1  0.66988160  0.50894475  0.88012171  1
  In  In52  1  0.67726501  0.83003764  0.37277777  1
  In  In53  1  0.65447233  0.83976170  0.88256579  1
  In  In54  1  0.18085311  0.00647543  0.11944413  1
  In  In55  1  0.14230485  0.03423913  0.67066135  1
  In  In56  1  0.15011021  0.33129774  0.12631346  1
  In  In57  1  0.16431127  0.33162463  0.62954343  1
  In  In58  1  0.15669439  0.65864866  0.11427259  1
  In  In59  1  0.16647309  0.64904129  0.62133273  1
  In  In60  1  0.48947277  -0.00504265  0.11819085  1
  In  In61  1  0.47650911  0.03079136  0.64984775  1
  In  In62  1  0.51645099  0.33736188  0.11955280  1
  In  In63  1  0.48477068  0.32049333  0.62006571  1
  In  In64  1  0.49469757  0.67635807  0.12609846  1
  In  In65  1  0.49850760  0.66124883  0.61971299  1
  In  In66  1  0.84019727  0.00007656  0.12064519  1
  In  In67  1  0.82793780  0.00601447  0.63104047  1
  In  In68  1  0.82398004  0.34706209  0.13182712  1
  In  In69  1  0.84310223  0.34190700  0.61772064  1
  In  In70  1  0.84911554  0.65175251  0.13508494  1
  In  In71  1  0.84644424  0.66536603  0.62253931  1
  In  In72  1  0.83081374  0.82605355  -0.00188937  1
  In  In73  1  0.82958312  0.16937014  -0.00331474  1
  In  In74  1  0.17862644  0.17611320  -0.01336711  1
  In  In75  1  0.32940302  0.66938154  0.24912227  1
  In  In76  1  0.16734209  0.83766162  0.50396535  1
  In  In77  1  0.66439781  0.32695566  0.75344916  1
  In  In78  1  0.66455041  -0.00299914  0.25037767  1
  In  In79  1  0.49933166  0.83664788  0.51067596  1
  In  In80  1  0.83809009  0.83459966  0.50625292  1
  In  In81  1  0.67427478  0.66737002  0.75836912  1
  In  In82  1  0.49702407  0.49719727  -0.00094772  1
  In  In83  1  0.00510700  -0.00157693  0.25582320  1
  In  In84  1  0.33330767  0.66444341  0.75241785  1
  In  In85  1  0.33508560  0.33192238  0.25121544  1
  Cu  Cu86  1  0.00393349  0.66708302  -0.00248001  1
  Cu  Cu87  1  0.51137864  0.83379450  0.75644265  1
  Cu  Cu88  1  0.83931086  0.49718992  0.25473072  1
  Cu  Cu89  1  0.16043720  0.50186099  0.25008305  1
  Cu  Cu90  1  -0.00087044  0.65967592  0.49872174  1
  Cu  Cu91  1  0.33206624  0.32859832  0.50251029  1
  Cu  Cu92  1  0.00782698  0.33341582  0.50317730  1
  Cu  Cu93  1  0.84011591  0.49918629  0.74636859  1
  Cu  Cu94  1  0.16797722  0.83497444  0.24463969  1
  Cu  Cu95  1  0.33171902  0.00958938  0.50996005  1
  Cu  Cu96  1  0.67226858  0.33250062  0.49911985  1
  Cu  Cu97  1  0.50006751  0.16451857  0.25442676  1
  Cu  Cu98  1  0.65452336  0.00500712  -0.00245600  1
  Cu  Cu99  1  0.83614653  0.83550306  0.75090979  1
  Cu  Cu100  1  0.00998282  0.00257319  -0.01713641  1
  Cu  Cu101  1  0.83443091  0.82354293  0.24955833  1
  Cu  Cu102  1  0.66433586  0.66012560  0.49500181  1
  Cu  Cu103  1  0.32930610  0.66633083  -0.00367174  1
  Cu  Cu104  1  0.66868988  0.66309463  0.00773820  1
  Cu  Cu105  1  0.16366187  0.16961086  0.25237865  1
  Cu  Cu106  1  0.49429182  0.83490311  0.24500130  1
  Cu  Cu107  1  0.16103503  0.49880570  0.74672252  1
  Cu  Cu108  1  0.48978315  0.49096675  0.74441169  1
  Cu  Cu109  1  0.83491728  0.17399949  0.25489574  1
  Cu  Cu110  1  0.83628586  0.17152525  0.74565489  1
  Cu  Cu111  1  0.33543728  0.00099815  -0.00687910  1
  Cu  Cu112  1  0.51042759  0.49423480  0.25422832  1
  Cu  Cu113  1  -0.00636782  0.34358029  0.00044200  1
  Cu  Cu114  1  0.66430947  0.01050584  0.50510322  1
  Se  Se115  1  0.08387289  0.08333537  0.04894346  1
  Se  Se116  1  0.09953590  0.07930347  0.57215609  1
  Se  Se117  1  0.08286118  0.41965350  0.05418273  1
  Se  Se118  1  0.08928155  0.41811453  0.55716352  1
  Se  Se119  1  0.08612300  0.75555735  0.04767152  1
  Se  Se120  1  0.07224097  0.74562746  0.56020954  1
  Se  Se121  1  0.41447736  0.08539764  0.05003806  1
  Se  Se122  1  0.41873941  0.09226759  0.56008734  1
  Se  Se123  1  0.40706449  0.40670436  0.05840784  1
  Se  Se124  1  0.41853470  0.41617466  0.55100676  1
  Se  Se125  1  0.41803776  0.74664458  0.04793313  1
  Se  Se126  1  0.40132463  0.74415331  0.55923532  1
  Se  Se127  1  0.74001049  0.07733508  0.06006585  1
  Se  Se128  1  0.75601455  0.08772177  0.55523032  1
  Se  Se129  1  0.74211285  0.40952926  0.05392198  1
  Se  Se130  1  0.75651775  0.41914004  0.54816028  1
  Se  Se131  1  0.74832725  0.74351857  0.06889255  1
  Se  Se132  1  0.73939905  0.74142001  0.55922885  1
  Se  Se133  1  0.25279136  0.25494528  0.06476350  1
  Se  Se134  1  0.24785936  0.24943623  0.55889838  1
  Se  Se135  1  0.24736844  0.58066287  0.04796017  1
  Se  Se136  1  0.24831797  0.58507063  0.54509648  1
  Se  Se137  1  0.25128286  0.91954080  0.04794202  1
  Se  Se138  1  0.24706244  0.93154132  0.56598858  1
  Se  Se139  1  0.57517251  0.24517228  0.04694487  1
  Se  Se140  1  0.58445000  0.25380324  0.55370867  1
  Se  Se141  1  0.58462882  0.58264851  0.06558870  1
  Se  Se142  1  0.57999504  0.58030646  0.55043761  1
  Se  Se143  1  0.57847581  0.91542434  0.05102888  1
  Se  Se144  1  0.58492099  0.93221272  0.56669758  1
  Se  Se145  1  0.92096183  0.25439555  0.06083487  1
  Se  Se146  1  0.92397692  0.24911748  0.55577192  1
  Se  Se147  1  0.91834554  0.58545225  0.05177558  1
  Se  Se148  1  0.91500778  0.57660193  0.55164139  1
  Se  Se149  1  0.92874503  0.92706895  0.04715691  1
  Se  Se150  1  0.92675601  0.92378591  0.56492101  1
  Se  Se151  1  0.09169429  0.24680322  0.45216337  1
  Se  Se152  1  0.07058154  0.25934479  0.93918174  1
  Se  Se153  1  0.08625958  0.58094287  0.44514793  1
  Se  Se154  1  0.08471516  0.57979443  0.94475894  1
  Se  Se155  1  0.07216949  0.92540039  0.44445004  1
  Se  Se156  1  0.09522626  0.91749985  0.93613895  1
  Se  Se157  1  0.41803012  0.24700743  0.44892037  1
  Se  Se158  1  0.39263658  0.24937358  0.93384782  1
  Se  Se159  1  0.41762533  0.59155818  0.45191605  1
  Se  Se160  1  0.40701982  0.58421350  0.93436452  1
  Se  Se161  1  0.40725755  0.92541757  0.44685050  1
  Se  Se162  1  0.42039017  0.91610441  0.94122192  1
  Se  Se163  1  0.75761062  0.24707930  0.44840039  1
  Se  Se164  1  0.74009715  0.26016414  0.93821634  1
  Se  Se165  1  0.75359703  0.57958803  0.44595779  1
  Se  Se166  1  0.75226958  0.58228797  0.95370942  1
  Se  Se167  1  0.74203952  0.92540170  0.44629231  1
  Se  Se168  1  0.74965100  0.93158022  0.94254784  1
  Se  Se169  1  0.25020437  0.08418576  0.44706064  1
  Se  Se170  1  0.26200796  0.08086718  0.92806696  1
  Se  Se171  1  0.24941291  0.41405860  0.45003944  1
  Se  Se172  1  0.24403230  0.40496750  0.95022924  1
  Se  Se173  1  0.25699234  0.74680093  0.44202585  1
  Se  Se174  1  0.24782695  0.75199856  0.94405689  1
  Se  Se175  1  0.57975845  0.08898324  0.44873091  1
  Se  Se176  1  0.57489210  0.08726906  0.94161723  1
  Se  Se177  1  0.58672781  0.41470719  0.44501996  1
  Se  Se178  1  0.58375739  0.40971626  0.93469114  1
  Se  Se179  1  0.58699174  0.75049474  0.44177668  1
  Se  Se180  1  0.58762208  0.74874553  0.95489527  1
  Se  Se181  1  0.92296538  0.07538267  0.45893019  1
  Se  Se182  1  0.93047650  0.09252646  0.93312091  1
  Se  Se183  1  0.92277092  0.41440077  0.44711107  1
  Se  Se184  1  0.91081965  0.42332581  0.94421637  1
  Se  Se185  1  0.92147448  0.74454375  0.43901103  1
  Se  Se186  1  0.92930040  0.75228628  0.93564282  1
  Se  Se187  1  0.24496156  0.24737088  0.31427265  1
  Se  Se188  1  0.21131068  0.23303501  0.79811102  1
  Se  Se189  1  0.24611174  0.57533049  0.31097547  1
  Se  Se190  1  0.24482516  0.57132675  0.81166272  1
  Se  Se191  1  0.24578389  0.92320529  0.29723720  1
  Se  Se192  1  0.24170938  0.89661024  0.79602769  1
  Se  Se193  1  0.58428628  0.24931268  0.30426776  1
  Se  Se194  1  0.56971334  0.23242589  0.80213452  1
  Se  Se195  1  0.59078291  0.58233108  0.30518684  1
  Se  Se196  1  0.57198269  0.57093304  0.80409892  1
  Se  Se197  1  0.57200588  0.91030522  0.31281336  1
  Se  Se198  1  0.58681361  0.92411796  0.80856651  1
  Se  Se199  1  0.92254888  0.24916477  0.31002114  1
  Se  Se200  1  0.91899259  0.25726534  0.79699033  1
  Se  Se201  1  0.92231416  0.58460200  0.30504603  1
  Se  Se202  1  0.91520424  0.58761211  0.80169608  1
  Se  Se203  1  0.90716400  0.90815903  0.31234858  1
  Se  Se204  1  0.92300004  0.92079058  0.79901119  1
  Se  Se205  1  0.08459269  0.09306343  0.31711777  1
  Se  Se206  1  0.07586105  0.06712620  0.79188521  1
  Se  Se207  1  0.08136712  0.41481873  0.30353208  1
  Se  Se208  1  0.07559439  0.41935975  0.80262171  1
  Se  Se209  1  0.08753117  0.74863720  0.29702641  1
  Se  Se210  1  0.07198744  0.72728620  0.79932419  1
  Se  Se211  1  0.41180436  0.08070619  0.30115634  1
  Se  Se212  1  0.39641935  0.06756309  0.79428142  1
  Se  Se213  1  0.42093600  0.42337455  0.31369526  1
  Se  Se214  1  0.41140853  0.40649079  0.79915998  1
  Se  Se215  1  0.41885357  0.75784743  0.31245946  1
  Se  Se216  1  0.42850287  0.75171611  0.81271662  1
  Se  Se217  1  0.75402200  0.08819176  0.31036148  1
  Se  Se218  1  0.75505064  0.08987220  0.80220774  1
  Se  Se219  1  0.75400710  0.41258046  0.30591486  1
  Se  Se220  1  0.75465901  0.42582296  0.80777393  1
  Se  Se221  1  0.74553336  0.74435745  0.29994747  1
  Se  Se222  1  0.75935666  0.76171278  0.81865938  1
  Se  Se223  1  0.24543547  0.08456765  0.19995607  1
  Se  Se224  1  0.28079332  0.06441485  0.70286841  1
  Se  Se225  1  0.24512407  0.42433077  0.19122847  1
  Se  Se226  1  0.25069194  0.41799643  0.69617438  1
  Se  Se227  1  0.24599341  0.75507282  0.18192650  1
  Se  Se228  1  0.24245010  0.74613553  0.68900313  1
  Se  Se229  1  0.57829667  0.08672795  0.18858695  1
  Se  Se230  1  0.59913191  0.07665819  0.69809299  1
  Se  Se231  1  0.58815123  0.40828326  0.19986892  1
  Se  Se232  1  0.57976802  0.41711189  0.68820364  1
  Se  Se233  1  0.58074090  0.74828952  0.19944232  1
  Se  Se234  1  0.58244362  0.74972825  0.69249402  1
  Se  Se235  1  0.91172738  0.09044669  0.19415053  1
  Se  Se236  1  0.91970990  0.08705378  0.69383195  1
  Se  Se237  1  0.92136640  0.41683360  0.19620738  1
  Se  Se238  1  0.92107519  0.41197600  0.69602057  1
  Se  Se239  1  0.92547448  0.74801966  0.19823563  1
  Se  Se240  1  0.91486257  0.75190397  0.69518857  1
  Se  Se241  1  0.07756720  0.25220837  0.20273389  1
  Se  Se242  1  0.09623269  0.24279134  0.70334917  1
  Se  Se243  1  0.08274978  0.58645586  0.19322201  1
  Se  Se244  1  0.07837867  0.58289076  0.69473116  1
  Se  Se245  1  0.08644602  0.91481040  0.18324701  1
  Se  Se246  1  0.10798646  0.89847156  0.70723913  1
  Se  Se247  1  0.42437609  0.24452316  0.18933562  1
  Se  Se248  1  0.41137390  0.25499468  0.70034591  1
  Se  Se249  1  0.42545870  0.57321242  0.19586082  1
  Se  Se250  1  0.41335387  0.57368290  0.68560131  1
  Se  Se251  1  0.41081613  0.91846694  0.19357279  1
  Se  Se252  1  0.42725418  0.90598627  0.69626709  1
  Se  Se253  1  0.75054258  0.25136795  0.19802649  1
  Se  Se254  1  0.75506517  0.24999193  0.68505316  1
  Se  Se255  1  0.75348748  0.58051146  0.20079736  1
  Se  Se256  1  0.75261292  0.57688132  0.68954696  1
  Se  Se257  1  0.75996892  0.90884162  0.18911296  1
  Se  Se258  1  0.74989804  0.92039012  0.70259132  1
