# generated using pymatgen
data_In86Cu29Se144
_symmetry_space_group_name_H-M   'P 1'
_cell_length_a   17.57080144
_cell_length_b   17.56938340
_cell_length_c   23.42555142
_cell_angle_alpha   90.00261162
_cell_angle_beta   89.98748301
_cell_angle_gamma   89.99803722
_symmetry_Int_Tables_number   1
_chemical_formula_structural   In86Cu29Se144
_chemical_formula_sum   'In86 Cu29 Se144'
_cell_volume   7231.65839053
_cell_formula_units_Z   1
loop_
 _symmetry_equiv_pos_site_id
 _symmetry_equiv_pos_as_xyz
  1  'x, y, z'
loop_
 _atom_site_type_symbol
 _atom_site_label
 _atom_site_symmetry_multiplicity
 _atom_site_fract_x
 _atom_site_fract_y
 _atom_site_fract_z
 _atom_site_occupancy
  In  In0  1  -0.01391165  0.15731982  0.11830537  1
  In  In1  1  0.01756957  0.16673255  0.63751213  1
  In  In2  1  -0.00354523  0.50851488  0.11618291  1
  In  In3  1  -0.00919993  0.50319470  0.63231848  1
  In  In4  1  0.00258401  0.82626943  0.12683973  1
  In  In5  1  -0.00821573  0.82080347  0.61871466  1
  In  In6  1  0.32702395  0.16512379  0.11498188  1
  In  In7  1  0.32357512  0.15636946  0.63744733  1
  In  In8  1  0.33217817  0.51314212  0.11405966  1
  In  In9  1  0.35442852  0.51107233  0.62823196  1
  In  In10  1  0.33264410  0.84057144  0.10714249  1
  In  In11  1  0.33351264  0.82973519  0.63118106  1
  In  In12  1  0.67621692  0.16299865  0.12744050  1
  In  In13  1  0.66821237  0.16597868  0.63351982  1
  In  In14  1  0.67702613  0.49369926  0.12951495  1
  In  In15  1  0.63672061  0.52490425  0.65483290  1
  In  In16  1  0.66115472  0.84087720  0.12546933  1
  In  In17  1  0.66360995  0.83790416  0.62614877  1
  In  In18  1  0.15645988  -0.00599901  0.37458058  1
  In  In19  1  0.17728969  -0.01215624  0.88607305  1
  In  In20  1  0.15949386  0.32130686  0.37325580  1
  In  In21  1  0.16078634  0.34260755  0.88111016  1
  In  In22  1  0.17084628  0.67832849  0.37487931  1
  In  In23  1  0.16448462  0.67123185  0.86480112  1
  In  In24  1  0.50334328  -0.01357522  0.37816707  1
  In  In25  1  0.48464357  -0.01471108  0.86883499  1
  In  In26  1  0.51751318  0.33142716  0.37851731  1
  In  In27  1  0.51277155  0.33517222  0.86931360  1
  In  In28  1  0.50449274  0.66131527  0.38703330  1
  In  In29  1  0.51349048  0.67303199  0.86094207  1
  In  In30  1  0.82225897  -0.01247740  0.36280220  1
  In  In31  1  0.83711892  0.00898925  0.87541615  1
  In  In32  1  0.82835096  0.34444828  0.37535309  1
  In  In33  1  0.83086472  0.33018120  0.88428558  1
  In  In34  1  0.84221908  0.67233397  0.36604164  1
  In  In35  1  0.81995395  0.66194856  0.86125494  1
  In  In36  1  0.00599615  0.15645034  0.36856785  1
  In  In37  1  -0.00998621  0.17245250  0.88657752  1
  In  In38  1  -0.01760959  0.49886569  0.37354994  1
  In  In39  1  0.00251253  0.50107613  0.87493969  1
  In  In40  1  0.00245045  0.82937678  0.37391696  1
  In  In41  1  0.01087244  0.83485677  0.86610072  1
  In  In42  1  0.32512991  0.16382329  0.37362153  1
  In  In43  1  0.32596087  0.14690506  0.87383531  1
  In  In44  1  0.33407958  0.51924272  0.38057938  1
  In  In45  1  0.32162641  0.49849850  0.87092757  1
  In  In46  1  0.33744299  0.82940166  0.38900107  1
  In  In47  1  0.33152717  0.84223031  0.87134246  1
  In  In48  1  0.67738963  0.16964725  0.36331618  1
  In  In49  1  0.68077669  0.17110828  0.87301241  1
  In  In50  1  0.66496224  0.50139068  0.37440621  1
  In  In51  1  0.66955706  0.50411226  0.87081330  1
  In  In52  1  0.66828747  0.83122241  0.37603680  1
  In  In53  1  0.66007596  0.82084814  0.86232014  1
  In  In54  1  0.14821572  -0.01967258  0.10696273  1
  In  In55  1  0.19188717  -0.01107272  0.64610041  1
  In  In56  1  0.15540843  0.33071937  0.10649420  1
  In  In57  1  0.15738542  0.32058183  0.63987411  1
  In  In58  1  0.15829500  0.66549716  0.11267805  1
  In  In59  1  0.14868823  0.69094093  0.64821995  1
  In  In60  1  0.51256828  0.00230706  0.11972273  1
  In  In61  1  0.51427775  -0.01529250  0.63440395  1
  In  In62  1  0.51904397  0.34166301  0.12198654  1
  In  In63  1  0.50108366  0.35099508  0.62714354  1
  In  In64  1  0.50002745  0.67820721  0.12294518  1
  In  In65  1  0.49576069  0.66947749  0.63050103  1
  In  In66  1  0.82780773  0.01123694  0.13482508  1
  In  In67  1  0.83788628  -0.02273350  0.62824967  1
  In  In68  1  0.80456734  0.32001541  0.09847823  1
  In  In69  1  0.82867620  0.33918258  0.63447927  1
  In  In70  1  0.83859784  0.66170860  0.12587822  1
  In  In71  1  0.81201317  0.69488441  0.65539467  1
  In  In72  1  0.33790248  0.33358285  0.75195715  1
  In  In73  1  0.50082750  0.50298537  -0.00908544  1
  In  In74  1  0.83521701  0.83356533  -0.00349388  1
  In  In75  1  0.33676938  -0.00020391  0.24827556  1
  In  In76  1  0.82707491  0.50912658  0.50533525  1
  In  In77  1  0.17382273  0.50948799  0.50664403  1
  In  In78  1  -0.01404392  0.33384526  0.24380932  1
  In  In79  1  0.34439513  0.34216459  0.23457769  1
  In  In80  1  0.49778789  0.16205412  0.49839359  1
  In  In81  1  -0.00137674  0.00308471  0.75747325  1
  In  In82  1  0.33494426  0.67098454  0.24549002  1
  In  In83  1  0.83603484  0.16008168  0.49377187  1
  In  In84  1  0.16993043  0.15331179  0.51638576  1
  In  In85  1  0.49639687  0.15977728  -0.00591088  1
  Cu  Cu86  1  0.51303078  0.16722528  0.24669284  1
  Cu  Cu87  1  0.66415302  0.66850483  -0.00703549  1
  Cu  Cu88  1  0.50798773  0.49877494  0.25585577  1
  Cu  Cu89  1  0.66355928  0.67436563  0.51055188  1
  Cu  Cu90  1  -0.00199097  0.00296093  -0.00129035  1
  Cu  Cu91  1  0.33547900  0.34559116  0.50652676  1
  Cu  Cu92  1  0.16359194  0.83167954  0.24734978  1
  Cu  Cu93  1  0.33794109  -0.01201167  0.51277774  1
  Cu  Cu94  1  0.00200194  0.32566900  0.51378238  1
  Cu  Cu95  1  0.15539303  0.50298065  0.23763363  1
  Cu  Cu96  1  0.67187680  -0.00832281  0.50012816  1
  Cu  Cu97  1  0.65977951  0.34727736  0.50451091  1
  Cu  Cu98  1  0.50766420  0.83367184  0.25057863  1
  Cu  Cu99  1  0.00300929  0.66971653  -0.00808878  1
  Cu  Cu100  1  0.84447470  0.48460510  0.75979742  1
  Cu  Cu101  1  0.83618792  0.83289388  0.24829277  1
  Cu  Cu102  1  0.00193418  0.66874093  0.50161275  1
  Cu  Cu103  1  0.33231559  0.33078487  -0.00626452  1
  Cu  Cu104  1  0.50170568  0.16120354  0.75765980  1
  Cu  Cu105  1  0.16300741  0.16067239  0.24267626  1
  Cu  Cu106  1  0.33616487  0.67189993  0.50876052  1
  Cu  Cu107  1  0.32740291  0.67373013  -0.00958997  1
  Cu  Cu108  1  0.83326657  0.17081055  0.75653491  1
  Cu  Cu109  1  0.83132475  0.50348264  0.24635138  1
  Cu  Cu110  1  0.49706630  0.83764278  0.74731469  1
  Cu  Cu111  1  0.00077069  0.34421495  -0.00291945  1
  Cu  Cu112  1  0.00350154  -0.01853452  0.50035824  1
  Cu  Cu113  1  0.66185513  -0.00416070  -0.00134788  1
  Cu  Cu114  1  0.16775682  0.49990871  0.75269916  1
  Se  Se115  1  0.08198498  0.08923797  0.05026108  1
  Se  Se116  1  0.07555223  0.06118267  0.56788292  1
  Se  Se117  1  0.08503046  0.43176225  0.04663334  1
  Se  Se118  1  0.08504048  0.41161450  0.56419536  1
  Se  Se119  1  0.08055064  0.75723223  0.04736037  1
  Se  Se120  1  0.09018254  0.74699881  0.55514826  1
  Se  Se121  1  0.40727311  0.06790854  0.05370678  1
  Se  Se122  1  0.41339292  0.07785906  0.56758495  1
  Se  Se123  1  0.41342405  0.40825588  0.05533158  1
  Se  Se124  1  0.42431417  0.42807621  0.55194595  1
  Se  Se125  1  0.41519539  0.74587520  0.04876130  1
  Se  Se126  1  0.42099412  0.75651842  0.55886763  1
  Se  Se127  1  0.74576856  0.07414716  0.05486985  1
  Se  Se128  1  0.74727459  0.07675910  0.56047294  1
  Se  Se129  1  0.75196841  0.43691801  0.04610464  1
  Se  Se130  1  0.73989383  0.42097906  0.56738498  1
  Se  Se131  1  0.74353974  0.74579831  0.05678428  1
  Se  Se132  1  0.75330591  0.75064580  0.56332178  1
  Se  Se133  1  0.24758622  0.24769261  0.04579449  1
  Se  Se134  1  0.25860684  0.25978834  0.56473555  1
  Se  Se135  1  0.24778993  0.58803456  0.04485613  1
  Se  Se136  1  0.25358613  0.59804343  0.57265744  1
  Se  Se137  1  0.24707237  0.91847536  0.04153255  1
  Se  Se138  1  0.24554045  0.91153071  0.56131048  1
  Se  Se139  1  0.58938112  0.24823720  0.05302330  1
  Se  Se140  1  0.58626291  0.25348750  0.55905219  1
  Se  Se141  1  0.58679942  0.58831472  0.05778093  1
  Se  Se142  1  0.58424857  0.58548892  0.56218212  1
  Se  Se143  1  0.57858127  0.90944743  0.04831970  1
  Se  Se144  1  0.58120244  0.91462467  0.55114195  1
  Se  Se145  1  0.92148685  0.25737663  0.05160536  1
  Se  Se146  1  0.91857392  0.24323283  0.56710076  1
  Se  Se147  1  0.91529175  0.59280686  0.04649169  1
  Se  Se148  1  0.91802181  0.59697609  0.56416598  1
  Se  Se149  1  0.91684848  0.92361477  0.06223888  1
  Se  Se150  1  0.91054111  0.90402050  0.54915592  1
  Se  Se151  1  0.07796925  0.24338046  0.45012130  1
  Se  Se152  1  0.08319454  0.25398119  0.94925550  1
  Se  Se153  1  0.07552171  0.58393014  0.43904544  1
  Se  Se154  1  0.08839031  0.58760099  0.93910275  1
  Se  Se155  1  0.09162700  0.90431910  0.44647865  1
  Se  Se156  1  0.07482016  0.91385405  0.94619519  1
  Se  Se157  1  0.40533150  0.25879992  0.44124327  1
  Se  Se158  1  0.41233223  0.25546416  0.93226374  1
  Se  Se159  1  0.41689133  0.58465404  0.45685679  1
  Se  Se160  1  0.41125008  0.59320158  0.93216306  1
  Se  Se161  1  0.42341198  0.91386413  0.45360869  1
  Se  Se162  1  0.41543062  0.91296128  0.94739224  1
  Se  Se163  1  0.73975430  0.26203710  0.44601077  1
  Se  Se164  1  0.75329312  0.24105007  0.95223300  1
  Se  Se165  1  0.74256462  0.59960389  0.44225097  1
  Se  Se166  1  0.75033836  0.58677191  0.94166828  1
  Se  Se167  1  0.75666356  0.91274910  0.44440971  1
  Se  Se168  1  0.74106156  0.91734439  0.93519868  1
  Se  Se169  1  0.25996953  0.06865810  0.44711050  1
  Se  Se170  1  0.24656893  0.08481457  0.95224638  1
  Se  Se171  1  0.25093997  0.41092821  0.43882887  1
  Se  Se172  1  0.24988396  0.42228426  0.94864934  1
  Se  Se173  1  0.24813194  0.74786613  0.45293368  1
  Se  Se174  1  0.24411490  0.75457412  0.93655216  1
  Se  Se175  1  0.59757670  0.08013822  0.43905332  1
  Se  Se176  1  0.58624111  0.07374788  0.93262991  1
  Se  Se177  1  0.57860879  0.42824572  0.44803772  1
  Se  Se178  1  0.59704396  0.40726034  0.94494178  1
  Se  Se179  1  0.58448180  0.75388265  0.44891797  1
  Se  Se180  1  0.58058447  0.75176320  0.94089133  1
  Se  Se181  1  0.92892076  0.06724569  0.43946327  1
  Se  Se182  1  0.90706416  0.08576106  0.95393578  1
  Se  Se183  1  0.92265537  0.40654973  0.45287760  1
  Se  Se184  1  0.91500370  0.42395080  0.94427325  1
  Se  Se185  1  0.91848306  0.74687967  0.44314922  1
  Se  Se186  1  0.91841468  0.74541960  0.93126197  1
  Se  Se187  1  0.24831530  0.24654388  0.29681905  1
  Se  Se188  1  0.24787124  0.25117188  0.81489641  1
  Se  Se189  1  0.23975815  0.57601170  0.30165607  1
  Se  Se190  1  0.25343521  0.58657040  0.79880446  1
  Se  Se191  1  0.25080048  0.90450793  0.30958947  1
  Se  Se192  1  0.24524235  0.92161364  0.80226514  1
  Se  Se193  1  0.58909726  0.25578508  0.30083438  1
  Se  Se194  1  0.58903293  0.24551065  0.80367762  1
  Se  Se195  1  0.58276617  0.59038450  0.30908870  1
  Se  Se196  1  0.58828916  0.57933068  0.79743127  1
  Se  Se197  1  0.58835195  0.91846090  0.30488525  1
  Se  Se198  1  0.58284939  0.91913512  0.80185960  1
  Se  Se199  1  0.90733206  0.24403920  0.31276356  1
  Se  Se200  1  0.91554026  0.25179826  0.81117954  1
  Se  Se201  1  0.92028140  0.58351264  0.29724429  1
  Se  Se202  1  0.91954578  0.58222642  0.80453325  1
  Se  Se203  1  0.92245129  0.91255043  0.30327836  1
  Se  Se204  1  0.90284955  0.90788748  0.80759608  1
  Se  Se205  1  0.08603089  0.07470445  0.29809981  1
  Se  Se206  1  0.08298691  0.08419045  0.82501462  1
  Se  Se207  1  0.08520519  0.42131009  0.30595961  1
  Se  Se208  1  0.08394410  0.41645538  0.80420823  1
  Se  Se209  1  0.08452867  0.74569294  0.30195099  1
  Se  Se210  1  0.07929417  0.74896198  0.79400607  1
  Se  Se211  1  0.42821071  0.09274709  0.30832564  1
  Se  Se212  1  0.41047375  0.07775094  0.79982907  1
  Se  Se213  1  0.41869503  0.42402886  0.31401362  1
  Se  Se214  1  0.42789948  0.42796636  0.80742953  1
  Se  Se215  1  0.42289912  0.75643036  0.31101117  1
  Se  Se216  1  0.41676169  0.75525381  0.80393353  1
  Se  Se217  1  0.75818277  0.08662211  0.29805324  1
  Se  Se218  1  0.75073584  0.07950121  0.80214101  1
  Se  Se219  1  0.74931562  0.42198053  0.30372100  1
  Se  Se220  1  0.75155503  0.41027366  0.81012144  1
  Se  Se221  1  0.75029625  0.75213651  0.30340679  1
  Se  Se222  1  0.74667198  0.74834631  0.79111774  1
  Se  Se223  1  0.24414039  0.08043209  0.18417190  1
  Se  Se224  1  0.22251671  0.10719159  0.70635498  1
  Se  Se225  1  0.24072138  0.42517687  0.18083217  1
  Se  Se226  1  0.24890121  0.42409206  0.68865454  1
  Se  Se227  1  0.24705450  0.75915562  0.18350827  1
  Se  Se228  1  0.26423193  0.74055269  0.70290403  1
  Se  Se229  1  0.58997905  0.07779810  0.19399418  1
  Se  Se230  1  0.58471454  0.08181382  0.69891883  1
  Se  Se231  1  0.58906091  0.41695992  0.20016325  1
  Se  Se232  1  0.59539351  0.39858302  0.70162348  1
  Se  Se233  1  0.58623562  0.74852593  0.19492690  1
  Se  Se234  1  0.58241248  0.75404228  0.69604129  1
  Se  Se235  1  0.91997503  0.08703603  0.19976330  1
  Se  Se236  1  0.90719347  0.08974175  0.69123291  1
  Se  Se237  1  0.90396992  0.42277141  0.18047360  1
  Se  Se238  1  0.92689263  0.40544422  0.70083320  1
  Se  Se239  1  0.91733650  0.74734477  0.19510954  1
  Se  Se240  1  0.93516985  0.74273115  0.70267786  1
  Se  Se241  1  0.08669611  0.24895423  0.18673767  1
  Se  Se242  1  0.08067723  0.24853109  0.71486974  1
  Se  Se243  1  0.07672570  0.59178243  0.18799157  1
  Se  Se244  1  0.08076619  0.57924980  0.69948826  1
  Se  Se245  1  0.08270395  0.91723514  0.19369186  1
  Se  Se246  1  0.07683781  0.91377741  0.68872653  1
  Se  Se247  1  0.43140592  0.23958190  0.18143656  1
  Se  Se248  1  0.42795949  0.24126889  0.69066086  1
  Se  Se249  1  0.42653936  0.57246894  0.19179855  1
  Se  Se250  1  0.43017462  0.57978630  0.70523294  1
  Se  Se251  1  0.42397121  0.90747123  0.18767294  1
  Se  Se252  1  0.40982848  0.92357285  0.69794226  1
  Se  Se253  1  0.74938428  0.26117675  0.18919744  1
  Se  Se254  1  0.74872284  0.25144004  0.70046946  1
  Se  Se255  1  0.74740768  0.58985346  0.19577985  1
  Se  Se256  1  0.76728831  0.56561850  0.69640512  1
  Se  Se257  1  0.75040169  0.91360857  0.19515480  1
  Se  Se258  1  0.74003438  0.92407279  0.69755659  1
