# generated using pymatgen
data_In86Cu29Se144
_symmetry_space_group_name_H-M   'P 1'
_cell_length_a   17.56898003
_cell_length_b   17.57236687
_cell_length_c   23.42622055
_cell_angle_alpha   89.99954837
_cell_angle_beta   90.01087364
_cell_angle_gamma   89.99697116
_symmetry_Int_Tables_number   1
_chemical_formula_structural   In86Cu29Se144
_chemical_formula_sum   'In86 Cu29 Se144'
_cell_volume   7232.34325761
_cell_formula_units_Z   1
loop_
 _symmetry_equiv_pos_site_id
 _symmetry_equiv_pos_as_xyz
  1  'x, y, z'
loop_
 _atom_site_type_symbol
 _atom_site_label
 _atom_site_symmetry_multiplicity
 _atom_site_fract_x
 _atom_site_fract_y
 _atom_site_fract_z
 _atom_site_occupancy
  In  In0  1  -0.00965702  0.16917262  0.13499625  1
  In  In1  1  0.00155464  0.15401197  0.62760336  1
  In  In2  1  0.00883057  0.50129499  0.11961136  1
  In  In3  1  0.01345695  0.48542050  0.62858477  1
  In  In4  1  -0.00547219  0.83934330  0.12185119  1
  In  In5  1  0.01436256  0.82764771  0.62775816  1
  In  In6  1  0.33841116  0.17419120  0.13154654  1
  In  In7  1  0.32994182  0.16423587  0.62373506  1
  In  In8  1  0.32013179  0.51600575  0.13504613  1
  In  In9  1  0.31041916  0.50771134  0.63721244  1
  In  In10  1  0.32225655  0.82214586  0.11314940  1
  In  In11  1  0.33332079  0.83295021  0.62563188  1
  In  In12  1  0.68228298  0.13997498  0.14293710  1
  In  In13  1  0.65635192  0.16018251  0.62506878  1
  In  In14  1  0.68182076  0.49598593  0.12427064  1
  In  In15  1  0.66486627  0.51086996  0.63302705  1
  In  In16  1  0.68749841  0.86242545  0.10037296  1
  In  In17  1  0.66792436  0.84670597  0.63133382  1
  In  In18  1  0.16552453  0.00056239  0.38040430  1
  In  In19  1  0.16051242  -0.00289843  0.86466394  1
  In  In20  1  0.16787199  0.33434269  0.37434203  1
  In  In21  1  0.17692137  0.33907309  0.87183907  1
  In  In22  1  0.16888116  0.66741808  0.37244998  1
  In  In23  1  0.16473735  0.66738652  0.88459454  1
  In  In24  1  0.49775812  -0.00235030  0.37760707  1
  In  In25  1  0.49984388  -0.00725334  0.86832906  1
  In  In26  1  0.47700529  0.33411658  0.38198274  1
  In  In27  1  0.48801561  0.34061641  0.87111008  1
  In  In28  1  0.49665336  0.69035240  0.37618063  1
  In  In29  1  0.49609709  0.67834672  0.87197766  1
  In  In30  1  0.83593551  0.01624759  0.35052975  1
  In  In31  1  0.83292913  -0.00041838  0.88464179  1
  In  In32  1  0.85016039  0.31782547  0.36413108  1
  In  In33  1  0.83221494  0.33245873  0.88411858  1
  In  In34  1  0.84113116  0.65640224  0.36686899  1
  In  In35  1  0.84955911  0.66342133  0.89492694  1
  In  In36  1  0.00656583  0.17322770  0.35591606  1
  In  In37  1  -0.00064272  0.14489114  0.87930766  1
  In  In38  1  0.01882965  0.50837085  0.36281582  1
  In  In39  1  0.00752809  0.50536625  0.88606242  1
  In  In40  1  0.00513786  0.84111439  0.36516550  1
  In  In41  1  -0.00600724  0.84806790  0.90047630  1
  In  In42  1  0.31729157  0.18581156  0.39926546  1
  In  In43  1  0.33719516  0.16678765  0.86595340  1
  In  In44  1  0.31418137  0.48713953  0.36944825  1
  In  In45  1  0.31538257  0.49951541  0.85943721  1
  In  In46  1  0.33904617  0.83294014  0.37558784  1
  In  In47  1  0.33122085  0.83293395  0.87120088  1
  In  In48  1  0.67097020  0.15253959  0.37390772  1
  In  In49  1  0.68213021  0.15784577  0.88243305  1
  In  In50  1  0.67592310  0.49964199  0.36958767  1
  In  In51  1  0.67110395  0.50160129  0.87520214  1
  In  In52  1  0.65337504  0.84688787  0.37097660  1
  In  In53  1  0.66693233  0.84638192  0.89508951  1
  In  In54  1  0.15805810  -0.01972276  0.11687339  1
  In  In55  1  0.16729845  0.00018488  0.62519237  1
  In  In56  1  0.15646436  0.34047520  0.13361701  1
  In  In57  1  0.18405677  0.34425311  0.60107040  1
  In  In58  1  0.16188572  0.67063379  0.12023016  1
  In  In59  1  0.17367203  0.67558787  0.61976993  1
  In  In60  1  0.50998522  -0.00204282  0.12261299  1
  In  In61  1  0.50189641  -0.00204057  0.62634437  1
  In  In62  1  0.49380551  0.32825383  0.13118640  1
  In  In63  1  0.49375844  0.31042233  0.61605989  1
  In  In64  1  0.48769888  0.67661206  0.12879645  1
  In  In65  1  0.47586240  0.66090411  0.62523051  1
  In  In66  1  0.83524939  -0.00061912  0.12340876  1
  In  In67  1  0.83370171  -0.00935919  0.64117381  1
  In  In68  1  0.85029001  0.34968402  0.11212077  1
  In  In69  1  0.84924240  0.33070485  0.62922587  1
  In  In70  1  0.87041008  0.68649250  0.09721110  1
  In  In71  1  0.82974184  0.66579899  0.63398173  1
  In  In72  1  0.50043575  0.50203301  -0.00322966  1
  In  In73  1  0.65868237  0.32301669  0.75631413  1
  In  In74  1  0.83556830  0.83901419  0.49049733  1
  In  In75  1  0.33257071  0.00469101  0.25086680  1
  In  In76  1  0.83419941  0.16151839  0.48974424  1
  In  In77  1  0.16094731  0.16233099  0.00734065  1
  In  In78  1  0.50395679  0.16292302  -0.00248814  1
  In  In79  1  0.48643878  0.50354919  0.50141574  1
  In  In80  1  0.66769163  0.67483112  0.76270045  1
  In  In81  1  0.00579868  0.66877588  0.76519477  1
  In  In82  1  0.66856515  0.67413369  0.24306408  1
  In  In83  1  0.00616645  0.33452509  0.75441466  1
  In  In84  1  0.83853100  0.49886545  0.50454865  1
  In  In85  1  0.66433166  0.33255683  0.24762443  1
  Cu  Cu86  1  0.49887472  0.84128292  0.24833737  1
  Cu  Cu87  1  0.49852214  0.15599632  0.74616615  1
  Cu  Cu88  1  0.85112145  0.50309806  0.23890039  1
  Cu  Cu89  1  0.83172707  0.15973064  0.75562452  1
  Cu  Cu90  1  0.48970495  0.49146301  0.74495268  1
  Cu  Cu91  1  0.33148341  0.66671500  0.00014034  1
  Cu  Cu92  1  0.16890138  0.16167148  0.25511625  1
  Cu  Cu93  1  0.66363088  0.00079150  0.50161367  1
  Cu  Cu94  1  0.83096717  0.83111400  0.23572219  1
  Cu  Cu95  1  0.50222380  0.83311228  0.75077808  1
  Cu  Cu96  1  0.00569897  0.33147141  0.48928598  1
  Cu  Cu97  1  0.49167154  0.50829306  0.25441580  1
  Cu  Cu98  1  0.66700029  0.32376922  0.00732243  1
  Cu  Cu99  1  0.00501831  -0.00479536  0.49887995  1
  Cu  Cu100  1  0.32848439  0.67062956  0.49919571  1
  Cu  Cu101  1  0.66408510  0.65821988  -0.00376643  1
  Cu  Cu102  1  0.16599591  0.84028565  0.75001296  1
  Cu  Cu103  1  0.33792881  -0.00428204  0.50682738  1
  Cu  Cu104  1  0.16340306  0.82417377  0.24316708  1
  Cu  Cu105  1  0.49004957  0.17202590  0.25774960  1
  Cu  Cu106  1  0.66261363  0.33902311  0.50233679  1
  Cu  Cu107  1  0.16717823  0.17007000  0.74466818  1
  Cu  Cu108  1  0.32723461  0.34680109  0.00145496  1
  Cu  Cu109  1  0.16647998  0.49689747  0.24738845  1
  Cu  Cu110  1  0.01027992  0.66255102  0.49903031  1
  Cu  Cu111  1  0.00779234  0.33125323  0.00223792  1
  Cu  Cu112  1  0.66306796  0.68108055  0.49873890  1
  Cu  Cu113  1  0.33493384  -0.00167652  -0.00787216  1
  Cu  Cu114  1  0.84010371  0.83625698  0.76731506  1
  Se  Se115  1  0.06641396  0.07405800  0.06146018  1
  Se  Se116  1  0.08283722  0.08168753  0.55335096  1
  Se  Se117  1  0.09352961  0.41540201  0.05131399  1
  Se  Se118  1  0.08125327  0.42093000  0.54386053  1
  Se  Se119  1  0.08562932  0.76243015  0.05552394  1
  Se  Se120  1  0.08681993  0.75424425  0.54969792  1
  Se  Se121  1  0.40616038  0.07868713  0.05833228  1
  Se  Se122  1  0.42043522  0.08181869  0.55802810  1
  Se  Se123  1  0.41189746  0.41902024  0.06368719  1
  Se  Se124  1  0.40798367  0.41811514  0.56987832  1
  Se  Se125  1  0.42031128  0.75091459  0.04739327  1
  Se  Se126  1  0.41498204  0.75122453  0.55180031  1
  Se  Se127  1  0.73933372  0.07344139  0.05733248  1
  Se  Se128  1  0.75317973  0.07321404  0.56111877  1
  Se  Se129  1  0.75140007  0.41854373  0.04648939  1
  Se  Se130  1  0.74392031  0.41052542  0.56658720  1
  Se  Se131  1  0.73912585  0.73499263  0.06066905  1
  Se  Se132  1  0.75049618  0.75010531  0.55966069  1
  Se  Se133  1  0.25560396  0.25775175  0.06047779  1
  Se  Se134  1  0.23774104  0.22833448  0.55096483  1
  Se  Se135  1  0.24896205  0.58365526  0.05360318  1
  Se  Se136  1  0.25007238  0.58353345  0.55292165  1
  Se  Se137  1  0.25061103  0.91626708  0.04566841  1
  Se  Se138  1  0.24901175  0.91478109  0.55694303  1
  Se  Se139  1  0.58680920  0.24788854  0.06721505  1
  Se  Se140  1  0.58789264  0.24196767  0.54804515  1
  Se  Se141  1  0.58610958  0.58601958  0.06458709  1
  Se  Se142  1  0.58760244  0.59311067  0.55757483  1
  Se  Se143  1  0.56866767  0.91112907  0.04685186  1
  Se  Se144  1  0.58572768  0.91415471  0.55556802  1
  Se  Se145  1  0.92399374  0.24721009  0.05396995  1
  Se  Se146  1  0.92542689  0.25300700  0.55155207  1
  Se  Se147  1  0.90220215  0.55675676  0.05456714  1
  Se  Se148  1  0.92711627  0.59168763  0.56487464  1
  Se  Se149  1  0.89286360  0.89946494  0.05136399  1
  Se  Se150  1  0.92069624  0.92102218  0.56103210  1
  Se  Se151  1  0.08117067  0.24187350  0.43616981  1
  Se  Se152  1  0.08325332  0.25250587  0.93650394  1
  Se  Se153  1  0.09026860  0.57936512  0.44338185  1
  Se  Se154  1  0.07416247  0.59783282  0.95469203  1
  Se  Se155  1  0.08366336  0.90839712  0.44470887  1
  Se  Se156  1  0.08979070  0.93895725  0.94988444  1
  Se  Se157  1  0.42124351  0.25070091  0.46085674  1
  Se  Se158  1  0.40715696  0.25972961  0.94575274  1
  Se  Se159  1  0.40691877  0.59280461  0.43345173  1
  Se  Se160  1  0.40830432  0.58636456  0.93554567  1
  Se  Se161  1  0.41840559  0.91425938  0.44750457  1
  Se  Se162  1  0.41787175  0.91487681  0.93999533  1
  Se  Se163  1  0.74488926  0.26378571  0.43792206  1
  Se  Se164  1  0.75369152  0.24553342  0.95240329  1
  Se  Se165  1  0.74455690  0.59399912  0.44468944  1
  Se  Se166  1  0.75166654  0.57529202  0.94832718  1
  Se  Se167  1  0.74860487  0.93508492  0.43351782  1
  Se  Se168  1  0.77936181  0.89647663  0.95710633  1
  Se  Se169  1  0.25166866  0.07384521  0.45155189  1
  Se  Se170  1  0.25524379  0.08604792  0.93924415  1
  Se  Se171  1  0.25319222  0.40650933  0.44773526  1
  Se  Se172  1  0.24860018  0.42700124  0.94379135  1
  Se  Se173  1  0.24928497  0.75326937  0.44117784  1
  Se  Se174  1  0.25227701  0.75506058  0.94607275  1
  Se  Se175  1  0.58278773  0.08335164  0.44536146  1
  Se  Se176  1  0.59202729  0.06793207  0.94289740  1
  Se  Se177  1  0.58752566  0.42106653  0.44078910  1
  Se  Se178  1  0.59062368  0.40203343  0.94215716  1
  Se  Se179  1  0.58193227  0.76548146  0.44712550  1
  Se  Se180  1  0.58223070  0.74484444  0.94601584  1
  Se  Se181  1  0.92707422  0.07271299  0.43284002  1
  Se  Se182  1  0.90056308  0.09837574  0.95073151  1
  Se  Se183  1  0.92166044  0.41521386  0.43338576  1
  Se  Se184  1  0.92362730  0.41291619  0.94662382  1
  Se  Se185  1  0.92475096  0.73874553  0.43915896  1
  Se  Se186  1  0.94247199  0.73473172  0.96051881  1
  Se  Se187  1  0.25175286  0.24334928  0.30971955  1
  Se  Se188  1  0.24926895  0.25052756  0.80209543  1
  Se  Se189  1  0.24825513  0.58272020  0.30096188  1
  Se  Se190  1  0.23985273  0.60007012  0.80419951  1
  Se  Se191  1  0.24238642  0.90785862  0.30456292  1
  Se  Se192  1  0.25464872  0.92186154  0.80103166  1
  Se  Se193  1  0.57593017  0.25068384  0.31599137  1
  Se  Se194  1  0.57059251  0.23188176  0.81779935  1
  Se  Se195  1  0.57916837  0.58585260  0.31132442  1
  Se  Se196  1  0.57133638  0.57040588  0.80671904  1
  Se  Se197  1  0.57920735  0.92975744  0.29832362  1
  Se  Se198  1  0.59144427  0.90484334  0.80893810  1
  Se  Se199  1  0.90767379  0.23310083  0.28758637  1
  Se  Se200  1  0.91173755  0.24449498  0.81128837  1
  Se  Se201  1  0.92908672  0.58762949  0.29597693  1
  Se  Se202  1  0.90891830  0.57446472  0.81414407  1
  Se  Se203  1  0.91112152  0.91121253  0.29724232  1
  Se  Se204  1  0.92461040  0.91984750  0.81784650  1
  Se  Se205  1  0.08700996  0.07075797  0.30244808  1
  Se  Se206  1  0.08259369  0.08861443  0.79845858  1
  Se  Se207  1  0.08423669  0.40748362  0.29863992  1
  Se  Se208  1  0.09243345  0.43323279  0.80767842  1
  Se  Se209  1  0.08153933  0.74552246  0.30244250  1
  Se  Se210  1  0.08557858  0.77173284  0.81850748  1
  Se  Se211  1  0.40837848  0.09506207  0.31941435  1
  Se  Se212  1  0.41449539  0.07517538  0.80152425  1
  Se  Se213  1  0.41391021  0.41758334  0.30421937  1
  Se  Se214  1  0.40449526  0.41044590  0.79818843  1
  Se  Se215  1  0.41557941  0.75592093  0.29824304  1
  Se  Se216  1  0.41360745  0.75027869  0.79873744  1
  Se  Se217  1  0.74227831  0.09413320  0.28945982  1
  Se  Se218  1  0.74971215  0.07412357  0.80743850  1
  Se  Se219  1  0.76749771  0.42428502  0.30010366  1
  Se  Se220  1  0.75522870  0.41530014  0.80671703  1
  Se  Se221  1  0.75659970  0.76142765  0.31106711  1
  Se  Se222  1  0.76263132  0.75300176  0.82625766  1
  Se  Se223  1  0.23837969  0.08533539  0.18448383  1
  Se  Se224  1  0.25019584  0.08162046  0.69540747  1
  Se  Se225  1  0.25457640  0.41247786  0.19749108  1
  Se  Se226  1  0.23446826  0.40679546  0.69290517  1
  Se  Se227  1  0.25214341  0.74577401  0.19185818  1
  Se  Se228  1  0.24628367  0.75478568  0.69612911  1
  Se  Se229  1  0.56627108  0.08921652  0.19947943  1
  Se  Se230  1  0.58957778  0.07465450  0.69906506  1
  Se  Se231  1  0.57433490  0.43198029  0.19195983  1
  Se  Se232  1  0.57586013  0.41385859  0.68811475  1
  Se  Se233  1  0.58193679  0.76714750  0.18500648  1
  Se  Se234  1  0.57784224  0.74624660  0.68890399  1
  Se  Se235  1  0.91978798  0.07012442  0.19663577  1
  Se  Se236  1  0.91865795  0.08073166  0.70112601  1
  Se  Se237  1  0.93153671  0.41235661  0.19162226  1
  Se  Se238  1  0.90849244  0.42942189  0.69927055  1
  Se  Se239  1  0.91947620  0.74556520  0.19136300  1
  Se  Se240  1  0.91173999  0.75761161  0.69957419  1
  Se  Se241  1  0.08664118  0.24437354  0.19878726  1
  Se  Se242  1  0.08771579  0.25191823  0.68445337  1
  Se  Se243  1  0.08754957  0.58237271  0.19231923  1
  Se  Se244  1  0.08504826  0.58795977  0.69007371  1
  Se  Se245  1  0.08022068  0.91403679  0.19602534  1
  Se  Se246  1  0.07980305  0.92124223  0.69661526  1
  Se  Se247  1  0.40893340  0.25846469  0.20555051  1
  Se  Se248  1  0.41752272  0.24350697  0.69532770  1
  Se  Se249  1  0.41226847  0.59358762  0.20065705  1
  Se  Se250  1  0.40559974  0.58354884  0.70196102  1
  Se  Se251  1  0.41208634  0.91272277  0.18502009  1
  Se  Se252  1  0.41956230  0.91374934  0.69439528  1
  Se  Se253  1  0.75639529  0.25934199  0.18075530  1
  Se  Se254  1  0.75720268  0.24150971  0.69178542  1
  Se  Se255  1  0.76413238  0.58668719  0.18765035  1
  Se  Se256  1  0.75827816  0.57566943  0.70688294  1
  Se  Se257  1  0.74302561  0.91873720  0.19254197  1
  Se  Se258  1  0.75028894  0.90981240  0.70982399  1
