# generated using pymatgen
data_In86Cu29Se144
_symmetry_space_group_name_H-M   'P 1'
_cell_length_a   17.57714352
_cell_length_b   17.57760145
_cell_length_c   23.43854042
_cell_angle_alpha   89.99645650
_cell_angle_beta   90.02852742
_cell_angle_gamma   89.96346500
_symmetry_Int_Tables_number   1
_chemical_formula_structural   In86Cu29Se144
_chemical_formula_sum   'In86 Cu29 Se144'
_cell_volume   7241.66337137
_cell_formula_units_Z   1
loop_
 _symmetry_equiv_pos_site_id
 _symmetry_equiv_pos_as_xyz
  1  'x, y, z'
loop_
 _atom_site_type_symbol
 _atom_site_label
 _atom_site_symmetry_multiplicity
 _atom_site_fract_x
 _atom_site_fract_y
 _atom_site_fract_z
 _atom_site_occupancy
  In  In0  1  0.00230328  0.16386575  0.12425566  1
  In  In1  1  0.00017516  0.15638747  0.62103282  1
  In  In2  1  0.00829584  0.49039392  0.13351516  1
  In  In3  1  0.00237575  0.51778154  0.62359283  1
  In  In4  1  -0.00274142  0.83537970  0.12729397  1
  In  In5  1  -0.01581141  0.82512607  0.61258138  1
  In  In6  1  0.32358037  0.15735038  0.11804395  1
  In  In7  1  0.33306592  0.17867089  0.62455114  1
  In  In8  1  0.33805460  0.51036263  0.12273336  1
  In  In9  1  0.32684057  0.49635316  0.62924212  1
  In  In10  1  0.31949499  0.84662403  0.13291169  1
  In  In11  1  0.34053235  0.81864345  0.61795953  1
  In  In12  1  0.66756708  0.16855791  0.12386375  1
  In  In13  1  0.67092776  0.17538754  0.63139461  1
  In  In14  1  0.64768895  0.49363730  0.12281526  1
  In  In15  1  0.67370542  0.48949673  0.63197126  1
  In  In16  1  0.68800674  0.83370838  0.11985397  1
  In  In17  1  0.65783916  0.82774431  0.61441658  1
  In  In18  1  0.17416963  0.00909366  0.36465179  1
  In  In19  1  0.15832677  -0.00142510  0.89380079  1
  In  In20  1  0.14482687  0.33444937  0.37622700  1
  In  In21  1  0.18220586  0.32480579  0.88427050  1
  In  In22  1  0.16808926  0.66950108  0.36462710  1
  In  In23  1  0.16187677  0.67009338  0.88461050  1
  In  In24  1  0.49370775  -0.00855034  0.36236256  1
  In  In25  1  0.51206954  0.00830494  0.88059322  1
  In  In26  1  0.50129753  0.32074872  0.37172072  1
  In  In27  1  0.50265608  0.33470410  0.87301304  1
  In  In28  1  0.50217850  0.67651963  0.37308271  1
  In  In29  1  0.49850842  0.64307553  0.87219680  1
  In  In30  1  0.82575011  -0.00810391  0.36568977  1
  In  In31  1  0.84319090  -0.00509689  0.89234852  1
  In  In32  1  0.84284052  0.34428329  0.36714916  1
  In  In33  1  0.82348723  0.33110917  0.87873056  1
  In  In34  1  0.84882710  0.66159212  0.38832146  1
  In  In35  1  0.83175322  0.66828164  0.86746726  1
  In  In36  1  0.01062949  0.17719120  0.36530468  1
  In  In37  1  0.00239268  0.15928124  0.89566041  1
  In  In38  1  -0.00934883  0.49618347  0.36869772  1
  In  In39  1  -0.00362078  0.51749241  0.87662744  1
  In  In40  1  -0.01162564  0.82355145  0.36616333  1
  In  In41  1  0.00390375  0.82322625  0.88528180  1
  In  In42  1  0.33177785  0.15537044  0.37032552  1
  In  In43  1  0.33452301  0.17416851  0.87953515  1
  In  In44  1  0.33024118  0.50412136  0.36857090  1
  In  In45  1  0.34771810  0.48835546  0.88875532  1
  In  In46  1  0.33645517  0.83467322  0.36642384  1
  In  In47  1  0.32304324  0.82270652  0.87865352  1
  In  In48  1  0.67251075  0.16796361  0.36283479  1
  In  In49  1  0.65754293  0.18060589  0.89108078  1
  In  In50  1  0.68370030  0.51049468  0.37217798  1
  In  In51  1  0.64569180  0.48150760  0.85454832  1
  In  In52  1  0.66289161  0.83388254  0.37590232  1
  In  In53  1  0.67708235  0.83295334  0.87211513  1
  In  In54  1  0.16193618  0.00454349  0.12396736  1
  In  In55  1  0.15105034  -0.00056574  0.62215675  1
  In  In56  1  0.15887066  0.32264787  0.11792328  1
  In  In57  1  0.17749762  0.34112140  0.62832214  1
  In  In58  1  0.16298242  0.66873870  0.12835422  1
  In  In59  1  0.16849502  0.65488416  0.62733035  1
  In  In60  1  0.49033929  0.00821027  0.12908610  1
  In  In61  1  0.51068214  -0.00608192  0.62285972  1
  In  In62  1  0.51123681  0.34597227  0.12165593  1
  In  In63  1  0.49623513  0.33947591  0.64443995  1
  In  In64  1  0.49524484  0.64864964  0.12614982  1
  In  In65  1  0.49520129  0.67767258  0.62204377  1
  In  In66  1  0.83650900  -0.00269415  0.12691741  1
  In  In67  1  0.84211312  -0.00304150  0.61951772  1
  In  In68  1  0.84294464  0.32450259  0.13222768  1
  In  In69  1  0.82023712  0.32828489  0.62736362  1
  In  In70  1  0.83559812  0.68230870  0.12304591  1
  In  In71  1  0.83550963  0.66316088  0.62145201  1
  In  In72  1  0.50285581  0.50294461  0.49890768  1
  In  In73  1  0.83478672  0.16851101  0.50034193  1
  In  In74  1  0.00132632  0.33743006  0.75525461  1
  In  In75  1  0.16218397  0.50261596  0.49965322  1
  In  In76  1  -0.00116097  -0.00197684  0.76254536  1
  In  In77  1  0.67080842  0.00865750  0.75169651  1
  In  In78  1  0.16710288  0.83594086  0.49275899  1
  In  In79  1  0.33544428  0.33407649  0.24406962  1
  In  In80  1  0.33668140  0.65875827  0.74784318  1
  In  In81  1  0.82873674  0.50411014  -0.00541597  1
  In  In82  1  0.33049653  0.00308711  0.76183544  1
  In  In83  1  0.49478061  0.83361644  0.00106900  1
  In  In84  1  0.50408228  0.16302085  0.50389633  1
  In  In85  1  0.66816233  0.66893120  0.24743678  1
  Cu  Cu86  1  0.16603371  0.83733025  0.24660140  1
  Cu  Cu87  1  0.67091894  0.34050408  0.50168423  1
  Cu  Cu88  1  0.83055101  0.82478985  0.74445890  1
  Cu  Cu89  1  0.66744344  0.33307173  -0.00037249  1
  Cu  Cu90  1  0.82718616  0.16891447  0.75929339  1
  Cu  Cu91  1  0.50355341  0.83275286  0.24690620  1
  Cu  Cu92  1  0.32499656  0.33113418  0.50464830  1
  Cu  Cu93  1  0.33338738  -0.00412511  0.48966533  1
  Cu  Cu94  1  -0.00029317  0.66726982  0.00405533  1
  Cu  Cu95  1  0.00300612  0.33391112  0.00765410  1
  Cu  Cu96  1  0.15272199  0.82600510  0.75479146  1
  Cu  Cu97  1  0.33085625  0.00441195  0.00543173  1
  Cu  Cu98  1  0.82995455  0.50230278  0.24925089  1
  Cu  Cu99  1  0.16517586  0.16781430  0.24321816  1
  Cu  Cu100  1  0.83450447  0.50548485  0.74886267  1
  Cu  Cu101  1  0.33839074  0.33832283  0.00339179  1
  Cu  Cu102  1  0.66483085  -0.00490567  0.49299572  1
  Cu  Cu103  1  0.16380782  0.50228423  0.24954258  1
  Cu  Cu104  1  0.50016956  0.83033159  0.74313553  1
  Cu  Cu105  1  0.50389482  0.16651685  0.24524008  1
  Cu  Cu106  1  0.67193608  0.00292550  0.00431721  1
  Cu  Cu107  1  0.66183617  0.66188751  -0.00385454  1
  Cu  Cu108  1  0.17332883  0.17278955  0.75371236  1
  Cu  Cu109  1  0.67619548  0.66642466  0.49949199  1
  Cu  Cu110  1  0.83291544  0.16299716  0.24513456  1
  Cu  Cu111  1  0.17140204  0.49958500  0.75478997  1
  Cu  Cu112  1  0.00086535  0.00464822  0.49191805  1
  Cu  Cu113  1  0.83724646  0.83442206  0.24863775  1
  Cu  Cu114  1  0.32291045  0.67095721  0.00455366  1
  Se  Se115  1  0.09647054  0.09867916  0.05432237  1
  Se  Se116  1  0.08417129  0.08451464  0.54722991  1
  Se  Se117  1  0.08603507  0.42228363  0.05447470  1
  Se  Se118  1  0.07742967  0.41180525  0.56270225  1
  Se  Se119  1  0.08137692  0.75154835  0.05803992  1
  Se  Se120  1  0.08615400  0.74144045  0.55631577  1
  Se  Se121  1  0.42090159  0.08703383  0.05108102  1
  Se  Se122  1  0.40762315  0.07227876  0.55938501  1
  Se  Se123  1  0.41984354  0.42346553  0.05592958  1
  Se  Se124  1  0.41292767  0.40843899  0.55956570  1
  Se  Se125  1  0.40742286  0.74813008  0.06553656  1
  Se  Se126  1  0.42196835  0.74962584  0.54441655  1
  Se  Se127  1  0.75456232  0.08471840  0.05858245  1
  Se  Se128  1  0.73761908  0.07682768  0.55828930  1
  Se  Se129  1  0.74885783  0.41248743  0.06080378  1
  Se  Se130  1  0.75590376  0.42009902  0.55479533  1
  Se  Se131  1  0.74957203  0.74388289  0.04491922  1
  Se  Se132  1  0.75564006  0.75383454  0.55326821  1
  Se  Se133  1  0.25260214  0.25136362  0.05082628  1
  Se  Se134  1  0.24080083  0.24768270  0.55545399  1
  Se  Se135  1  0.24342405  0.58385072  0.05750246  1
  Se  Se136  1  0.26397670  0.59030550  0.55448653  1
  Se  Se137  1  0.24607346  0.91900616  0.05425204  1
  Se  Se138  1  0.25597545  0.92303537  0.55985322  1
  Se  Se139  1  0.58320288  0.25193365  0.05469157  1
  Se  Se140  1  0.58715751  0.26323729  0.56140355  1
  Se  Se141  1  0.57841206  0.58073768  0.04938283  1
  Se  Se142  1  0.59409045  0.58778741  0.56125238  1
  Se  Se143  1  0.58729770  0.92033739  0.06129091  1
  Se  Se144  1  0.57775306  0.91431811  0.54568877  1
  Se  Se145  1  0.91682205  0.24928953  0.05542394  1
  Se  Se146  1  0.92327665  0.25818405  0.56142633  1
  Se  Se147  1  0.92008292  0.58286956  0.06203398  1
  Se  Se148  1  0.92256096  0.58925335  0.55032636  1
  Se  Se149  1  0.89243034  0.89203674  0.06155017  1
  Se  Se150  1  0.91701491  0.92059947  0.54416812  1
  Se  Se151  1  0.08109937  0.24482904  0.44736375  1
  Se  Se152  1  0.08769171  0.25343152  0.95146864  1
  Se  Se153  1  0.07902514  0.58995351  0.43476609  1
  Se  Se154  1  0.08255676  0.58145275  0.95225694  1
  Se  Se155  1  0.07962593  0.92423111  0.43076589  1
  Se  Se156  1  0.06286931  0.92321709  0.95221777  1
  Se  Se157  1  0.40739626  0.25187505  0.44489162  1
  Se  Se158  1  0.42012260  0.25582457  0.94645509  1
  Se  Se159  1  0.41048271  0.58951628  0.43989175  1
  Se  Se160  1  0.41256613  0.59180583  0.95286938  1
  Se  Se161  1  0.41883371  0.91447318  0.43889649  1
  Se  Se162  1  0.40614547  0.92562161  0.93830889  1
  Se  Se163  1  0.74370077  0.25603152  0.43935634  1
  Se  Se164  1  0.75838987  0.24788593  0.95561192  1
  Se  Se165  1  0.75849367  0.57801641  0.45146953  1
  Se  Se166  1  0.73575227  0.58226231  0.93052453  1
  Se  Se167  1  0.75258112  0.91429143  0.44289916  1
  Se  Se168  1  0.74528576  0.91277536  0.94910181  1
  Se  Se169  1  0.24861324  0.08385494  0.44428268  1
  Se  Se170  1  0.25223656  0.08747554  0.94647740  1
  Se  Se171  1  0.25375249  0.41037480  0.43872782  1
  Se  Se172  1  0.24834898  0.42059743  0.95315486  1
  Se  Se173  1  0.25793911  0.74344230  0.43803483  1
  Se  Se174  1  0.24014391  0.75744681  0.95450195  1
  Se  Se175  1  0.58763456  0.07986507  0.43448153  1
  Se  Se176  1  0.58283999  0.08614272  0.95675971  1
  Se  Se177  1  0.58957014  0.41198638  0.43666979  1
  Se  Se178  1  0.58706292  0.41807973  0.94403766  1
  Se  Se179  1  0.58854360  0.74548027  0.44630547  1
  Se  Se180  1  0.58228475  0.74619586  0.93667336  1
  Se  Se181  1  0.91671992  0.08219374  0.43259283  1
  Se  Se182  1  0.91837847  0.07932819  0.96092691  1
  Se  Se183  1  0.92375686  0.41057991  0.44337193  1
  Se  Se184  1  0.92566119  0.41047810  0.94079832  1
  Se  Se185  1  0.92047425  0.75948639  0.45027375  1
  Se  Se186  1  0.91089688  0.73917903  0.94541692  1
  Se  Se187  1  0.24313802  0.24897494  0.30761931  1
  Se  Se188  1  0.25771636  0.25490142  0.80449319  1
  Se  Se189  1  0.25191854  0.58475240  0.29775302  1
  Se  Se190  1  0.24984571  0.58002906  0.81715817  1
  Se  Se191  1  0.25322407  0.91871086  0.29954242  1
  Se  Se192  1  0.23171651  0.90916576  0.81236298  1
  Se  Se193  1  0.58524886  0.25150166  0.29803268  1
  Se  Se194  1  0.59267720  0.25015792  0.80965629  1
  Se  Se195  1  0.57935071  0.57834458  0.30785684  1
  Se  Se196  1  0.59337312  0.59655515  0.79785229  1
  Se  Se197  1  0.58930993  0.91401563  0.29998302  1
  Se  Se198  1  0.57600552  0.91195234  0.80541413  1
  Se  Se199  1  0.91289465  0.24784408  0.30105584  1
  Se  Se200  1  0.91919763  0.23990046  0.81625252  1
  Se  Se201  1  0.91069508  0.58749956  0.30375926  1
  Se  Se202  1  0.91993187  0.58863737  0.79919525  1
  Se  Se203  1  0.92135053  0.92096550  0.29896408  1
  Se  Se204  1  0.90428279  0.90315949  0.81148989  1
  Se  Se205  1  0.08224495  0.08396757  0.29759322  1
  Se  Se206  1  0.09295476  0.09318044  0.81417303  1
  Se  Se207  1  0.07917935  0.41726146  0.29992444  1
  Se  Se208  1  0.09159732  0.42231648  0.81794159  1
  Se  Se209  1  0.08296400  0.75250124  0.29911322  1
  Se  Se210  1  0.07616652  0.74120435  0.80978820  1
  Se  Se211  1  0.41701617  0.08531705  0.29788587  1
  Se  Se212  1  0.42949312  0.09243877  0.81036640  1
  Se  Se213  1  0.42523029  0.42018712  0.30761009  1
  Se  Se214  1  0.42224647  0.42636921  0.80840389  1
  Se  Se215  1  0.41962073  0.74882065  0.29877603  1
  Se  Se216  1  0.42198016  0.75583488  0.80945759  1
  Se  Se217  1  0.74763610  0.07813890  0.29623092  1
  Se  Se218  1  0.75661082  0.08543314  0.82285922  1
  Se  Se219  1  0.74730846  0.41693399  0.30115956  1
  Se  Se220  1  0.75923100  0.41585458  0.80271192  1
  Se  Se221  1  0.75970877  0.75089748  0.31118891  1
  Se  Se222  1  0.74342512  0.74649502  0.79786649  1
  Se  Se223  1  0.25117647  0.08153851  0.19567285  1
  Se  Se224  1  0.24035801  0.08285839  0.69177291  1
  Se  Se225  1  0.24044601  0.42056142  0.18647061  1
  Se  Se226  1  0.25509674  0.41471395  0.70430833  1
  Se  Se227  1  0.25005416  0.74880693  0.19762802  1
  Se  Se228  1  0.24308484  0.75751987  0.69387702  1
  Se  Se229  1  0.58686743  0.08138019  0.19304350  1
  Se  Se230  1  0.57252144  0.09338643  0.69311445  1
  Se  Se231  1  0.58422395  0.41583713  0.20193234  1
  Se  Se232  1  0.59135072  0.41466537  0.70363013  1
  Se  Se233  1  0.58051048  0.75603339  0.18164662  1
  Se  Se234  1  0.58578793  0.74962661  0.69180062  1
  Se  Se235  1  0.92014855  0.08161834  0.19447789  1
  Se  Se236  1  0.90697252  0.08890091  0.69798197  1
  Se  Se237  1  0.91610059  0.41628675  0.20001027  1
  Se  Se238  1  0.91384594  0.42136842  0.68928174  1
  Se  Se239  1  0.91988065  0.74657871  0.19937901  1
  Se  Se240  1  0.91965542  0.74749160  0.69226828  1
  Se  Se241  1  0.07922399  0.25358916  0.19538888  1
  Se  Se242  1  0.08567423  0.24286934  0.69203914  1
  Se  Se243  1  0.07861144  0.58747049  0.19869607  1
  Se  Se244  1  0.08762888  0.58177681  0.70139946  1
  Se  Se245  1  0.08183490  0.92035004  0.19400788  1
  Se  Se246  1  0.07703553  0.90673241  0.69209880  1
  Se  Se247  1  0.42184674  0.24317902  0.18290656  1
  Se  Se248  1  0.41524896  0.24280602  0.69925400  1
  Se  Se249  1  0.41598719  0.57876041  0.20110551  1
  Se  Se250  1  0.43047013  0.57231689  0.68915158  1
  Se  Se251  1  0.41666256  0.91819766  0.19753559  1
  Se  Se252  1  0.41455335  0.91341982  0.69138208  1
  Se  Se253  1  0.74781389  0.25042781  0.19648904  1
  Se  Se254  1  0.74706026  0.25346324  0.70587475  1
  Se  Se255  1  0.75371856  0.57779967  0.18277300  1
  Se  Se256  1  0.75152504  0.58623553  0.69320374  1
  Se  Se257  1  0.74966153  0.91610897  0.19835195  1
  Se  Se258  1  0.75409001  0.91430642  0.68786512  1
