# generated using pymatgen
data_In86Cu29Se144
_symmetry_space_group_name_H-M   'P 1'
_cell_length_a   17.58362564
_cell_length_b   17.58060530
_cell_length_c   23.44561514
_cell_angle_alpha   90.01111476
_cell_angle_beta   90.01232049
_cell_angle_gamma   89.98714963
_symmetry_Int_Tables_number   1
_chemical_formula_structural   In86Cu29Se144
_chemical_formula_sum   'In86 Cu29 Se144'
_cell_volume   7247.76085952
_cell_formula_units_Z   1
loop_
 _symmetry_equiv_pos_site_id
 _symmetry_equiv_pos_as_xyz
  1  'x, y, z'
loop_
 _atom_site_type_symbol
 _atom_site_label
 _atom_site_symmetry_multiplicity
 _atom_site_fract_x
 _atom_site_fract_y
 _atom_site_fract_z
 _atom_site_occupancy
  In  In0  1  0.00553699  0.16911967  0.13227983  1
  In  In1  1  -0.00394802  0.17564813  0.62761050  1
  In  In2  1  -0.00257639  0.50769708  0.11717948  1
  In  In3  1  -0.00964730  0.49500959  0.62676054  1
  In  In4  1  -0.02224211  0.81024554  0.09596534  1
  In  In5  1  -0.00033622  0.83368254  0.61955633  1
  In  In6  1  0.33387577  0.14978696  0.12458632  1
  In  In7  1  0.34037997  0.16005709  0.63771024  1
  In  In8  1  0.33245091  0.52115703  0.12128596  1
  In  In9  1  0.32845523  0.50555985  0.63922527  1
  In  In10  1  0.33213133  0.83391082  0.11854024  1
  In  In11  1  0.32371954  0.83955468  0.63876407  1
  In  In12  1  0.65443456  0.17125422  0.12164476  1
  In  In13  1  0.67676335  0.16089459  0.62837156  1
  In  In14  1  0.68382434  0.50268025  0.12015124  1
  In  In15  1  0.66324968  0.50692955  0.63518327  1
  In  In16  1  0.66480932  0.83454327  0.12452440  1
  In  In17  1  0.68802949  0.82312275  0.64393218  1
  In  In18  1  0.16277281  -0.02035982  0.37119392  1
  In  In19  1  0.17235924  -0.03467954  0.87793192  1
  In  In20  1  0.16174802  0.34749484  0.37541173  1
  In  In21  1  0.17064586  0.33841660  0.87299946  1
  In  In22  1  0.17399268  0.67576064  0.36468629  1
  In  In23  1  0.16597915  0.66247579  0.88423858  1
  In  In24  1  0.49933165  -0.00063684  0.36411421  1
  In  In25  1  0.50114536  -0.00139614  0.87552335  1
  In  In26  1  0.51239639  0.33038512  0.37995816  1
  In  In27  1  0.49173872  0.32230956  0.87031303  1
  In  In28  1  0.50708478  0.67821419  0.36158608  1
  In  In29  1  0.51350708  0.67886175  0.87051217  1
  In  In30  1  0.82241810  0.00821875  0.37552646  1
  In  In31  1  0.82469230  -0.00677182  0.87542958  1
  In  In32  1  0.83182630  0.31343526  0.37236926  1
  In  In33  1  0.84373367  0.34054224  0.86717078  1
  In  In34  1  0.83875618  0.67016937  0.36776326  1
  In  In35  1  0.82377576  0.67460221  0.89080171  1
  In  In36  1  -0.02099467  0.16432618  0.36684523  1
  In  In37  1  -0.00697894  0.16758735  0.87226260  1
  In  In38  1  -0.00399353  0.50150645  0.36225901  1
  In  In39  1  0.00637784  0.50152986  0.88830910  1
  In  In40  1  0.00664056  0.82862965  0.37572348  1
  In  In41  1  0.00282466  0.82413007  0.89299356  1
  In  In42  1  0.34823906  0.16048776  0.37565412  1
  In  In43  1  0.33800960  0.17040487  0.87192823  1
  In  In44  1  0.32157658  0.50660690  0.37329163  1
  In  In45  1  0.32595814  0.49535739  0.87480925  1
  In  In46  1  0.32492660  0.82678936  0.36508184  1
  In  In47  1  0.33538025  0.83597500  0.87074416  1
  In  In48  1  0.69382152  0.16439306  0.37480306  1
  In  In49  1  0.65671662  0.15347709  0.86713964  1
  In  In50  1  0.66257640  0.50637750  0.37383135  1
  In  In51  1  0.67784604  0.51042169  0.86804511  1
  In  In52  1  0.67200129  0.83943952  0.36853822  1
  In  In53  1  0.66688290  0.83031737  0.87652011  1
  In  In54  1  0.17039327  -0.00529988  0.12310528  1
  In  In55  1  0.17430295  -0.00675611  0.62759148  1
  In  In56  1  0.14943693  0.33549885  0.12409951  1
  In  In57  1  0.16494055  0.33521494  0.63801415  1
  In  In58  1  0.16408601  0.67404348  0.11462438  1
  In  In59  1  0.16454717  0.68079617  0.63002237  1
  In  In60  1  0.49893389  -0.00222834  0.11977531  1
  In  In61  1  0.50582546  -0.00542732  0.63305275  1
  In  In62  1  0.51193086  0.32754037  0.11766540  1
  In  In63  1  0.50629426  0.32891711  0.63855724  1
  In  In64  1  0.48676402  0.68144173  0.13131255  1
  In  In65  1  0.50042706  0.66809424  0.63426208  1
  In  In66  1  0.84147038  -0.01852448  0.12490191  1
  In  In67  1  0.82031039  -0.01289000  0.61806520  1
  In  In68  1  0.83387627  0.34642093  0.12405860  1
  In  In69  1  0.83855908  0.32926275  0.63096241  1
  In  In70  1  0.83040260  0.66673788  0.12525339  1
  In  In71  1  0.82124734  0.67528228  0.62661730  1
  In  In72  1  0.00133139  -0.00528661  0.24473896  1
  In  In73  1  -0.00106696  -0.00410720  0.75827269  1
  In  In74  1  -0.00000774  0.66666925  0.75964401  1
  In  In75  1  0.83291612  0.50332804  0.50150231  1
  In  In76  1  0.16278794  0.50686239  0.50495172  1
  In  In77  1  0.50275838  0.50742060  0.50242624  1
  In  In78  1  0.16841771  0.16071845  0.00711462  1
  In  In79  1  0.50877771  0.16084879  0.51241774  1
  In  In80  1  0.33263796  0.33714192  0.25438797  1
  In  In81  1  0.50558282  0.83357631  0.49928609  1
  In  In82  1  0.50121767  0.50037033  -0.00317907  1
  In  In83  1  0.82797029  0.15998334  -0.00395735  1
  In  In84  1  0.16161526  0.16076009  0.50365218  1
  In  In85  1  0.67144606  0.33349209  0.25351787  1
  Cu  Cu86  1  0.66564477  0.32821041  -0.00710947  1
  Cu  Cu87  1  0.16608751  0.16465684  0.75315483  1
  Cu  Cu88  1  0.50279664  0.50506791  0.24809083  1
  Cu  Cu89  1  0.66334547  -0.00679990  -0.00219912  1
  Cu  Cu90  1  0.16695503  0.82874365  0.24068947  1
  Cu  Cu91  1  0.83402465  0.82909314  0.24445736  1
  Cu  Cu92  1  -0.00859152  -0.00400590  0.49490037  1
  Cu  Cu93  1  0.50014082  0.16824273  0.75167181  1
  Cu  Cu94  1  0.49696049  0.83727641  0.24250558  1
  Cu  Cu95  1  0.66355030  0.67046534  0.00234036  1
  Cu  Cu96  1  0.83375638  0.16672061  0.75120253  1
  Cu  Cu97  1  0.32986019  0.33460531  -0.00495574  1
  Cu  Cu98  1  0.16392388  0.50942582  0.24274896  1
  Cu  Cu99  1  0.33772827  0.33213701  0.51358921  1
  Cu  Cu100  1  0.83486956  0.49835739  0.75101016  1
  Cu  Cu101  1  0.49780605  0.50060368  0.75834127  1
  Cu  Cu102  1  -0.00881570  0.32483311  0.49892850  1
  Cu  Cu103  1  0.67069307  0.00007393  0.49789673  1
  Cu  Cu104  1  0.16233342  0.50010849  0.76021224  1
  Cu  Cu105  1  0.34034345  -0.00029677  -0.00310281  1
  Cu  Cu106  1  0.49801216  0.15669379  0.24561382  1
  Cu  Cu107  1  0.33315535  0.67331749  -0.00247449  1
  Cu  Cu108  1  -0.00260141  0.33660338  -0.00058250  1
  Cu  Cu109  1  0.00261776  0.67541467  0.49434660  1
  Cu  Cu110  1  0.33529470  0.67743551  0.49547297  1
  Cu  Cu111  1  0.16902945  0.16720191  0.24673640  1
  Cu  Cu112  1  0.49995154  0.83788945  0.75451134  1
  Cu  Cu113  1  0.32593428  -0.01245076  0.50058999  1
  Cu  Cu114  1  0.84153658  0.50653630  0.24375212  1
  Se  Se115  1  0.06903741  0.07407702  0.06000720  1
  Se  Se116  1  0.07032699  0.07030144  0.56237768  1
  Se  Se117  1  0.08331030  0.42032785  0.04996444  1
  Se  Se118  1  0.07478219  0.40405340  0.55769545  1
  Se  Se119  1  0.10246166  0.77295060  0.04612884  1
  Se  Se120  1  0.08673024  0.75158613  0.55260583  1
  Se  Se121  1  0.42018724  0.08687201  0.04964244  1
  Se  Se122  1  0.40686481  0.06843863  0.55962905  1
  Se  Se123  1  0.40957281  0.41214040  0.06015386  1
  Se  Se124  1  0.41507797  0.41860358  0.56779425  1
  Se  Se125  1  0.41999049  0.75394078  0.04954194  1
  Se  Se126  1  0.41286435  0.75000913  0.56186587  1
  Se  Se127  1  0.74162369  0.07369518  0.06081332  1
  Se  Se128  1  0.75282889  0.08558601  0.55121707  1
  Se  Se129  1  0.74713241  0.41008320  0.04806862  1
  Se  Se130  1  0.74698495  0.41811240  0.56643318  1
  Se  Se131  1  0.74881134  0.75217425  0.05594868  1
  Se  Se132  1  0.74829860  0.75970784  0.55608457  1
  Se  Se133  1  0.25715383  0.25757691  0.06452350  1
  Se  Se134  1  0.25279063  0.25004400  0.56603474  1
  Se  Se135  1  0.24866712  0.58672656  0.04635496  1
  Se  Se136  1  0.26059505  0.59370389  0.55866645  1
  Se  Se137  1  0.25224611  0.92072559  0.04937956  1
  Se  Se138  1  0.24676941  0.90569673  0.55627148  1
  Se  Se139  1  0.58024284  0.24487679  0.04253981  1
  Se  Se140  1  0.59433923  0.26122092  0.56267550  1
  Se  Se141  1  0.58281121  0.58950961  0.06365351  1
  Se  Se142  1  0.59299186  0.59837582  0.55932826  1
  Se  Se143  1  0.57936559  0.91119390  0.05244804  1
  Se  Se144  1  0.59379165  0.92137480  0.56062219  1
  Se  Se145  1  0.92015992  0.25064951  0.05768863  1
  Se  Se146  1  0.90933725  0.24532731  0.55437095  1
  Se  Se147  1  0.89810704  0.57533448  0.05403378  1
  Se  Se148  1  0.92661429  0.59617866  0.55869827  1
  Se  Se149  1  0.90862225  0.91763838  0.04134749  1
  Se  Se150  1  0.91231072  0.91192201  0.55189907  1
  Se  Se151  1  0.07790981  0.25178456  0.43831251  1
  Se  Se152  1  0.07906645  0.25120561  0.94427658  1
  Se  Se153  1  0.07801326  0.58883702  0.43593810  1
  Se  Se154  1  0.07154414  0.59884011  0.95444849  1
  Se  Se155  1  0.08237130  0.91414682  0.44848041  1
  Se  Se156  1  0.07781278  0.92318803  0.95354839  1
  Se  Se157  1  0.41511887  0.25541548  0.45039577  1
  Se  Se158  1  0.41466581  0.24879520  0.94777724  1
  Se  Se159  1  0.41255286  0.59393101  0.43684852  1
  Se  Se160  1  0.41427073  0.59200183  0.93687314  1
  Se  Se161  1  0.41149510  0.91898636  0.43721959  1
  Se  Se162  1  0.41998724  0.91326237  0.94356909  1
  Se  Se163  1  0.74056525  0.26141777  0.44792748  1
  Se  Se164  1  0.74708173  0.25133228  0.93115192  1
  Se  Se165  1  0.74532792  0.59357288  0.44145781  1
  Se  Se166  1  0.74311151  0.57923219  0.95267723  1
  Se  Se167  1  0.75142965  0.91500635  0.44375828  1
  Se  Se168  1  0.75062746  0.91082860  0.94851334  1
  Se  Se169  1  0.25396118  0.07544363  0.44012525  1
  Se  Se170  1  0.25322284  0.07743842  0.93891051  1
  Se  Se171  1  0.25974147  0.41065251  0.45045410  1
  Se  Se172  1  0.24390741  0.41935938  0.94852849  1
  Se  Se173  1  0.24637315  0.75413307  0.44228085  1
  Se  Se174  1  0.25179395  0.75623177  0.94251779  1
  Se  Se175  1  0.58711388  0.07816210  0.43856706  1
  Se  Se176  1  0.58329405  0.08235134  0.94662511  1
  Se  Se177  1  0.59683358  0.41168202  0.44902774  1
  Se  Se178  1  0.58746747  0.41222354  0.93342790  1
  Se  Se179  1  0.59278029  0.74349345  0.43911576  1
  Se  Se180  1  0.58099994  0.75440078  0.95005420  1
  Se  Se181  1  0.91236952  0.08499300  0.44471850  1
  Se  Se182  1  0.92425660  0.07220055  0.94096594  1
  Se  Se183  1  0.92218380  0.41416116  0.43839057  1
  Se  Se184  1  0.91075624  0.41697187  0.94729359  1
  Se  Se185  1  0.91393361  0.75229746  0.44178056  1
  Se  Se186  1  0.93161090  0.72586022  0.95540065  1
  Se  Se187  1  0.24427945  0.24325013  0.31510233  1
  Se  Se188  1  0.24915934  0.25079762  0.80581458  1
  Se  Se189  1  0.25225471  0.58607066  0.29742187  1
  Se  Se190  1  0.24584736  0.58564375  0.80964718  1
  Se  Se191  1  0.24761879  0.91477077  0.29559295  1
  Se  Se192  1  0.26072487  0.92280833  0.79878389  1
  Se  Se193  1  0.57785811  0.23608911  0.30815254  1
  Se  Se194  1  0.58596245  0.25174039  0.80258815  1
  Se  Se195  1  0.58943057  0.58641160  0.29958156  1
  Se  Se196  1  0.58646192  0.58700566  0.80254466  1
  Se  Se197  1  0.58278675  0.91531329  0.29942269  1
  Se  Se198  1  0.58714940  0.91800275  0.80723731  1
  Se  Se199  1  0.92183064  0.26007463  0.29670284  1
  Se  Se200  1  0.92124756  0.25042708  0.79936381  1
  Se  Se201  1  0.92349875  0.59359200  0.29578855  1
  Se  Se202  1  0.90889836  0.57692251  0.81682697  1
  Se  Se203  1  0.91055254  0.91106272  0.30891684  1
  Se  Se204  1  0.91492844  0.89942984  0.81631962  1
  Se  Se205  1  0.08904317  0.08685471  0.30985075  1
  Se  Se206  1  0.09486472  0.08294219  0.81741722  1
  Se  Se207  1  0.08767060  0.42099220  0.29854442  1
  Se  Se208  1  0.07605106  0.41853915  0.81131855  1
  Se  Se209  1  0.08171058  0.75145376  0.29908157  1
  Se  Se210  1  0.09159443  0.75915455  0.81321525  1
  Se  Se211  1  0.40899465  0.07793126  0.29737015  1
  Se  Se212  1  0.41903615  0.08340632  0.80557786  1
  Se  Se213  1  0.42919756  0.42500688  0.31384476  1
  Se  Se214  1  0.41236602  0.41535105  0.80715692  1
  Se  Se215  1  0.41421450  0.75179839  0.29673427  1
  Se  Se216  1  0.41832946  0.74885819  0.80358573  1
  Se  Se217  1  0.74840066  0.07973024  0.29686032  1
  Se  Se218  1  0.75346285  0.07980672  0.80350063  1
  Se  Se219  1  0.76358554  0.42795828  0.31009567  1
  Se  Se220  1  0.74872975  0.41428580  0.80174222  1
  Se  Se221  1  0.74980851  0.74972521  0.30096510  1
  Se  Se222  1  0.74855268  0.74168881  0.81135913  1
  Se  Se223  1  0.24697645  0.07888732  0.19582947  1
  Se  Se224  1  0.24669701  0.08031591  0.69847786  1
  Se  Se225  1  0.24748399  0.42322002  0.18731118  1
  Se  Se226  1  0.24760296  0.41776910  0.70453390  1
  Se  Se227  1  0.25264215  0.74720510  0.18760852  1
  Se  Se228  1  0.26040424  0.73535083  0.70065206  1
  Se  Se229  1  0.58348959  0.08011576  0.19026236  1
  Se  Se230  1  0.58385101  0.08751667  0.69562553  1
  Se  Se231  1  0.58063064  0.42249596  0.18938910  1
  Se  Se232  1  0.58347643  0.42059463  0.70272630  1
  Se  Se233  1  0.58467830  0.75067695  0.19598334  1
  Se  Se234  1  0.58277912  0.75322431  0.70089218  1
  Se  Se235  1  0.90645850  0.08814335  0.19149243  1
  Se  Se236  1  0.91252197  0.08219062  0.69158048  1
  Se  Se237  1  0.92306580  0.42046484  0.19180281  1
  Se  Se238  1  0.92016096  0.41352878  0.70096605  1
  Se  Se239  1  0.92093702  0.75264947  0.18830992  1
  Se  Se240  1  0.91493291  0.75516692  0.69389807  1
  Se  Se241  1  0.08312286  0.25407526  0.20200651  1
  Se  Se242  1  0.08121842  0.24696562  0.70055108  1
  Se  Se243  1  0.08398811  0.58945711  0.18505807  1
  Se  Se244  1  0.08645481  0.57505257  0.69187311  1
  Se  Se245  1  0.08034319  0.90192608  0.18109495  1
  Se  Se246  1  0.08723914  0.90715362  0.69517136  1
  Se  Se247  1  0.42233301  0.24832047  0.19082437  1
  Se  Se248  1  0.41240265  0.25411000  0.70288567  1
  Se  Se249  1  0.41472995  0.58610016  0.19839573  1
  Se  Se250  1  0.41740915  0.58610964  0.70278833  1
  Se  Se251  1  0.41241614  0.91907475  0.18924163  1
  Se  Se252  1  0.41586917  0.92108533  0.70072114  1
  Se  Se253  1  0.75474374  0.24665104  0.18710057  1
  Se  Se254  1  0.74982480  0.25079046  0.69841609  1
  Se  Se255  1  0.74771795  0.58525758  0.19767777  1
  Se  Se256  1  0.75455650  0.58637041  0.69928197  1
  Se  Se257  1  0.74972804  0.91552966  0.19549155  1
  Se  Se258  1  0.75055473  0.92859780  0.70354496  1
