# generated using pymatgen
data_In86Cu29Se144
_symmetry_space_group_name_H-M   'P 1'
_cell_length_a   17.59240342
_cell_length_b   17.58666048
_cell_length_c   23.44590040
_cell_angle_alpha   90.01265951
_cell_angle_beta   90.00596126
_cell_angle_gamma   90.00977692
_symmetry_Int_Tables_number   1
_chemical_formula_structural   In86Cu29Se144
_chemical_formula_sum   'In86 Cu29 Se144'
_cell_volume   7253.96492917
_cell_formula_units_Z   1
loop_
 _symmetry_equiv_pos_site_id
 _symmetry_equiv_pos_as_xyz
  1  'x, y, z'
loop_
 _atom_site_type_symbol
 _atom_site_label
 _atom_site_symmetry_multiplicity
 _atom_site_fract_x
 _atom_site_fract_y
 _atom_site_fract_z
 _atom_site_occupancy
  In  In0  1  -0.00900666  0.16132726  0.12618212  1
  In  In1  1  -0.00816597  0.17865998  0.62477221  1
  In  In2  1  -0.00950468  0.50736662  0.12568819  1
  In  In3  1  -0.01029680  0.51845687  0.62510678  1
  In  In4  1  -0.00470488  0.83405763  0.09709487  1
  In  In5  1  -0.00759524  0.81565077  0.63511291  1
  In  In6  1  0.34653985  0.15907435  0.12793620  1
  In  In7  1  0.35143101  0.15740497  0.62688320  1
  In  In8  1  0.34670959  0.48984400  0.13118133  1
  In  In9  1  0.34238035  0.49243273  0.63116446  1
  In  In10  1  0.33244022  0.83934128  0.12593435  1
  In  In11  1  0.34425593  0.81865521  0.64021806  1
  In  In12  1  0.65684165  0.18144924  0.13829873  1
  In  In13  1  0.66253840  0.16788161  0.62160045  1
  In  In14  1  0.66176898  0.51495177  0.13416625  1
  In  In15  1  0.66027105  0.50012213  0.62022162  1
  In  In16  1  0.67257144  0.82616212  0.12841401  1
  In  In17  1  0.66336188  0.84567596  0.63684866  1
  In  In18  1  0.17436314  -0.01355665  0.37371777  1
  In  In19  1  0.16639797  -0.04166979  0.87542492  1
  In  In20  1  0.17241806  0.32275065  0.37244654  1
  In  In21  1  0.17469187  0.31963519  0.87649756  1
  In  In22  1  0.17695132  0.65584201  0.37858945  1
  In  In23  1  0.17110068  0.67905470  0.86824777  1
  In  In24  1  0.50634533  -0.00144491  0.37258060  1
  In  In25  1  0.50744208  0.00630761  0.87052850  1
  In  In26  1  0.50165901  0.33278026  0.37669918  1
  In  In27  1  0.50200384  0.33399801  0.87295019  1
  In  In28  1  0.49898966  0.66510351  0.37735007  1
  In  In29  1  0.49616688  0.65992959  0.87033657  1
  In  In30  1  0.81888862  0.01632014  0.38099754  1
  In  In31  1  0.82566597  0.00061557  0.87781035  1
  In  In32  1  0.81611599  0.34103465  0.37770753  1
  In  In33  1  0.82380048  0.34616421  0.87311217  1
  In  In34  1  0.82115129  0.66673991  0.37757808  1
  In  In35  1  0.84912259  0.68903469  0.84788011  1
  In  In36  1  -0.00613509  0.15424701  0.37791785  1
  In  In37  1  -0.00294717  0.15995653  0.87333510  1
  In  In38  1  -0.00737788  0.49805127  0.38091004  1
  In  In39  1  -0.01375628  0.51169511  0.87445866  1
  In  In40  1  -0.00629105  0.83162138  0.37510092  1
  In  In41  1  0.00947321  0.81613154  0.89431242  1
  In  In42  1  0.34871311  0.17429544  0.36711610  1
  In  In43  1  0.34375161  0.16945942  0.87117280  1
  In  In44  1  0.34642745  0.50682821  0.37055426  1
  In  In45  1  0.34674825  0.50998268  0.86921883  1
  In  In46  1  0.34497419  0.84350102  0.36583270  1
  In  In47  1  0.32523109  0.82483170  0.86228094  1
  In  In48  1  0.66458341  0.16633528  0.37356136  1
  In  In49  1  0.65482418  0.15702676  0.86833284  1
  In  In50  1  0.66485194  0.49617958  0.37539707  1
  In  In51  1  0.66227759  0.49722387  0.86907462  1
  In  In52  1  0.65641442  0.81790051  0.36681799  1
  In  In53  1  0.67639420  0.83959747  0.86234552  1
  In  In54  1  0.17499953  -0.00670386  0.12061752  1
  In  In55  1  0.17742585  0.00017729  0.63020303  1
  In  In56  1  0.17394884  0.34452787  0.12712704  1
  In  In57  1  0.17048695  0.34436613  0.62873604  1
  In  In58  1  0.16850192  0.68359344  0.12069653  1
  In  In59  1  0.16718742  0.67125961  0.63777367  1
  In  In60  1  0.49062464  0.01011920  0.12697439  1
  In  In61  1  0.50312492  0.00026555  0.62241134  1
  In  In62  1  0.50464374  0.33578518  0.12624284  1
  In  In63  1  0.50023118  0.33446523  0.62096641  1
  In  In64  1  0.50972875  0.65506413  0.12742189  1
  In  In65  1  0.50080967  0.66804852  0.62458098  1
  In  In66  1  0.83168657  -0.00797040  0.12901359  1
  In  In67  1  0.80999727  -0.00456513  0.62870994  1
  In  In68  1  0.81002572  0.34123725  0.14152527  1
  In  In69  1  0.81398749  0.32583158  0.61539773  1
  In  In70  1  0.82658564  0.67431681  0.12122718  1
  In  In71  1  0.83466837  0.66239258  0.63045371  1
  In  In72  1  0.00204204  0.34135633  0.75236558  1
  In  In73  1  0.00428107  0.33065652  0.25517486  1
  In  In74  1  0.82806071  0.51287811  0.00446548  1
  In  In75  1  0.16809058  0.16489876  0.50006592  1
  In  In76  1  0.00122145  -0.00574404  0.75403027  1
  In  In77  1  0.82897545  0.82880469  0.50576887  1
  In  In78  1  0.16582393  0.50018843  0.50625085  1
  In  In79  1  0.82681010  0.16568522  0.00479233  1
  In  In80  1  0.00211169  -0.00123466  0.24339172  1
  In  In81  1  0.17310866  0.15852006  0.00376398  1
  In  In82  1  0.17424123  0.50843885  -0.01036642  1
  In  In83  1  0.50035488  0.83287399  -0.00287666  1
  In  In84  1  0.17045255  0.83091951  0.51367466  1
  In  In85  1  0.00224986  0.66988242  0.24791896  1
  Cu  Cu86  1  0.66133614  0.00061714  0.49994680  1
  Cu  Cu87  1  0.50261880  0.82734275  0.24678532  1
  Cu  Cu88  1  0.34948489  0.33205473  0.00011157  1
  Cu  Cu89  1  0.33663194  0.66417832  -0.00565600  1
  Cu  Cu90  1  0.18111865  0.50344383  0.25068317  1
  Cu  Cu91  1  0.17492959  0.83322482  0.24617472  1
  Cu  Cu92  1  0.33899251  0.67216678  0.50315519  1
  Cu  Cu93  1  0.66907617  0.66499489  -0.00227841  1
  Cu  Cu94  1  -0.00177085  0.33209279  0.00731984  1
  Cu  Cu95  1  0.83025231  0.83561399  0.24949287  1
  Cu  Cu96  1  0.50377818  0.17184087  0.74587993  1
  Cu  Cu97  1  0.66078877  0.33443999  0.49707181  1
  Cu  Cu98  1  0.82488693  0.16658007  0.74752085  1
  Cu  Cu99  1  0.65743046  0.33275020  -0.00049586  1
  Cu  Cu100  1  0.65871246  0.66343511  0.49886489  1
  Cu  Cu101  1  0.49860373  0.49740079  0.74537207  1
  Cu  Cu102  1  0.82443113  0.49820832  0.74524734  1
  Cu  Cu103  1  0.50037490  0.83707740  0.74992107  1
  Cu  Cu104  1  0.17905760  0.16396173  0.24642448  1
  Cu  Cu105  1  -0.01726603  0.33389405  0.50010876  1
  Cu  Cu106  1  -0.00667088  -0.00194280  0.50344363  1
  Cu  Cu107  1  0.17861352  0.16343855  0.75326454  1
  Cu  Cu108  1  0.33701381  0.33401685  0.50011023  1
  Cu  Cu109  1  0.33149943  -0.00403823  -0.00218298  1
  Cu  Cu110  1  0.66179891  0.00204796  -0.00211845  1
  Cu  Cu111  1  0.17136044  0.50245148  0.75268469  1
  Cu  Cu112  1  0.50308041  0.49761771  0.25383137  1
  Cu  Cu113  1  0.49934512  0.16717684  0.25245408  1
  Cu  Cu114  1  0.34853882  0.00147991  0.49600241  1
  Se  Se115  1  0.07311975  0.07417848  0.05923249  1
  Se  Se116  1  0.07678640  0.07647177  0.56308067  1
  Se  Se117  1  0.08020085  0.41962082  0.05762052  1
  Se  Se118  1  0.06811106  0.40811769  0.56106343  1
  Se  Se119  1  0.08956803  0.74874601  0.04399871  1
  Se  Se120  1  0.07372649  0.73602389  0.56008503  1
  Se  Se121  1  0.41458383  0.08230818  0.04805957  1
  Se  Se122  1  0.42803960  0.08756128  0.54901223  1
  Se  Se123  1  0.42579505  0.42042437  0.05393164  1
  Se  Se124  1  0.41693187  0.42097867  0.55247851  1
  Se  Se125  1  0.41528945  0.74129964  0.05955123  1
  Se  Se126  1  0.41899610  0.75765631  0.55683054  1
  Se  Se127  1  0.73528400  0.08028355  0.06529002  1
  Se  Se128  1  0.74721881  0.08177570  0.55327693  1
  Se  Se129  1  0.74019067  0.41362980  0.05793262  1
  Se  Se130  1  0.74482669  0.42038993  0.54873892  1
  Se  Se131  1  0.74802386  0.75418302  0.04915564  1
  Se  Se132  1  0.73491859  0.74334574  0.56357644  1
  Se  Se133  1  0.25968154  0.25840958  0.05843339  1
  Se  Se134  1  0.25509770  0.25603712  0.56101062  1
  Se  Se135  1  0.26036670  0.58591838  0.06089080  1
  Se  Se136  1  0.25639601  0.59276870  0.56347158  1
  Se  Se137  1  0.25079691  0.90928239  0.04890966  1
  Se  Se138  1  0.26772780  0.92599726  0.55901886  1
  Se  Se139  1  0.58183098  0.24678775  0.05631958  1
  Se  Se140  1  0.58008411  0.24929978  0.55155691  1
  Se  Se141  1  0.58814701  0.58034711  0.05132366  1
  Se  Se142  1  0.57353738  0.58112822  0.55208991  1
  Se  Se143  1  0.58541990  0.92123187  0.06173392  1
  Se  Se144  1  0.58654052  0.91301545  0.55623984  1
  Se  Se145  1  0.91098244  0.26343282  0.06768049  1
  Se  Se146  1  0.90559575  0.24402921  0.55123763  1
  Se  Se147  1  0.93001597  0.60291988  0.05355360  1
  Se  Se148  1  0.90599411  0.58599850  0.55215841  1
  Se  Se149  1  0.90404340  0.92634903  0.04871589  1
  Se  Se150  1  0.92031907  0.91861973  0.56735289  1
  Se  Se151  1  0.07200260  0.25749935  0.44344537  1
  Se  Se152  1  0.07423731  0.25178381  0.94652605  1
  Se  Se153  1  0.07617434  0.59175166  0.44621487  1
  Se  Se154  1  0.07581408  0.59507586  0.93855832  1
  Se  Se155  1  0.07683914  0.91977347  0.44633289  1
  Se  Se156  1  0.07341605  0.92332118  0.95335114  1
  Se  Se157  1  0.41768958  0.24877823  0.44672419  1
  Se  Se158  1  0.42507867  0.24589427  0.94422532  1
  Se  Se159  1  0.41539100  0.58381012  0.44903116  1
  Se  Se160  1  0.42384615  0.57995288  0.94791494  1
  Se  Se161  1  0.42479593  0.91240462  0.44275785  1
  Se  Se162  1  0.41131142  0.91884804  0.93429283  1
  Se  Se163  1  0.74542423  0.24858678  0.44606764  1
  Se  Se164  1  0.74206352  0.25564375  0.93991154  1
  Se  Se165  1  0.74513925  0.58221530  0.44701757  1
  Se  Se166  1  0.74871241  0.59143535  0.93155658  1
  Se  Se167  1  0.74033379  0.91414805  0.44087269  1
  Se  Se168  1  0.74152739  0.91699409  0.94472078  1
  Se  Se169  1  0.25892003  0.07721215  0.43881063  1
  Se  Se170  1  0.25219742  0.07391238  0.93347608  1
  Se  Se171  1  0.25338177  0.41230756  0.44118518  1
  Se  Se172  1  0.26373762  0.40773052  0.94027747  1
  Se  Se173  1  0.25770147  0.75131446  0.44269156  1
  Se  Se174  1  0.25555671  0.75039461  0.94325998  1
  Se  Se175  1  0.58142882  0.08433369  0.44424138  1
  Se  Se176  1  0.57872870  0.08732715  0.94765705  1
  Se  Se177  1  0.57765891  0.42060579  0.44626101  1
  Se  Se178  1  0.58247933  0.41953853  0.94306221  1
  Se  Se179  1  0.57931853  0.75183723  0.44696149  1
  Se  Se180  1  0.58976007  0.74576260  0.93627896  1
  Se  Se181  1  0.91167541  0.08292272  0.45219158  1
  Se  Se182  1  0.92196750  0.07834873  0.94718791  1
  Se  Se183  1  0.90534931  0.42011083  0.44652842  1
  Se  Se184  1  0.92002858  0.41204656  0.94656195  1
  Se  Se185  1  0.92232557  0.74106338  0.44480820  1
  Se  Se186  1  0.89880980  0.74329428  0.94192493  1
  Se  Se187  1  0.25653751  0.25121532  0.30040361  1
  Se  Se188  1  0.25883109  0.25309247  0.80237623  1
  Se  Se189  1  0.26029814  0.59017919  0.30330573  1
  Se  Se190  1  0.25306951  0.58705852  0.80594036  1
  Se  Se191  1  0.25570379  0.92067120  0.29708685  1
  Se  Se192  1  0.25999832  0.92545558  0.79742543  1
  Se  Se193  1  0.58210138  0.25148598  0.30548567  1
  Se  Se194  1  0.58638088  0.25351725  0.80212146  1
  Se  Se195  1  0.58282314  0.58411077  0.30778506  1
  Se  Se196  1  0.58016299  0.58040417  0.80042693  1
  Se  Se197  1  0.58383482  0.91256055  0.30131839  1
  Se  Se198  1  0.58537675  0.92197413  0.80052861  1
  Se  Se199  1  0.91252975  0.24562977  0.31469984  1
  Se  Se200  1  0.90721494  0.24575012  0.80793285  1
  Se  Se201  1  0.91337878  0.58182367  0.30856608  1
  Se  Se202  1  0.91702743  0.57905204  0.79226964  1
  Se  Se203  1  0.90847234  0.91723949  0.31024177  1
  Se  Se204  1  0.91753964  0.91115460  0.81982237  1
  Se  Se205  1  0.09504104  0.08752273  0.30743640  1
  Se  Se206  1  0.09685694  0.08503684  0.81223545  1
  Se  Se207  1  0.09555578  0.42876892  0.31152191  1
  Se  Se208  1  0.09289097  0.42582104  0.81791370  1
  Se  Se209  1  0.09532963  0.75797796  0.31088817  1
  Se  Se210  1  0.07666499  0.75739983  0.80761024  1
  Se  Se211  1  0.41796695  0.07717357  0.30246044  1
  Se  Se212  1  0.42267328  0.08630542  0.80088118  1
  Se  Se213  1  0.41773787  0.41273249  0.30463881  1
  Se  Se214  1  0.41718098  0.41499749  0.80284212  1
  Se  Se215  1  0.41929411  0.74697892  0.30364480  1
  Se  Se216  1  0.42023757  0.74761531  0.80087870  1
  Se  Se217  1  0.74040110  0.07851923  0.30318327  1
  Se  Se218  1  0.74918433  0.08091195  0.80443630  1
  Se  Se219  1  0.74907288  0.42185065  0.30232605  1
  Se  Se220  1  0.74309388  0.41302529  0.79735058  1
  Se  Se221  1  0.75178207  0.74592591  0.30037472  1
  Se  Se222  1  0.72489737  0.72834153  0.79973858  1
  Se  Se223  1  0.25351262  0.07717874  0.19004802  1
  Se  Se224  1  0.25957632  0.08449423  0.69560360  1
  Se  Se225  1  0.25841160  0.41228908  0.20065062  1
  Se  Se226  1  0.25313966  0.41625861  0.70126061  1
  Se  Se227  1  0.25697819  0.74728978  0.19469475  1
  Se  Se228  1  0.24469624  0.75589874  0.70447125  1
  Se  Se229  1  0.57963097  0.08209994  0.19733798  1
  Se  Se230  1  0.58451467  0.08408300  0.69291542  1
  Se  Se231  1  0.58685187  0.41796912  0.19654109  1
  Se  Se232  1  0.58279832  0.41488977  0.69161878  1
  Se  Se233  1  0.58786804  0.74342570  0.19504034  1
  Se  Se234  1  0.58043300  0.75125336  0.69584861  1
  Se  Se235  1  0.90178005  0.09333806  0.19931101  1
  Se  Se236  1  0.91201386  0.08798391  0.69201592  1
  Se  Se237  1  0.91385293  0.42433024  0.19828113  1
  Se  Se238  1  0.90787948  0.41575210  0.68605838  1
  Se  Se239  1  0.91893918  0.76622753  0.18710606  1
  Se  Se240  1  0.89760661  0.75517556  0.70325082  1
  Se  Se241  1  0.09302441  0.24094319  0.18866933  1
  Se  Se242  1  0.09292318  0.24271521  0.69595318  1
  Se  Se243  1  0.09614845  0.57715718  0.18933126  1
  Se  Se244  1  0.08340432  0.57842412  0.69777175  1
  Se  Se245  1  0.08527506  0.90156696  0.18488962  1
  Se  Se246  1  0.09028909  0.90704588  0.69024098  1
  Se  Se247  1  0.41952351  0.25130036  0.19456300  1
  Se  Se248  1  0.41751901  0.25455362  0.69379851  1
  Se  Se249  1  0.42097700  0.58183456  0.19801100  1
  Se  Se250  1  0.41605156  0.58692166  0.69562858  1
  Se  Se251  1  0.42062846  0.91423687  0.19436120  1
  Se  Se252  1  0.41952660  0.92260953  0.69521786  1
  Se  Se253  1  0.75130929  0.24493620  0.20888670  1
  Se  Se254  1  0.74401988  0.25060231  0.69410923  1
  Se  Se255  1  0.76963036  0.57888618  0.19111058  1
  Se  Se256  1  0.74170061  0.58126638  0.69210229  1
  Se  Se257  1  0.74419992  0.91789629  0.19853375  1
  Se  Se258  1  0.76007396  0.90808459  0.70650931  1
