# generated using pymatgen
data_In86Cu29Se144
_symmetry_space_group_name_H-M   'P 1'
_cell_length_a   17.58123865
_cell_length_b   17.58093934
_cell_length_c   23.43821030
_cell_angle_alpha   90.01524196
_cell_angle_beta   89.98832130
_cell_angle_gamma   90.00820861
_symmetry_Int_Tables_number   1
_chemical_formula_structural   In86Cu29Se144
_chemical_formula_sum   'In86 Cu29 Se144'
_cell_volume   7244.62587190
_cell_formula_units_Z   1
loop_
 _symmetry_equiv_pos_site_id
 _symmetry_equiv_pos_as_xyz
  1  'x, y, z'
loop_
 _atom_site_type_symbol
 _atom_site_label
 _atom_site_symmetry_multiplicity
 _atom_site_fract_x
 _atom_site_fract_y
 _atom_site_fract_z
 _atom_site_occupancy
  In  In0  1  -0.00215123  0.17810071  0.14245052  1
  In  In1  1  -0.00632673  0.17263444  0.61987189  1
  In  In2  1  -0.01120501  0.48288184  0.12454382  1
  In  In3  1  -0.00142476  0.49903189  0.61793131  1
  In  In4  1  0.00546963  0.84003507  0.12023155  1
  In  In5  1  -0.00357387  0.84500133  0.62080599  1
  In  In6  1  0.33639615  0.16496053  0.13149864  1
  In  In7  1  0.34918636  0.16219565  0.63566272  1
  In  In8  1  0.32286259  0.48559568  0.10853451  1
  In  In9  1  0.33121622  0.49019458  0.62148218  1
  In  In10  1  0.34268867  0.84636547  0.11301759  1
  In  In11  1  0.34575932  0.83461817  0.63147531  1
  In  In12  1  0.65258301  0.16494060  0.11171637  1
  In  In13  1  0.66537522  0.16682195  0.61861343  1
  In  In14  1  0.67024095  0.48890257  0.11520582  1
  In  In15  1  0.67227610  0.50528092  0.62094613  1
  In  In16  1  0.67298431  0.83968947  0.11822660  1
  In  In17  1  0.66961716  0.82443785  0.63078222  1
  In  In18  1  0.17675756  0.01922690  0.35291175  1
  In  In19  1  0.17127063  -0.00821280  0.88377075  1
  In  In20  1  0.17448365  0.33486675  0.36237399  1
  In  In21  1  0.19466868  0.32803697  0.88497257  1
  In  In22  1  0.15211145  0.65947560  0.37603670  1
  In  In23  1  0.16961132  0.66591716  0.88309226  1
  In  In24  1  0.51155120  0.00860720  0.36639418  1
  In  In25  1  0.48967591  0.01298159  0.88404725  1
  In  In26  1  0.49517777  0.33255305  0.37935427  1
  In  In27  1  0.49725504  0.33401656  0.88311005  1
  In  In28  1  0.49413570  0.65591943  0.37662862  1
  In  In29  1  0.51729114  0.65776531  0.87619034  1
  In  In30  1  0.83093792  0.00081766  0.37051274  1
  In  In31  1  0.82861183  0.00082144  0.88280460  1
  In  In32  1  0.83344375  0.33261780  0.37592120  1
  In  In33  1  0.81152446  0.34971794  0.90353419  1
  In  In34  1  0.83777314  0.66453735  0.38185416  1
  In  In35  1  0.81630294  0.67374525  0.87705703  1
  In  In36  1  -0.01063483  0.15783158  0.36163744  1
  In  In37  1  -0.01205392  0.17166616  0.87903533  1
  In  In38  1  0.00021161  0.49345733  0.37708114  1
  In  In39  1  0.00204424  0.49878376  0.88219542  1
  In  In40  1  -0.01197423  0.83446193  0.37318052  1
  In  In41  1  -0.00659129  0.83682661  0.88445333  1
  In  In42  1  0.34027601  0.17522662  0.36530806  1
  In  In43  1  0.35584148  0.18216090  0.86131039  1
  In  In44  1  0.33785880  0.48251639  0.38127315  1
  In  In45  1  0.35876418  0.47367998  0.89982724  1
  In  In46  1  0.32362823  0.83856275  0.37383954  1
  In  In47  1  0.32914244  0.84461965  0.88210667  1
  In  In48  1  0.67392916  0.16018182  0.37982311  1
  In  In49  1  0.65805664  0.18201647  0.89501338  1
  In  In50  1  0.66648127  0.49472192  0.38090167  1
  In  In51  1  0.64767805  0.50724731  0.88866217  1
  In  In52  1  0.66762657  0.84837058  0.37016351  1
  In  In53  1  0.67896733  0.82092631  0.87788472  1
  In  In54  1  0.17570502  0.00311876  0.13468858  1
  In  In55  1  0.17557866  0.00949896  0.62246514  1
  In  In56  1  0.16353084  0.33338727  0.13669971  1
  In  In57  1  0.17077720  0.34162784  0.62396782  1
  In  In58  1  0.16440178  0.66860112  0.11625190  1
  In  In59  1  0.17897977  0.65269834  0.62879163  1
  In  In60  1  0.50036813  0.00430610  0.12161791  1
  In  In61  1  0.49530474  0.00248532  0.62987311  1
  In  In62  1  0.48660632  0.31962166  0.09920329  1
  In  In63  1  0.49389088  0.32773855  0.62133239  1
  In  In64  1  0.49102915  0.65882979  0.11421694  1
  In  In65  1  0.51449420  0.66544275  0.63041395  1
  In  In66  1  0.82877294  -0.00018850  0.12658959  1
  In  In67  1  0.83190464  0.00237001  0.61481044  1
  In  In68  1  0.84353148  0.34026275  0.12103280  1
  In  In69  1  0.82908094  0.33314340  0.61517606  1
  In  In70  1  0.82833622  0.65895831  0.11911122  1
  In  In71  1  0.82891345  0.66671757  0.62226983  1
  In  In72  1  0.16973671  0.16694998  0.01160944  1
  In  In73  1  0.15381747  0.83016563  0.49381702  1
  In  In74  1  0.66304357  0.00214260  0.75129408  1
  In  In75  1  0.33506394  0.66923697  0.24982790  1
  In  In76  1  -0.00084684  0.00205419  0.76270474  1
  In  In77  1  0.16303151  0.16967567  0.48727723  1
  In  In78  1  0.66589182  0.66643285  0.23707831  1
  In  In79  1  0.33774290  0.66298721  0.75498484  1
  In  In80  1  0.66570310  0.33219938  0.24306442  1
  In  In81  1  -0.00035061  0.66661829  0.25256996  1
  In  In82  1  0.50443260  0.83101950  0.50859002  1
  In  In83  1  -0.00191669  0.66802460  0.74335051  1
  In  In84  1  0.65909480  0.33965737  0.75915798  1
  In  In85  1  0.00248515  0.33129708  0.74713240  1
  Cu  Cu86  1  -0.00363237  0.66638002  0.00082620  1
  Cu  Cu87  1  0.83012887  0.83561734  0.24765313  1
  Cu  Cu88  1  0.17015018  0.49904333  0.24759422  1
  Cu  Cu89  1  0.50236983  0.83911836  0.75604519  1
  Cu  Cu90  1  0.32950111  0.32643060  0.49778277  1
  Cu  Cu91  1  0.33046612  0.64929301  0.50050831  1
  Cu  Cu92  1  0.33277905  0.67474489  -0.00515100  1
  Cu  Cu93  1  0.66818593  0.66789625  0.00091474  1
  Cu  Cu94  1  -0.00797567  0.33287959  0.49659699  1
  Cu  Cu95  1  0.00714825  0.33303102  0.01069573  1
  Cu  Cu96  1  0.34031998  -0.00287955  0.50270773  1
  Cu  Cu97  1  0.82956842  0.16958904  0.75347652  1
  Cu  Cu98  1  0.67190566  0.00483033  0.49365528  1
  Cu  Cu99  1  0.16562341  0.83977966  0.75843797  1
  Cu  Cu100  1  -0.00709693  0.00031265  0.48781067  1
  Cu  Cu101  1  0.33297192  0.00846671  0.00471713  1
  Cu  Cu102  1  0.49506081  0.84465938  0.24194529  1
  Cu  Cu103  1  -0.00298721  0.66180495  0.50127719  1
  Cu  Cu104  1  0.17985383  0.16182431  0.75195803  1
  Cu  Cu105  1  0.66026063  0.33585482  0.49933192  1
  Cu  Cu106  1  -0.00346650  -0.00252731  0.00639043  1
  Cu  Cu107  1  0.82393701  0.16217559  0.24916148  1
  Cu  Cu108  1  0.66816968  0.66935595  0.50198396  1
  Cu  Cu109  1  0.49639969  0.48934997  0.24949408  1
  Cu  Cu110  1  0.50150467  0.16887716  0.24247857  1
  Cu  Cu111  1  0.17813049  0.48900467  0.75744494  1
  Cu  Cu112  1  0.82779402  0.50860024  0.74910314  1
  Cu  Cu113  1  0.66266840  -0.00595196  -0.00052848  1
  Cu  Cu114  1  0.17273327  0.84420268  0.24294232  1
  Se  Se115  1  0.07385403  0.07950415  0.06707200  1
  Se  Se116  1  0.07491143  0.07529550  0.55222888  1
  Se  Se117  1  0.09173782  0.41680518  0.06139807  1
  Se  Se118  1  0.07857496  0.40875964  0.55363217  1
  Se  Se119  1  0.08115459  0.75296393  0.05055087  1
  Se  Se120  1  0.07899794  0.73735857  0.56527347  1
  Se  Se121  1  0.41772502  0.09284317  0.05550263  1
  Se  Se122  1  0.41861108  0.08293972  0.55644958  1
  Se  Se123  1  0.43290251  0.43653965  0.04633096  1
  Se  Se124  1  0.41348448  0.41142979  0.55018398  1
  Se  Se125  1  0.41967264  0.75443625  0.04861574  1
  Se  Se126  1  0.40696473  0.73522788  0.55974691  1
  Se  Se127  1  0.74509828  0.07730877  0.05433341  1
  Se  Se128  1  0.75272471  0.09021206  0.54955259  1
  Se  Se129  1  0.76147579  0.41532435  0.04872183  1
  Se  Se130  1  0.74779650  0.41920816  0.55000829  1
  Se  Se131  1  0.75332694  0.75024951  0.05307987  1
  Se  Se132  1  0.74995398  0.75548190  0.55362401  1
  Se  Se133  1  0.25917079  0.26264802  0.06332377  1
  Se  Se134  1  0.25102536  0.24482291  0.55916451  1
  Se  Se135  1  0.25261189  0.59017857  0.05019483  1
  Se  Se136  1  0.24275591  0.56995322  0.55223947  1
  Se  Se137  1  0.24401288  0.92568318  0.05434603  1
  Se  Se138  1  0.25563293  0.91231600  0.55559997  1
  Se  Se139  1  0.60456357  0.27201946  0.04355383  1
  Se  Se140  1  0.58032911  0.24904977  0.55236182  1
  Se  Se141  1  0.58735388  0.58107843  0.05340622  1
  Se  Se142  1  0.58287329  0.58611954  0.55300062  1
  Se  Se143  1  0.57747972  0.91333204  0.05385162  1
  Se  Se144  1  0.59610977  0.92760738  0.56201555  1
  Se  Se145  1  0.92505161  0.24472794  0.05970909  1
  Se  Se146  1  0.91074951  0.24619400  0.54853409  1
  Se  Se147  1  0.92026986  0.57922635  0.05679506  1
  Se  Se148  1  0.91069520  0.58118825  0.55451118  1
  Se  Se149  1  0.90945183  0.91409454  0.05653251  1
  Se  Se150  1  0.91547262  0.91775991  0.54720247  1
  Se  Se151  1  0.06969301  0.25731810  0.43054718  1
  Se  Se152  1  0.08159222  0.25547748  0.94320340  1
  Se  Se153  1  0.08055241  0.57762336  0.44916307  1
  Se  Se154  1  0.08300607  0.58448895  0.94902259  1
  Se  Se155  1  0.08383771  0.93009673  0.42939357  1
  Se  Se156  1  0.08060767  0.91762369  0.95057742  1
  Se  Se157  1  0.41480002  0.24326385  0.44599777  1
  Se  Se158  1  0.40967617  0.25171119  0.94824058  1
  Se  Se159  1  0.41855380  0.57269001  0.44670378  1
  Se  Se160  1  0.42097562  0.59194217  0.94597589  1
  Se  Se161  1  0.41822936  0.91697403  0.44069564  1
  Se  Se162  1  0.41529773  0.92151278  0.95204664  1
  Se  Se163  1  0.74622111  0.25477653  0.44494642  1
  Se  Se164  1  0.78390875  0.21798301  0.94429997  1
  Se  Se165  1  0.74739450  0.58420560  0.44558157  1
  Se  Se166  1  0.75012958  0.58036991  0.94772596  1
  Se  Se167  1  0.75268082  0.91605683  0.44399107  1
  Se  Se168  1  0.75004633  0.91202777  0.94852430  1
  Se  Se169  1  0.26037198  0.07441366  0.43926218  1
  Se  Se170  1  0.25679258  0.08878518  0.94097346  1
  Se  Se171  1  0.24209531  0.40768331  0.44514095  1
  Se  Se172  1  0.23721399  0.43234051  0.95339625  1
  Se  Se173  1  0.25514818  0.73684999  0.44221378  1
  Se  Se174  1  0.24475414  0.75950251  0.94788595  1
  Se  Se175  1  0.57973619  0.08443582  0.44641946  1
  Se  Se176  1  0.57911280  0.08563597  0.95404681  1
  Se  Se177  1  0.57592750  0.41890297  0.44682544  1
  Se  Se178  1  0.61252020  0.38346409  0.94334705  1
  Se  Se179  1  0.58835808  0.74661403  0.43746962  1
  Se  Se180  1  0.58520292  0.75069336  0.94640527  1
  Se  Se181  1  0.91000400  0.08854622  0.44009372  1
  Se  Se182  1  0.91938286  0.07957706  0.94809135  1
  Se  Se183  1  0.90936112  0.42065114  0.44636426  1
  Se  Se184  1  0.92520024  0.41544937  0.95357479  1
  Se  Se185  1  0.91955882  0.75093208  0.44858984  1
  Se  Se186  1  0.91131696  0.74529195  0.94519007  1
  Se  Se187  1  0.23970590  0.23488350  0.29841991  1
  Se  Se188  1  0.25542374  0.25571079  0.80033672  1
  Se  Se189  1  0.24642773  0.57863377  0.31151721  1
  Se  Se190  1  0.25057184  0.57518350  0.81659715  1
  Se  Se191  1  0.26068121  0.92168567  0.29702880  1
  Se  Se192  1  0.25227935  0.92325772  0.80620762  1
  Se  Se193  1  0.58060208  0.24445964  0.30863530  1
  Se  Se194  1  0.57565898  0.23771789  0.81081378  1
  Se  Se195  1  0.57769332  0.57537025  0.30309935  1
  Se  Se196  1  0.58052694  0.56834341  0.80329588  1
  Se  Se197  1  0.58487388  0.91929980  0.29638345  1
  Se  Se198  1  0.58085968  0.91550502  0.81927197  1
  Se  Se199  1  0.90499560  0.24993317  0.30107032  1
  Se  Se200  1  0.90450264  0.25725555  0.81086916  1
  Se  Se201  1  0.90740037  0.57553875  0.30722975  1
  Se  Se202  1  0.91477222  0.57999262  0.80974596  1
  Se  Se203  1  0.91501382  0.91741856  0.30082579  1
  Se  Se204  1  0.90284268  0.90796415  0.80932356  1
  Se  Se205  1  0.07033241  0.07619678  0.29332333  1
  Se  Se206  1  0.09314871  0.09602240  0.81614536  1
  Se  Se207  1  0.08337382  0.42143534  0.30274246  1
  Se  Se208  1  0.09127683  0.41226265  0.81454211  1
  Se  Se209  1  0.09476965  0.76354837  0.30550167  1
  Se  Se210  1  0.08419725  0.75527938  0.81101408  1
  Se  Se211  1  0.42120225  0.08554454  0.30030477  1
  Se  Se212  1  0.41711026  0.07567800  0.80144233  1
  Se  Se213  1  0.41356440  0.40783423  0.30437493  1
  Se  Se214  1  0.42094249  0.41643190  0.81117201  1
  Se  Se215  1  0.42793206  0.76136512  0.30928780  1
  Se  Se216  1  0.42211240  0.75695552  0.81607556  1
  Se  Se217  1  0.74111829  0.07885879  0.30228363  1
  Se  Se218  1  0.74869843  0.09322086  0.81418294  1
  Se  Se219  1  0.75136079  0.42319814  0.30543283  1
  Se  Se220  1  0.75816348  0.42520694  0.81380358  1
  Se  Se221  1  0.75336695  0.75030474  0.30691137  1
  Se  Se222  1  0.74626310  0.74590608  0.79777289  1
  Se  Se223  1  0.24478302  0.09743944  0.20110784  1
  Se  Se224  1  0.25795672  0.07645277  0.69719735  1
  Se  Se225  1  0.25873504  0.41999111  0.19556741  1
  Se  Se226  1  0.25651522  0.41054008  0.69762250  1
  Se  Se227  1  0.24885392  0.75765631  0.18590820  1
  Se  Se228  1  0.24273088  0.75776965  0.69582293  1
  Se  Se229  1  0.58558531  0.08547606  0.19118449  1
  Se  Se230  1  0.57617450  0.09814865  0.69472103  1
  Se  Se231  1  0.57135703  0.41540996  0.18252714  1
  Se  Se232  1  0.58046570  0.42120148  0.68660597  1
  Se  Se233  1  0.56912161  0.75596087  0.18405315  1
  Se  Se234  1  0.58273255  0.75355524  0.70293937  1
  Se  Se235  1  0.91171994  0.08102544  0.19719823  1
  Se  Se236  1  0.91141550  0.08970522  0.69454065  1
  Se  Se237  1  0.92162361  0.40461985  0.20171293  1
  Se  Se238  1  0.90634694  0.42357871  0.69103646  1
  Se  Se239  1  0.90941588  0.75260647  0.18902716  1
  Se  Se240  1  0.91020003  0.76425642  0.69002895  1
  Se  Se241  1  0.09248600  0.24754274  0.20843870  1
  Se  Se242  1  0.09476310  0.23592702  0.69039859  1
  Se  Se243  1  0.08897330  0.57988291  0.18955345  1
  Se  Se244  1  0.09301315  0.56529154  0.69706751  1
  Se  Se245  1  0.07928086  0.92048005  0.19465691  1
  Se  Se246  1  0.09035970  0.91848529  0.69314503  1
  Se  Se247  1  0.42573569  0.25814939  0.18903527  1
  Se  Se248  1  0.41117514  0.26344068  0.69893909  1
  Se  Se249  1  0.41761291  0.57353330  0.19050849  1
  Se  Se250  1  0.42140541  0.57631148  0.68965312  1
  Se  Se251  1  0.41002529  0.92662190  0.19109848  1
  Se  Se252  1  0.41809927  0.91989705  0.70235319  1
  Se  Se253  1  0.75261255  0.24133804  0.18248670  1
  Se  Se254  1  0.75120011  0.25043853  0.69251049  1
  Se  Se255  1  0.75702855  0.56599107  0.19168182  1
  Se  Se256  1  0.74590585  0.58978087  0.69462944  1
  Se  Se257  1  0.74346042  0.91708651  0.19635953  1
  Se  Se258  1  0.75910761  0.91800252  0.69163642  1
