# generated using pymatgen
data_In86Cu29Se144
_symmetry_space_group_name_H-M   'P 1'
_cell_length_a   17.57721166
_cell_length_b   17.57930927
_cell_length_c   23.44142556
_cell_angle_alpha   90.01282242
_cell_angle_beta   89.96417654
_cell_angle_gamma   89.99460025
_symmetry_Int_Tables_number   1
_chemical_formula_structural   In86Cu29Se144
_chemical_formula_sum   'In86 Cu29 Se144'
_cell_volume   7243.28728339
_cell_formula_units_Z   1
loop_
 _symmetry_equiv_pos_site_id
 _symmetry_equiv_pos_as_xyz
  1  'x, y, z'
loop_
 _atom_site_type_symbol
 _atom_site_label
 _atom_site_symmetry_multiplicity
 _atom_site_fract_x
 _atom_site_fract_y
 _atom_site_fract_z
 _atom_site_occupancy
  In  In0  1  -0.01106360  0.17241069  0.12909044  1
  In  In1  1  0.01322964  0.15239978  0.63158658  1
  In  In2  1  -0.01838985  0.53386133  0.15050242  1
  In  In3  1  -0.00042788  0.50385796  0.62476863  1
  In  In4  1  -0.00027653  0.83556154  0.12293225  1
  In  In5  1  -0.00085245  0.83257789  0.62063006  1
  In  In6  1  0.32084610  0.15414839  0.13020710  1
  In  In7  1  0.32157247  0.16865506  0.62314830  1
  In  In8  1  0.33075778  0.48897836  0.12665987  1
  In  In9  1  0.32239818  0.48671814  0.61391260  1
  In  In10  1  0.33074800  0.84665749  0.12705790  1
  In  In11  1  0.32475975  0.85632048  0.62773278  1
  In  In12  1  0.68328502  0.14723502  0.14561670  1
  In  In13  1  0.66899305  0.16962503  0.62289863  1
  In  In14  1  0.69826121  0.47995680  0.15086135  1
  In  In15  1  0.68538719  0.51134640  0.61043031  1
  In  In16  1  0.67980285  0.81818426  0.13675555  1
  In  In17  1  0.65931196  0.81547863  0.62585599  1
  In  In18  1  0.15980719  -0.00029137  0.37174061  1
  In  In19  1  0.15536877  -0.01014796  0.86580522  1
  In  In20  1  0.14987280  0.33718367  0.39796871  1
  In  In21  1  0.16627085  0.33008455  0.86108344  1
  In  In22  1  0.15733890  0.67058829  0.37914518  1
  In  In23  1  0.16322012  0.68423823  0.87519010  1
  In  In24  1  0.49746370  0.00555655  0.36445638  1
  In  In25  1  0.49761516  0.00834579  0.87404786  1
  In  In26  1  0.51213575  0.33335857  0.37294043  1
  In  In27  1  0.50047060  0.34216352  0.86463347  1
  In  In28  1  0.50160673  0.65656470  0.37916419  1
  In  In29  1  0.49999074  0.65467167  0.86913329  1
  In  In30  1  0.82737620  -0.01161087  0.36847283  1
  In  In31  1  0.84082610  -0.01019025  0.88391146  1
  In  In32  1  0.83619260  0.35934884  0.37296708  1
  In  In33  1  0.84165647  0.32889945  0.88384336  1
  In  In34  1  0.84204123  0.66230634  0.36837313  1
  In  In35  1  0.83475208  0.66844386  0.87333588  1
  In  In36  1  0.02559890  0.16200806  0.37729795  1
  In  In37  1  0.00048174  0.16261248  0.87270072  1
  In  In38  1  -0.01088384  0.50286719  0.38243393  1
  In  In39  1  -0.00753349  0.49275661  0.86663533  1
  In  In40  1  -0.00126804  0.83049553  0.37189071  1
  In  In41  1  -0.00253394  0.83483121  0.87247611  1
  In  In42  1  0.31806761  0.14965866  0.37031772  1
  In  In43  1  0.32427161  0.15755014  0.86264439  1
  In  In44  1  0.33136000  0.50646466  0.38948031  1
  In  In45  1  0.33982714  0.49033463  0.86494459  1
  In  In46  1  0.31469873  0.84638470  0.38482073  1
  In  In47  1  0.31332869  0.83173074  0.87416295  1
  In  In48  1  0.65974862  0.17084986  0.35814514  1
  In  In49  1  0.67130538  0.17569961  0.87904923  1
  In  In50  1  0.67159880  0.50306125  0.36644488  1
  In  In51  1  0.66952890  0.51180720  0.87103911  1
  In  In52  1  0.67938212  0.83957532  0.36660715  1
  In  In53  1  0.68309065  0.83310320  0.87698203  1
  In  In54  1  0.17752459  -0.00344300  0.13915435  1
  In  In55  1  0.16798373  -0.00512825  0.61536925  1
  In  In56  1  0.16472748  0.33328349  0.12957945  1
  In  In57  1  0.16102478  0.33762086  0.62275298  1
  In  In58  1  0.12976673  0.67428049  0.13630028  1
  In  In59  1  0.15198369  0.65467929  0.61591306  1
  In  In60  1  0.49615862  0.00712112  0.13919000  1
  In  In61  1  0.47907439  -0.01159278  0.62573346  1
  In  In62  1  0.50513024  0.34998327  0.12257296  1
  In  In63  1  0.48913230  0.32938007  0.62114799  1
  In  In64  1  0.51032110  0.66820326  0.12682268  1
  In  In65  1  0.51828388  0.67146535  0.62586443  1
  In  In66  1  0.83863619  -0.00286517  0.12816969  1
  In  In67  1  0.85023987  0.00438705  0.62279836  1
  In  In68  1  0.83165359  0.32209833  0.11899207  1
  In  In69  1  0.83423283  0.34890527  0.62062472  1
  In  In70  1  0.83272050  0.66846241  0.12214499  1
  In  In71  1  0.83534012  0.66974057  0.62572052  1
  In  In72  1  0.33529191  0.67444526  0.26315807  1
  In  In73  1  0.50636252  0.17066915  0.00450915  1
  In  In74  1  0.00246576  0.33127646  0.25835042  1
  In  In75  1  0.15724242  0.16436920  0.00679680  1
  In  In76  1  0.50845108  0.83535902  0.00433731  1
  In  In77  1  0.33557165  0.32216706  0.25767917  1
  In  In78  1  0.66591254  0.33530885  0.74762018  1
  In  In79  1  0.66581427  -0.00709804  0.75281439  1
  In  In80  1  0.15903886  0.50458907  0.00802274  1
  In  In81  1  0.84060655  0.17406971  0.49379531  1
  In  In82  1  0.33108233  0.66560498  0.74509151  1
  In  In83  1  0.51012443  0.50665386  -0.00895634  1
  In  In84  1  0.49830226  0.83102770  0.49915250  1
  In  In85  1  0.49863970  0.17028882  0.49428157  1
  Cu  Cu86  1  0.16350606  0.83131345  0.25546275  1
  Cu  Cu87  1  -0.00101658  0.34260911  0.00234781  1
  Cu  Cu88  1  0.84400599  0.16619032  0.75386598  1
  Cu  Cu89  1  0.50040187  0.83814580  0.25392706  1
  Cu  Cu90  1  -0.00535669  0.67204670  -0.00068290  1
  Cu  Cu91  1  0.32393882  -0.00628970  -0.00030915  1
  Cu  Cu92  1  0.84291808  0.82999218  0.24695801  1
  Cu  Cu93  1  0.67810245  0.66316922  0.49684778  1
  Cu  Cu94  1  0.32097367  0.66934236  0.00351323  1
  Cu  Cu95  1  0.67577817  -0.00306136  0.01277407  1
  Cu  Cu96  1  0.66932327  -0.00562738  0.49573019  1
  Cu  Cu97  1  0.33247999  0.32886069  -0.01285672  1
  Cu  Cu98  1  0.33402312  0.67066859  0.50362369  1
  Cu  Cu99  1  0.48782792  0.15564669  0.74338278  1
  Cu  Cu100  1  0.67143295  0.34462878  0.48957243  1
  Cu  Cu101  1  0.83945041  0.16383307  0.25496082  1
  Cu  Cu102  1  0.68049769  0.33341396  0.00674736  1
  Cu  Cu103  1  0.67670878  0.66401139  0.00199717  1
  Cu  Cu104  1  0.16060087  0.83617608  0.74597422  1
  Cu  Cu105  1  -0.00368000  -0.00220294  -0.00210960  1
  Cu  Cu106  1  0.16495580  0.49992562  0.74120352  1
  Cu  Cu107  1  -0.00625326  0.66953041  0.49947197  1
  Cu  Cu108  1  0.83666199  0.83323435  0.75014440  1
  Cu  Cu109  1  0.83457776  0.50782727  0.74453134  1
  Cu  Cu110  1  0.49922210  0.49609563  0.74174601  1
  Cu  Cu111  1  0.00328916  -0.00910341  0.49635943  1
  Cu  Cu112  1  0.50125098  0.50637225  0.25228980  1
  Cu  Cu113  1  0.33255350  0.33209123  0.50061650  1
  Cu  Cu114  1  0.17329195  0.16645207  0.74302439  1
  Se  Se115  1  0.07293492  0.07180898  0.06648106  1
  Se  Se116  1  0.08069296  0.07977134  0.54961631  1
  Se  Se117  1  0.07033011  0.41781737  0.07029482  1
  Se  Se118  1  0.09223914  0.43363893  0.55652465  1
  Se  Se119  1  0.08259635  0.75218509  0.05112202  1
  Se  Se120  1  0.08200944  0.75136148  0.55010457  1
  Se  Se121  1  0.40865745  0.07518785  0.05624163  1
  Se  Se122  1  0.41041810  0.08103123  0.55436720  1
  Se  Se123  1  0.41067135  0.41441879  0.04512093  1
  Se  Se124  1  0.42141589  0.41629801  0.54828032  1
  Se  Se125  1  0.41119853  0.74424735  0.06029960  1
  Se  Se126  1  0.41085704  0.74811238  0.56657897  1
  Se  Se127  1  0.75569700  0.08730027  0.06110129  1
  Se  Se128  1  0.74685251  0.07887513  0.55451284  1
  Se  Se129  1  0.75737450  0.42388098  0.05866102  1
  Se  Se130  1  0.76043962  0.42178970  0.54204906  1
  Se  Se131  1  0.75240063  0.75590945  0.05246684  1
  Se  Se132  1  0.75067229  0.75111311  0.55423743  1
  Se  Se133  1  0.25870449  0.25764433  0.05689462  1
  Se  Se134  1  0.24578858  0.25298562  0.55357834  1
  Se  Se135  1  0.25035772  0.59112384  0.07001168  1
  Se  Se136  1  0.24896866  0.58329890  0.55106437  1
  Se  Se137  1  0.24088518  0.91704952  0.05664725  1
  Se  Se138  1  0.25317121  0.91663337  0.54500190  1
  Se  Se139  1  0.59564803  0.25735477  0.06568664  1
  Se  Se140  1  0.59609929  0.26210084  0.55220487  1
  Se  Se141  1  0.59647439  0.58207137  0.06162144  1
  Se  Se142  1  0.58626466  0.58781701  0.55010086  1
  Se  Se143  1  0.58923846  0.92334552  0.07194644  1
  Se  Se144  1  0.58790737  0.92387436  0.56047928  1
  Se  Se145  1  0.92022630  0.24741458  0.04901944  1
  Se  Se146  1  0.92105547  0.24739886  0.56892532  1
  Se  Se147  1  0.92134921  0.58375343  0.05687687  1
  Se  Se148  1  0.91396796  0.58520111  0.55529233  1
  Se  Se149  1  0.91405140  0.91525591  0.05387874  1
  Se  Se150  1  0.91415993  0.91439601  0.55001417  1
  Se  Se151  1  0.07537539  0.24215242  0.46083633  1
  Se  Se152  1  0.08180888  0.26290766  0.94271914  1
  Se  Se153  1  0.07846454  0.58479949  0.44785328  1
  Se  Se154  1  0.07689693  0.59056749  0.93900418  1
  Se  Se155  1  0.08541279  0.90816648  0.44162407  1
  Se  Se156  1  0.08092144  0.91714946  0.94373119  1
  Se  Se157  1  0.40692130  0.25590597  0.43379374  1
  Se  Se158  1  0.41734667  0.24929792  0.93215720  1
  Se  Se159  1  0.42120425  0.58621404  0.45495187  1
  Se  Se160  1  0.39915584  0.59032047  0.94128207  1
  Se  Se161  1  0.41547344  0.92951867  0.44260402  1
  Se  Se162  1  0.41152384  0.91902310  0.94193729  1
  Se  Se163  1  0.74235819  0.25379421  0.43211779  1
  Se  Se164  1  0.75654212  0.24583117  0.95106829  1
  Se  Se165  1  0.75574264  0.58132681  0.43854217  1
  Se  Se166  1  0.75481801  0.58081384  0.94395561  1
  Se  Se167  1  0.75461722  0.91071569  0.44639892  1
  Se  Se168  1  0.75181560  0.91414296  0.95308888  1
  Se  Se169  1  0.24384851  0.07548795  0.44491326  1
  Se  Se170  1  0.24822130  0.07900773  0.94063484  1
  Se  Se171  1  0.24734777  0.42063629  0.45427006  1
  Se  Se172  1  0.24748107  0.41571229  0.93808203  1
  Se  Se173  1  0.24820912  0.74664884  0.44756244  1
  Se  Se174  1  0.24119852  0.75658941  0.95255938  1
  Se  Se175  1  0.59350511  0.07901249  0.43826185  1
  Se  Se176  1  0.59639753  0.07265381  0.94750525  1
  Se  Se177  1  0.58411918  0.42599326  0.43942514  1
  Se  Se178  1  0.59891235  0.40368088  0.93883939  1
  Se  Se179  1  0.59535616  0.74700786  0.43950594  1
  Se  Se180  1  0.58787581  0.73677193  0.94125228  1
  Se  Se181  1  0.92031132  0.07276357  0.43675943  1
  Se  Se182  1  0.91839470  0.08704252  0.94555670  1
  Se  Se183  1  0.92932421  0.40128365  0.45007736  1
  Se  Se184  1  0.91654451  0.42536289  0.94775060  1
  Se  Se185  1  0.91270632  0.75076554  0.44174620  1
  Se  Se186  1  0.91383170  0.75428952  0.94285707  1
  Se  Se187  1  0.23217377  0.25410387  0.31990923  1
  Se  Se188  1  0.25641907  0.25271982  0.79586898  1
  Se  Se189  1  0.24580033  0.57716374  0.31343803  1
  Se  Se190  1  0.23996036  0.57744875  0.80928463  1
  Se  Se191  1  0.24945059  0.91734967  0.30238647  1
  Se  Se192  1  0.24846285  0.91644198  0.79807992  1
  Se  Se193  1  0.57049510  0.25022299  0.29460982  1
  Se  Se194  1  0.57341898  0.23499171  0.80253106  1
  Se  Se195  1  0.58466087  0.59191833  0.30215174  1
  Se  Se196  1  0.58067039  0.57742992  0.79711398  1
  Se  Se197  1  0.58823465  0.92148094  0.30327124  1
  Se  Se198  1  0.57679858  0.90639275  0.81591581  1
  Se  Se199  1  0.91347107  0.24261696  0.32017362  1
  Se  Se200  1  0.92047677  0.25469113  0.80818791  1
  Se  Se201  1  0.91419309  0.56826553  0.30122954  1
  Se  Se202  1  0.91742535  0.58741044  0.80238715  1
  Se  Se203  1  0.92114976  0.91657988  0.30096065  1
  Se  Se204  1  0.91541091  0.92081101  0.80329456  1
  Se  Se205  1  0.07135055  0.07085160  0.29972344  1
  Se  Se206  1  0.08852239  0.08993761  0.80229031  1
  Se  Se207  1  0.09028297  0.42209338  0.31659682  1
  Se  Se208  1  0.08266419  0.41787577  0.79878942  1
  Se  Se209  1  0.07979433  0.74350334  0.30203791  1
  Se  Se210  1  0.07965015  0.75214466  0.80069909  1
  Se  Se211  1  0.42262645  0.10048493  0.30309140  1
  Se  Se212  1  0.40970734  0.07098873  0.79896148  1
  Se  Se213  1  0.41748215  0.42859673  0.31225803  1
  Se  Se214  1  0.41450362  0.41007720  0.79075010  1
  Se  Se215  1  0.42378558  0.76616824  0.32271198  1
  Se  Se216  1  0.41536494  0.75247079  0.81262905  1
  Se  Se217  1  0.74960170  0.08010441  0.30206378  1
  Se  Se218  1  0.75521022  0.08860789  0.81123045  1
  Se  Se219  1  0.74023124  0.40663991  0.29909695  1
  Se  Se220  1  0.75855990  0.42173769  0.80726564  1
  Se  Se221  1  0.75716151  0.74899335  0.30096394  1
  Se  Se222  1  0.75085610  0.75018378  0.80172827  1
  Se  Se223  1  0.24746311  0.08706972  0.20853156  1
  Se  Se224  1  0.24896142  0.07568059  0.68997490  1
  Se  Se225  1  0.24441220  0.42018864  0.20122714  1
  Se  Se226  1  0.25106164  0.41450705  0.69388918  1
  Se  Se227  1  0.24611772  0.75235404  0.19189880  1
  Se  Se228  1  0.23880556  0.75201277  0.68538713  1
  Se  Se229  1  0.57277811  0.09499348  0.20465854  1
  Se  Se230  1  0.57826504  0.08389606  0.68615048  1
  Se  Se231  1  0.58146071  0.41813227  0.20116426  1
  Se  Se232  1  0.58463858  0.42131327  0.67958947  1
  Se  Se233  1  0.57902003  0.75065836  0.20150182  1
  Se  Se234  1  0.57898374  0.75335078  0.70402467  1
  Se  Se235  1  0.92001791  0.08157736  0.19905403  1
  Se  Se236  1  0.92205987  0.07839244  0.70122561  1
  Se  Se237  1  0.91283250  0.41214179  0.19132351  1
  Se  Se238  1  0.91609033  0.41948177  0.69527183  1
  Se  Se239  1  0.92244516  0.74566244  0.19112406  1
  Se  Se240  1  0.91950611  0.75177326  0.69417059  1
  Se  Se241  1  0.09255802  0.23886901  0.19668969  1
  Se  Se242  1  0.08586686  0.25027992  0.69452944  1
  Se  Se243  1  0.10201019  0.56767624  0.20642272  1
  Se  Se244  1  0.07873945  0.58805133  0.69779865  1
  Se  Se245  1  0.08295371  0.91186293  0.19646554  1
  Se  Se246  1  0.08187917  0.91910200  0.68813455  1
  Se  Se247  1  0.41772344  0.25172632  0.18000787  1
  Se  Se248  1  0.41265009  0.24612656  0.69085617  1
  Se  Se249  1  0.41647347  0.58093506  0.19218204  1
  Se  Se250  1  0.41806060  0.57594849  0.68159240  1
  Se  Se251  1  0.41283173  0.91690362  0.20161698  1
  Se  Se252  1  0.42637758  0.89787067  0.70076675  1
  Se  Se253  1  0.75972975  0.25090174  0.20037092  1
  Se  Se254  1  0.76192004  0.24305957  0.69249986  1
  Se  Se255  1  0.73721239  0.60634692  0.19393231  1
  Se  Se256  1  0.74595373  0.58741103  0.69363480  1
  Se  Se257  1  0.75492820  0.91540504  0.19816538  1
  Se  Se258  1  0.75669739  0.91279650  0.68640210  1
