# generated using pymatgen
data_In86Cu29Se144
_symmetry_space_group_name_H-M   'P 1'
_cell_length_a   17.57856422
_cell_length_b   17.58157079
_cell_length_c   23.43765183
_cell_angle_alpha   90.02218525
_cell_angle_beta   90.01090851
_cell_angle_gamma   90.00973851
_symmetry_Int_Tables_number   1
_chemical_formula_structural   In86Cu29Se144
_chemical_formula_sum   'In86 Cu29 Se144'
_cell_volume   7243.61109419
_cell_formula_units_Z   1
loop_
 _symmetry_equiv_pos_site_id
 _symmetry_equiv_pos_as_xyz
  1  'x, y, z'
loop_
 _atom_site_type_symbol
 _atom_site_label
 _atom_site_symmetry_multiplicity
 _atom_site_fract_x
 _atom_site_fract_y
 _atom_site_fract_z
 _atom_site_occupancy
  In  In0  1  -0.01656852  0.15853885  0.12238583  1
  In  In1  1  0.00627436  0.15284474  0.63291228  1
  In  In2  1  0.00673116  0.50342309  0.12443631  1
  In  In3  1  0.00889124  0.50894710  0.61643553  1
  In  In4  1  0.00252566  0.84405227  0.11684329  1
  In  In5  1  0.01098648  0.82679234  0.63319174  1
  In  In6  1  0.34748687  0.16972847  0.13472004  1
  In  In7  1  0.33651986  0.17141663  0.60993595  1
  In  In8  1  0.34772569  0.48843256  0.13666592  1
  In  In9  1  0.33610420  0.50204896  0.62320156  1
  In  In10  1  0.31891086  0.83165319  0.12483964  1
  In  In11  1  0.32705129  0.82983046  0.61865660  1
  In  In12  1  0.67602301  0.15102220  0.15129929  1
  In  In13  1  0.65219989  0.17302357  0.62172704  1
  In  In14  1  0.65377437  0.51703189  0.13305758  1
  In  In15  1  0.67402328  0.50269834  0.60921413  1
  In  In16  1  0.67581665  0.82436732  0.13683143  1
  In  In17  1  0.64804908  0.82780139  0.62266791  1
  In  In18  1  0.16636982  0.00255822  0.38459624  1
  In  In19  1  0.14083480  -0.00414271  0.86326429  1
  In  In20  1  0.17391517  0.32195041  0.38580925  1
  In  In21  1  0.18100213  0.31758402  0.86389320  1
  In  In22  1  0.17857930  0.65444653  0.38633054  1
  In  In23  1  0.17336476  0.67687366  0.86641170  1
  In  In24  1  0.49615575  -0.01055174  0.38979795  1
  In  In25  1  0.50995613  -0.00282223  0.87188003  1
  In  In26  1  0.50843080  0.34148045  0.37656503  1
  In  In27  1  0.50494959  0.34110314  0.87279864  1
  In  In28  1  0.49756394  0.66638821  0.37933878  1
  In  In29  1  0.48324259  0.65484241  0.86255598  1
  In  In30  1  0.83638453  -0.01321710  0.35825783  1
  In  In31  1  0.86655810  -0.03086225  0.90872206  1
  In  In32  1  0.82729811  0.34728301  0.37901983  1
  In  In33  1  0.81943409  0.32936480  0.87962999  1
  In  In34  1  0.81311750  0.66864921  0.36936026  1
  In  In35  1  0.84340121  0.67405407  0.86503180  1
  In  In36  1  0.01126490  0.15427169  0.37589358  1
  In  In37  1  -0.00347037  0.13478136  0.86931766  1
  In  In38  1  0.00237722  0.49663983  0.38767914  1
  In  In39  1  -0.01212757  0.50750391  0.86914282  1
  In  In40  1  -0.00034666  0.84442221  0.36945748  1
  In  In41  1  0.00470545  0.83197546  0.87430512  1
  In  In42  1  0.32377972  0.16830605  0.38441716  1
  In  In43  1  0.32057333  0.17155925  0.86430896  1
  In  In44  1  0.33838282  0.50041773  0.37939831  1
  In  In45  1  0.33646436  0.50270798  0.86663035  1
  In  In46  1  0.34254688  0.82585511  0.38892134  1
  In  In47  1  0.33098752  0.81289974  0.87401927  1
  In  In48  1  0.65256300  0.15768842  0.36468313  1
  In  In49  1  0.67070078  0.17381365  0.87757088  1
  In  In50  1  0.66020203  0.50208936  0.37889411  1
  In  In51  1  0.65077390  0.49468372  0.87647988  1
  In  In52  1  0.66045809  0.82381422  0.36306177  1
  In  In53  1  0.67512583  0.83856615  0.87221760  1
  In  In54  1  0.16311919  -0.01451240  0.12034966  1
  In  In55  1  0.16913491  -0.00607096  0.61301784  1
  In  In56  1  0.17902247  0.33678779  0.13322520  1
  In  In57  1  0.17754027  0.34454542  0.61853082  1
  In  In58  1  0.16431908  0.67768957  0.12722099  1
  In  In59  1  0.16906420  0.66929505  0.62403808  1
  In  In60  1  0.51507176  0.00683181  0.13451737  1
  In  In61  1  0.47495379  -0.01110346  0.59504453  1
  In  In62  1  0.49229003  0.33714954  0.13941453  1
  In  In63  1  0.49827890  0.32328396  0.60725067  1
  In  In64  1  0.50901945  0.66042132  0.13101648  1
  In  In65  1  0.50387541  0.66782845  0.62691725  1
  In  In66  1  0.82794016  -0.00193702  0.13040168  1
  In  In67  1  0.84665960  0.00672724  0.63162539  1
  In  In68  1  0.83214088  0.31962618  0.12717058  1
  In  In69  1  0.81370883  0.33285902  0.61982995  1
  In  In70  1  0.81726034  0.66781795  0.12496636  1
  In  In71  1  0.83795876  0.66704401  0.62962817  1
  In  In72  1  0.49980757  0.17245449  0.01230215  1
  In  In73  1  0.49962067  0.82857601  -0.00267703  1
  In  In74  1  0.67029243  0.00341674  0.74865827  1
  In  In75  1  0.83710267  0.82977294  0.49019305  1
  In  In76  1  0.82545911  0.50443488  0.00159341  1
  In  In77  1  0.32983272  -0.00028183  0.73454077  1
  In  In78  1  0.17146251  0.50392229  -0.00239700  1
  In  In79  1  0.16423878  0.16245472  -0.00212810  1
  In  In80  1  -0.00042999  0.66754033  0.24736839  1
  In  In81  1  0.66268825  0.33549657  0.74654703  1
  In  In82  1  0.00079585  0.34152482  0.74754418  1
  In  In83  1  0.00113863  0.32817201  0.24858752  1
  In  In84  1  0.83392573  0.16656104  0.49974546  1
  In  In85  1  0.33447849  -0.00354781  0.25450544  1
  Cu  Cu86  1  0.33198261  0.34187580  0.49648197  1
  Cu  Cu87  1  0.49720182  0.49890578  0.74442816  1
  Cu  Cu88  1  0.16809545  0.50777832  0.74318520  1
  Cu  Cu89  1  0.16535791  0.83821136  0.74513440  1
  Cu  Cu90  1  0.66233745  0.33217622  0.00674778  1
  Cu  Cu91  1  0.66182419  0.66906492  0.49561394  1
  Cu  Cu92  1  0.67013501  0.00596602  0.01126191  1
  Cu  Cu93  1  0.83938185  0.15844081  0.75762477  1
  Cu  Cu94  1  0.50139223  0.50731262  0.25770998  1
  Cu  Cu95  1  0.66806486  0.00129340  0.49754743  1
  Cu  Cu96  1  0.18035581  0.49357306  0.26147308  1
  Cu  Cu97  1  0.00014424  0.67814189  -0.00387708  1
  Cu  Cu98  1  0.33462373  0.66389656  0.50476662  1
  Cu  Cu99  1  0.49254994  0.16132893  0.73596056  1
  Cu  Cu100  1  0.83478517  0.83828603  0.75367510  1
  Cu  Cu101  1  0.33635862  0.65603656  -0.00254673  1
  Cu  Cu102  1  0.49853542  0.83242133  0.25784281  1
  Cu  Cu103  1  0.00322716  -0.00547685  0.50001111  1
  Cu  Cu104  1  0.83242062  0.50785503  0.74150827  1
  Cu  Cu105  1  0.00229848  0.66937383  0.50524358  1
  Cu  Cu106  1  0.82817275  0.50251339  0.25319326  1
  Cu  Cu107  1  0.34340302  0.33623149  0.00423026  1
  Cu  Cu108  1  -0.00133956  0.32943758  0.50136215  1
  Cu  Cu109  1  0.83353498  0.16560961  0.25366968  1
  Cu  Cu110  1  0.16488643  0.15664304  0.25656640  1
  Cu  Cu111  1  0.66280082  0.67098016  -0.00019541  1
  Cu  Cu112  1  0.32777228  -0.00455064  -0.00067978  1
  Cu  Cu113  1  0.00168791  0.32561860  -0.00123877  1
  Cu  Cu114  1  0.16885539  0.82884007  0.25054197  1
  Se  Se115  1  0.07314628  0.07345642  0.05594427  1
  Se  Se116  1  0.08040584  0.08419272  0.55250528  1
  Se  Se117  1  0.08188125  0.40498620  0.05799802  1
  Se  Se118  1  0.08313374  0.41615891  0.55102569  1
  Se  Se119  1  0.08628225  0.75303773  0.05320341  1
  Se  Se120  1  0.08583581  0.75483826  0.55492385  1
  Se  Se121  1  0.40901641  0.06906277  0.06176730  1
  Se  Se122  1  0.44489978  0.11513673  0.54687774  1
  Se  Se123  1  0.42511173  0.41723949  0.05859262  1
  Se  Se124  1  0.41696582  0.42151547  0.55095702  1
  Se  Se125  1  0.41007304  0.74121360  0.06041207  1
  Se  Se126  1  0.41920587  0.74872663  0.55610018  1
  Se  Se127  1  0.74753195  0.09316812  0.06469133  1
  Se  Se128  1  0.74544593  0.07450755  0.56288677  1
  Se  Se129  1  0.74255577  0.41606478  0.06681980  1
  Se  Se130  1  0.74622231  0.40868705  0.54284671  1
  Se  Se131  1  0.74521452  0.75386369  0.05292488  1
  Se  Se132  1  0.74636480  0.74813214  0.55560834  1
  Se  Se133  1  0.26020264  0.25179443  0.05933466  1
  Se  Se134  1  0.24736946  0.25539526  0.54663854  1
  Se  Se135  1  0.25787588  0.58410177  0.06647777  1
  Se  Se136  1  0.24730243  0.58170578  0.55565268  1
  Se  Se137  1  0.24497004  0.90814200  0.04783595  1
  Se  Se138  1  0.27343600  0.93251365  0.54877602  1
  Se  Se139  1  0.59126251  0.25467470  0.07440875  1
  Se  Se140  1  0.60664574  0.26534090  0.54581965  1
  Se  Se141  1  0.58045429  0.58555283  0.05115518  1
  Se  Se142  1  0.58005555  0.58683779  0.55083668  1
  Se  Se143  1  0.58569593  0.91839970  0.06061187  1
  Se  Se144  1  0.58415053  0.91301557  0.54627860  1
  Se  Se145  1  0.91387410  0.24853877  0.05195507  1
  Se  Se146  1  0.92293601  0.25090437  0.56617151  1
  Se  Se147  1  0.92469535  0.59347105  0.05757584  1
  Se  Se148  1  0.91332888  0.58772843  0.55444845  1
  Se  Se149  1  0.90781658  0.92178211  0.05623629  1
  Se  Se150  1  0.92136581  0.91614255  0.55981631  1
  Se  Se151  1  0.07832680  0.24348322  0.44777111  1
  Se  Se152  1  0.07959727  0.25257737  0.93322638  1
  Se  Se153  1  0.08512244  0.58160821  0.45322923  1
  Se  Se154  1  0.07547791  0.59024234  0.93855323  1
  Se  Se155  1  0.08319642  0.90869716  0.44658883  1
  Se  Se156  1  0.07675776  0.92329021  0.94370662  1
  Se  Se157  1  0.41332200  0.26053995  0.44066783  1
  Se  Se158  1  0.41311841  0.25085377  0.93930858  1
  Se  Se159  1  0.41886959  0.58293546  0.45039016  1
  Se  Se160  1  0.41808211  0.57468192  0.94264731  1
  Se  Se161  1  0.39646398  0.92835846  0.45893298  1
  Se  Se162  1  0.41064126  0.92224385  0.93705012  1
  Se  Se163  1  0.74591198  0.24517528  0.43392828  1
  Se  Se164  1  0.74629219  0.24943798  0.95423844  1
  Se  Se165  1  0.75020655  0.58572974  0.44637282  1
  Se  Se166  1  0.74236423  0.59098389  0.93547504  1
  Se  Se167  1  0.74462939  0.92229340  0.43575292  1
  Se  Se168  1  0.74052420  0.91770399  0.95150990  1
  Se  Se169  1  0.24039648  0.08886831  0.45322747  1
  Se  Se170  1  0.25453531  0.07575857  0.93547503  1
  Se  Se171  1  0.24360395  0.42420321  0.44582256  1
  Se  Se172  1  0.25700089  0.40524576  0.94065940  1
  Se  Se173  1  0.24892152  0.74918931  0.45366963  1
  Se  Se174  1  0.24949503  0.74125808  0.94917679  1
  Se  Se175  1  0.58359681  0.08475538  0.44650418  1
  Se  Se176  1  0.58807258  0.08058463  0.94794131  1
  Se  Se177  1  0.57152617  0.43287970  0.45028034  1
  Se  Se178  1  0.58019431  0.41255509  0.95159321  1
  Se  Se179  1  0.58290806  0.75703032  0.44311730  1
  Se  Se180  1  0.58386190  0.74169613  0.93203431  1
  Se  Se181  1  0.91494804  0.06734787  0.44009382  1
  Se  Se182  1  0.90004802  0.10233460  0.94612547  1
  Se  Se183  1  0.91410798  0.41522042  0.45247807  1
  Se  Se184  1  0.92076814  0.41168860  0.94318230  1
  Se  Se185  1  0.92676632  0.73661122  0.43282397  1
  Se  Se186  1  0.91153265  0.75433567  0.94253368  1
  Se  Se187  1  0.24415745  0.24406026  0.30753373  1
  Se  Se188  1  0.26992659  0.26206648  0.78764797  1
  Se  Se189  1  0.25817303  0.58668309  0.30818256  1
  Se  Se190  1  0.25212639  0.58720685  0.80124446  1
  Se  Se191  1  0.24662939  0.90654544  0.31506594  1
  Se  Se192  1  0.24808990  0.91484595  0.80841664  1
  Se  Se193  1  0.59069249  0.26290818  0.30468324  1
  Se  Se194  1  0.57277504  0.23661535  0.80273849  1
  Se  Se195  1  0.58611664  0.59172084  0.30841107  1
  Se  Se196  1  0.58186233  0.57704169  0.80159966  1
  Se  Se197  1  0.57529529  0.92248466  0.30937316  1
  Se  Se198  1  0.57628940  0.90547150  0.80049873  1
  Se  Se199  1  0.91434059  0.24411985  0.31622952  1
  Se  Se200  1  0.91341842  0.25146500  0.81270571  1
  Se  Se201  1  0.91617522  0.57508207  0.31219117  1
  Se  Se202  1  0.92013679  0.58878728  0.79331192  1
  Se  Se203  1  0.92035369  0.90780343  0.29134554  1
  Se  Se204  1  0.91514631  0.92002623  0.81110583  1
  Se  Se205  1  0.08345406  0.06818941  0.30414384  1
  Se  Se206  1  0.11162681  0.11568819  0.80395742  1
  Se  Se207  1  0.08750272  0.41671066  0.31277507  1
  Se  Se208  1  0.09385504  0.42808685  0.81086746  1
  Se  Se209  1  0.09251386  0.74619023  0.31284159  1
  Se  Se210  1  0.08298198  0.75352585  0.79976297  1
  Se  Se211  1  0.41617686  0.08310321  0.31965169  1
  Se  Se212  1  0.42177132  0.08392520  0.80470977  1
  Se  Se213  1  0.41827797  0.42004101  0.30746020  1
  Se  Se214  1  0.41958848  0.41364966  0.80180655  1
  Se  Se215  1  0.41318973  0.75075279  0.30996675  1
  Se  Se216  1  0.41546306  0.75325632  0.79843482  1
  Se  Se217  1  0.74886612  0.07914926  0.30243810  1
  Se  Se218  1  0.75685629  0.08166863  0.81761061  1
  Se  Se219  1  0.74471799  0.42115568  0.30665759  1
  Se  Se220  1  0.75668422  0.42717321  0.80589618  1
  Se  Se221  1  0.76683202  0.76904871  0.29871679  1
  Se  Se222  1  0.74945268  0.75195746  0.80167640  1
  Se  Se223  1  0.24337197  0.08224682  0.18839703  1
  Se  Se224  1  0.24334723  0.09525694  0.68056720  1
  Se  Se225  1  0.26024130  0.40959131  0.20594215  1
  Se  Se226  1  0.25180151  0.42168290  0.69486276  1
  Se  Se227  1  0.25384059  0.74474091  0.20016385  1
  Se  Se228  1  0.24980986  0.75439597  0.69404480  1
  Se  Se229  1  0.55454975  0.10948834  0.20532066  1
  Se  Se230  1  0.57250654  0.07548299  0.68204841  1
  Se  Se231  1  0.58232363  0.42424768  0.20058438  1
  Se  Se232  1  0.57799673  0.42104283  0.68171544  1
  Se  Se233  1  0.58112583  0.75021048  0.20106308  1
  Se  Se234  1  0.59526947  0.73785091  0.69823480  1
  Se  Se235  1  0.91545385  0.08065397  0.19998445  1
  Se  Se236  1  0.92744672  0.07608397  0.70817758  1
  Se  Se237  1  0.91118984  0.42635525  0.19159840  1
  Se  Se238  1  0.90616987  0.42101154  0.68304739  1
  Se  Se239  1  0.91425309  0.75300916  0.18321496  1
  Se  Se240  1  0.91622029  0.75425572  0.69789687  1
  Se  Se241  1  0.09071955  0.23596701  0.18815180  1
  Se  Se242  1  0.09011635  0.25450965  0.68749491  1
  Se  Se243  1  0.09958348  0.57001547  0.19737996  1
  Se  Se244  1  0.08059052  0.58841626  0.69308116  1
  Se  Se245  1  0.08616206  0.91012127  0.19593390  1
  Se  Se246  1  0.08709358  0.92715279  0.69242529  1
  Se  Se247  1  0.41085599  0.25442676  0.20824743  1
  Se  Se248  1  0.41785757  0.25185221  0.68403888  1
  Se  Se249  1  0.41782135  0.58756762  0.20003919  1
  Se  Se250  1  0.41544880  0.58584087  0.69391700  1
  Se  Se251  1  0.42310509  0.90686094  0.18898607  1
  Se  Se252  1  0.42799372  0.91069122  0.68436299  1
  Se  Se253  1  0.75211682  0.25673219  0.20592206  1
  Se  Se254  1  0.75582508  0.23397012  0.69624077  1
  Se  Se255  1  0.74672027  0.58968414  0.20183963  1
  Se  Se256  1  0.74266497  0.58283528  0.68817349  1
  Se  Se257  1  0.71855455  0.94246802  0.19276648  1
  Se  Se258  1  0.75708693  0.90944821  0.68579611  1
