# generated using pymatgen
data_In86Cu29Se144
_symmetry_space_group_name_H-M   'P 1'
_cell_length_a   17.57980218
_cell_length_b   17.58229618
_cell_length_c   23.43383679
_cell_angle_alpha   89.98676217
_cell_angle_beta   90.01029833
_cell_angle_gamma   90.04127137
_symmetry_Int_Tables_number   1
_chemical_formula_structural   In86Cu29Se144
_chemical_formula_sum   'In86 Cu29 Se144'
_cell_volume   7243.23949069
_cell_formula_units_Z   1
loop_
 _symmetry_equiv_pos_site_id
 _symmetry_equiv_pos_as_xyz
  1  'x, y, z'
loop_
 _atom_site_type_symbol
 _atom_site_label
 _atom_site_symmetry_multiplicity
 _atom_site_fract_x
 _atom_site_fract_y
 _atom_site_fract_z
 _atom_site_occupancy
  In  In0  1  0.00349764  0.16778083  0.12055408  1
  In  In1  1  0.00212938  0.15635413  0.61842813  1
  In  In2  1  -0.00101658  0.50546302  0.13049598  1
  In  In3  1  0.00395361  0.48906525  0.61969564  1
  In  In4  1  -0.02235751  0.85048987  0.14447879  1
  In  In5  1  -0.00104490  0.83946383  0.61801928  1
  In  In6  1  0.32699959  0.16904975  0.12154610  1
  In  In7  1  0.33332654  0.17267222  0.62503811  1
  In  In8  1  0.32576880  0.49372569  0.11814743  1
  In  In9  1  0.33490723  0.49734016  0.62012787  1
  In  In10  1  0.34560490  0.84025467  0.12996950  1
  In  In11  1  0.33753847  0.81366547  0.62756604  1
  In  In12  1  0.67531688  0.16956311  0.11689973  1
  In  In13  1  0.65835067  0.18001576  0.62418463  1
  In  In14  1  0.66713844  0.50222403  0.12462979  1
  In  In15  1  0.66901735  0.51535725  0.62608939  1
  In  In16  1  0.67473586  0.81936121  0.13312639  1
  In  In17  1  0.66122646  0.82861699  0.61550799  1
  In  In18  1  0.17376114  0.00685156  0.36672704  1
  In  In19  1  0.16793876  0.01179400  0.88199488  1
  In  In20  1  0.16087295  0.33744041  0.37772661  1
  In  In21  1  0.17953478  0.32404611  0.87937293  1
  In  In22  1  0.15584436  0.66128003  0.37471423  1
  In  In23  1  0.16933489  0.65029787  0.87615757  1
  In  In24  1  0.48997458  0.01181086  0.37964912  1
  In  In25  1  0.51179133  0.00077621  0.88103450  1
  In  In26  1  0.50063088  0.32962040  0.37642844  1
  In  In27  1  0.49462462  0.34024133  0.88002482  1
  In  In28  1  0.51006008  0.65843200  0.38053841  1
  In  In29  1  0.49339608  0.65378367  0.86566445  1
  In  In30  1  0.83427921  -0.01594495  0.36792222  1
  In  In31  1  0.83714818  -0.00752715  0.90164076  1
  In  In32  1  0.83234829  0.33392924  0.36115601  1
  In  In33  1  0.84157809  0.32897351  0.89039628  1
  In  In34  1  0.83276608  0.67966781  0.36253534  1
  In  In35  1  0.82069001  0.67405595  0.88257928  1
  In  In36  1  0.00761435  0.17712191  0.36293609  1
  In  In37  1  0.00197691  0.16012297  0.89305726  1
  In  In38  1  0.00976964  0.50225434  0.36149137  1
  In  In39  1  0.00903697  0.49403535  0.89014173  1
  In  In40  1  -0.01290725  0.82465491  0.35849905  1
  In  In41  1  -0.00959411  0.83025988  0.88221115  1
  In  In42  1  0.34131197  0.15398425  0.37793956  1
  In  In43  1  0.32305120  0.18463315  0.88017985  1
  In  In44  1  0.33204285  0.50300391  0.38171868  1
  In  In45  1  0.33666498  0.49400763  0.87251116  1
  In  In46  1  0.33273751  0.85051265  0.37692700  1
  In  In47  1  0.34734998  0.82737880  0.86967591  1
  In  In48  1  0.64874334  0.17056530  0.36594626  1
  In  In49  1  0.66663593  0.15781188  0.89592463  1
  In  In50  1  0.65982480  0.49267938  0.36452709  1
  In  In51  1  0.65765057  0.50815372  0.88193798  1
  In  In52  1  0.67818415  0.82397812  0.37701383  1
  In  In53  1  0.68782651  0.82209836  0.87668909  1
  In  In54  1  0.15271509  0.01711853  0.12914266  1
  In  In55  1  0.15916165  0.00538276  0.62064069  1
  In  In56  1  0.16108088  0.33189816  0.12391818  1
  In  In57  1  0.17254330  0.33917528  0.61687910  1
  In  In58  1  0.15617161  0.65109763  0.12368926  1
  In  In59  1  0.18098910  0.66523304  0.62445421  1
  In  In60  1  0.49104475  0.00866259  0.13102275  1
  In  In61  1  0.50627588  0.00427984  0.61600004  1
  In  In62  1  0.50360100  0.33836630  0.12238269  1
  In  In63  1  0.48532704  0.32030307  0.61559454  1
  In  In64  1  0.51198536  0.66788522  0.12732635  1
  In  In65  1  0.50262532  0.66261757  0.61935533  1
  In  In66  1  0.84240034  0.00952734  0.10995008  1
  In  In67  1  0.84298387  -0.00698889  0.62005438  1
  In  In68  1  0.83276600  0.33704547  0.12621079  1
  In  In69  1  0.82995360  0.33371642  0.62767115  1
  In  In70  1  0.83639424  0.67013635  0.12696942  1
  In  In71  1  0.81969944  0.67396131  0.63178422  1
  In  In72  1  0.32943898  0.33155638  0.24452372  1
  In  In73  1  0.82983029  0.16281824  0.49845571  1
  In  In74  1  0.67167755  0.00128207  0.24566900  1
  In  In75  1  0.33113443  0.67104914  0.25918663  1
  In  In76  1  0.65685044  0.34001110  0.75639168  1
  In  In77  1  0.33706081  -0.00037595  0.74525499  1
  In  In78  1  0.16705355  0.83282992  0.49718925  1
  In  In79  1  -0.00136551  0.66740988  0.75159773  1
  In  In80  1  0.66956554  -0.00699765  0.75435077  1
  In  In81  1  0.83297109  0.50214781  0.49884885  1
  In  In82  1  0.00585904  0.33108173  0.74778018  1
  In  In83  1  -0.00214486  -0.00052293  0.76815949  1
  In  In84  1  0.50842279  0.83475332  0.00194589  1
  In  In85  1  0.16051155  0.83356436  0.00240196  1
  Cu  Cu86  1  0.49981510  0.50399812  0.24676281  1
  Cu  Cu87  1  0.66508682  -0.00104969  0.49108656  1
  Cu  Cu88  1  0.00107123  -0.00241567  0.49198569  1
  Cu  Cu89  1  0.33660496  0.33725731  0.00064263  1
  Cu  Cu90  1  0.49432286  0.16948356  0.75395688  1
  Cu  Cu91  1  -0.00111009  0.33973637  0.00940562  1
  Cu  Cu92  1  0.16935320  0.83355298  0.74988993  1
  Cu  Cu93  1  0.16798484  0.16504992  0.24641143  1
  Cu  Cu94  1  0.17786759  0.49656372  0.74833090  1
  Cu  Cu95  1  0.83014297  0.50559900  0.76171902  1
  Cu  Cu96  1  0.33891336  0.66289670  0.50181082  1
  Cu  Cu97  1  0.50706227  0.81840841  0.74528152  1
  Cu  Cu98  1  0.33035044  0.33093035  0.49715930  1
  Cu  Cu99  1  0.33512142  0.65793528  -0.00341005  1
  Cu  Cu100  1  0.16968752  0.83401299  0.24984212  1
  Cu  Cu101  1  0.65548143  0.33479673  0.49241972  1
  Cu  Cu102  1  0.83218631  0.16064245  0.76078739  1
  Cu  Cu103  1  0.50625337  0.84237684  0.25209261  1
  Cu  Cu104  1  0.66874921  0.33672372  0.00399948  1
  Cu  Cu105  1  0.83000128  0.50363208  0.24409226  1
  Cu  Cu106  1  0.66891648  0.66825237  0.49822083  1
  Cu  Cu107  1  0.83624581  0.16429237  0.23903210  1
  Cu  Cu108  1  0.00699322  0.33241128  0.49140501  1
  Cu  Cu109  1  0.33576152  0.00172383  0.50143739  1
  Cu  Cu110  1  0.66798833  0.66166191  0.00392903  1
  Cu  Cu111  1  0.49586988  0.49944976  0.74483031  1
  Cu  Cu112  1  -0.00526639  0.66669084  0.00530651  1
  Cu  Cu113  1  0.32972758  0.00798285  0.00530058  1
  Cu  Cu114  1  -0.00645856  0.66220035  0.48880324  1
  Se  Se115  1  0.08743246  0.08994890  0.04905604  1
  Se  Se116  1  0.08366121  0.08175456  0.54477290  1
  Se  Se117  1  0.08372917  0.42469336  0.05907648  1
  Se  Se118  1  0.08616983  0.41818879  0.54674505  1
  Se  Se119  1  0.07198961  0.74998008  0.06606618  1
  Se  Se120  1  0.07664576  0.73768507  0.55579804  1
  Se  Se121  1  0.41796437  0.08866882  0.05547864  1
  Se  Se122  1  0.41542711  0.08775393  0.55638713  1
  Se  Se123  1  0.41990305  0.42089512  0.05335014  1
  Se  Se124  1  0.41614016  0.41545031  0.54900764  1
  Se  Se125  1  0.41096296  0.74225872  0.05714030  1
  Se  Se126  1  0.42129970  0.75083493  0.55074068  1
  Se  Se127  1  0.73822635  0.07249508  0.04894670  1
  Se  Se128  1  0.73805457  0.07571402  0.56192960  1
  Se  Se129  1  0.75179296  0.42122811  0.05583755  1
  Se  Se130  1  0.73937805  0.40731650  0.55680766  1
  Se  Se131  1  0.75039498  0.74852955  0.05436081  1
  Se  Se132  1  0.75556678  0.75019761  0.55061865  1
  Se  Se133  1  0.24922016  0.25679562  0.05391870  1
  Se  Se134  1  0.24850513  0.24599075  0.55168926  1
  Se  Se135  1  0.24690398  0.58348666  0.05202326  1
  Se  Se136  1  0.24944659  0.58107891  0.55080879  1
  Se  Se137  1  0.25379068  0.92156069  0.06289004  1
  Se  Se138  1  0.25849521  0.91814400  0.56308413  1
  Se  Se139  1  0.58323312  0.25237600  0.05385459  1
  Se  Se140  1  0.57840809  0.24651045  0.54737992  1
  Se  Se141  1  0.57898572  0.58137435  0.05391913  1
  Se  Se142  1  0.58715468  0.58057772  0.54923480  1
  Se  Se143  1  0.58622837  0.91692028  0.07318974  1
  Se  Se144  1  0.58291772  0.91696752  0.54851339  1
  Se  Se145  1  0.91421133  0.25260093  0.05681269  1
  Se  Se146  1  0.92264240  0.26014865  0.55590226  1
  Se  Se147  1  0.91300929  0.58066647  0.05768022  1
  Se  Se148  1  0.92062607  0.59232279  0.56289583  1
  Se  Se149  1  0.91811697  0.90647362  0.05389661  1
  Se  Se150  1  0.91735548  0.91409234  0.54476579  1
  Se  Se151  1  0.08647233  0.24111899  0.44381702  1
  Se  Se152  1  0.08006073  0.26172077  0.94776663  1
  Se  Se153  1  0.07912357  0.57526965  0.44441594  1
  Se  Se154  1  0.08585153  0.58810329  0.95411291  1
  Se  Se155  1  0.08010601  0.91571794  0.43161232  1
  Se  Se156  1  0.07264827  0.92804432  0.94368927  1
  Se  Se157  1  0.41523079  0.24889674  0.44357310  1
  Se  Se158  1  0.41908855  0.25074552  0.94855938  1
  Se  Se159  1  0.42179077  0.57991244  0.44789181  1
  Se  Se160  1  0.42009363  0.57796580  0.94274709  1
  Se  Se161  1  0.42009697  0.91825712  0.45004481  1
  Se  Se162  1  0.40676243  0.92274217  0.94566756  1
  Se  Se163  1  0.74509571  0.25689219  0.43794044  1
  Se  Se164  1  0.75245477  0.24884590  0.95483980  1
  Se  Se165  1  0.74619205  0.58793698  0.43463739  1
  Se  Se166  1  0.75177353  0.57839590  0.94979071  1
  Se  Se167  1  0.75406495  0.91570483  0.44554615  1
  Se  Se168  1  0.72355281  0.92444455  0.94898443  1
  Se  Se169  1  0.24950467  0.07887123  0.44590117  1
  Se  Se170  1  0.25004629  0.09224421  0.94991093  1
  Se  Se171  1  0.24756139  0.41664114  0.44559998  1
  Se  Se172  1  0.25144148  0.41913925  0.94529430  1
  Se  Se173  1  0.25896384  0.74132669  0.43804490  1
  Se  Se174  1  0.25766170  0.74700421  0.94063864  1
  Se  Se175  1  0.58363722  0.08978591  0.44490960  1
  Se  Se176  1  0.57415281  0.08063101  0.95871193  1
  Se  Se177  1  0.57766481  0.42435387  0.44174389  1
  Se  Se178  1  0.58333475  0.41639108  0.94828909  1
  Se  Se179  1  0.58508342  0.75262655  0.44570566  1
  Se  Se180  1  0.58600689  0.73783020  0.93864908  1
  Se  Se181  1  0.91997760  0.08076911  0.43404726  1
  Se  Se182  1  0.91116428  0.08994256  0.95993005  1
  Se  Se183  1  0.91871525  0.41084828  0.43712490  1
  Se  Se184  1  0.91440129  0.42290635  0.95591701  1
  Se  Se185  1  0.91530061  0.75095401  0.43890255  1
  Se  Se186  1  0.91104704  0.74929470  0.95154045  1
  Se  Se187  1  0.24688840  0.24207766  0.31085034  1
  Se  Se188  1  0.25169127  0.25341937  0.79995468  1
  Se  Se189  1  0.24014865  0.57143600  0.30691782  1
  Se  Se190  1  0.25619587  0.58267511  0.80325990  1
  Se  Se191  1  0.25482377  0.91930950  0.29938502  1
  Se  Se192  1  0.24496634  0.91443433  0.81251452  1
  Se  Se193  1  0.58872074  0.26963954  0.30023800  1
  Se  Se194  1  0.58206893  0.23813701  0.81661326  1
  Se  Se195  1  0.58306640  0.58795804  0.30008571  1
  Se  Se196  1  0.58485073  0.57609576  0.79958317  1
  Se  Se197  1  0.58450722  0.92027160  0.31544112  1
  Se  Se198  1  0.57675197  0.90059461  0.81110494  1
  Se  Se199  1  0.91623633  0.25009724  0.29543822  1
  Se  Se200  1  0.91706417  0.24370025  0.81296368  1
  Se  Se201  1  0.91178153  0.58144278  0.30415276  1
  Se  Se202  1  0.91930028  0.57748202  0.81903050  1
  Se  Se203  1  0.92273493  0.92438028  0.29375333  1
  Se  Se204  1  0.89705201  0.90942900  0.81442865  1
  Se  Se205  1  0.08257354  0.08131515  0.29915907  1
  Se  Se206  1  0.09097560  0.10100120  0.81009125  1
  Se  Se207  1  0.07219224  0.39638088  0.30186097  1
  Se  Se208  1  0.09079085  0.42397241  0.80910998  1
  Se  Se209  1  0.08847247  0.74779307  0.30144487  1
  Se  Se210  1  0.09037515  0.75698007  0.81394543  1
  Se  Se211  1  0.41980433  0.08477946  0.30091691  1
  Se  Se212  1  0.41998769  0.08454341  0.81449290  1
  Se  Se213  1  0.41688719  0.42574638  0.30611685  1
  Se  Se214  1  0.41970297  0.41290288  0.80148765  1
  Se  Se215  1  0.42658074  0.76078579  0.31448617  1
  Se  Se216  1  0.41552558  0.74190078  0.79653085  1
  Se  Se217  1  0.75926625  0.09409301  0.31004692  1
  Se  Se218  1  0.75469133  0.08122799  0.82010837  1
  Se  Se219  1  0.74706714  0.41664815  0.29584980  1
  Se  Se220  1  0.75729069  0.41591892  0.81791179  1
  Se  Se221  1  0.74716989  0.75771111  0.29467543  1
  Se  Se222  1  0.75139715  0.74100339  0.79962095  1
  Se  Se223  1  0.25393602  0.08319038  0.19438949  1
  Se  Se224  1  0.23941107  0.08784884  0.69311427  1
  Se  Se225  1  0.23734563  0.42758115  0.19445087  1
  Se  Se226  1  0.25434277  0.41275577  0.69105475  1
  Se  Se227  1  0.24763002  0.75336336  0.18762256  1
  Se  Se228  1  0.25070852  0.74539772  0.70117079  1
  Se  Se229  1  0.58204829  0.09650393  0.19272656  1
  Se  Se230  1  0.57873266  0.09050077  0.69631029  1
  Se  Se231  1  0.58239641  0.41973548  0.19433033  1
  Se  Se232  1  0.57590775  0.41904122  0.68294373  1
  Se  Se233  1  0.58209059  0.74999299  0.20276567  1
  Se  Se234  1  0.59096731  0.74176036  0.68869896  1
  Se  Se235  1  0.91981473  0.08109150  0.18827232  1
  Se  Se236  1  0.91125229  0.08701402  0.69566555  1
  Se  Se237  1  0.91585182  0.41729063  0.19663434  1
  Se  Se238  1  0.90644011  0.42830135  0.69667054  1
  Se  Se239  1  0.93079462  0.73308597  0.19890218  1
  Se  Se240  1  0.91443175  0.76330261  0.69300433  1
  Se  Se241  1  0.08322264  0.24852755  0.19479075  1
  Se  Se242  1  0.08883886  0.24168080  0.68427920  1
  Se  Se243  1  0.07924194  0.58687969  0.20255592  1
  Se  Se244  1  0.08935194  0.57459229  0.69116757  1
  Se  Se245  1  0.08778481  0.91941520  0.19736683  1
  Se  Se246  1  0.08539604  0.91404488  0.69550276  1
  Se  Se247  1  0.42433456  0.24422953  0.19030427  1
  Se  Se248  1  0.41479162  0.25134293  0.69806612  1
  Se  Se249  1  0.41366432  0.58232316  0.18973855  1
  Se  Se250  1  0.41614803  0.58333649  0.68858305  1
  Se  Se251  1  0.41726565  0.92296332  0.20376759  1
  Se  Se252  1  0.43111764  0.90826918  0.68860056  1
  Se  Se253  1  0.74897614  0.24920171  0.19266800  1
  Se  Se254  1  0.75474740  0.24302700  0.70053405  1
  Se  Se255  1  0.74584262  0.58881007  0.19373704  1
  Se  Se256  1  0.75022569  0.58391452  0.70279835  1
  Se  Se257  1  0.76410126  0.91635481  0.18739459  1
  Se  Se258  1  0.75556909  0.91001726  0.68733934  1
