# generated using pymatgen
data_In86Cu29Se144
_symmetry_space_group_name_H-M   'P 1'
_cell_length_a   17.57682911
_cell_length_b   17.57788230
_cell_length_c   23.43769764
_cell_angle_alpha   89.99261475
_cell_angle_beta   89.98048988
_cell_angle_gamma   89.99860314
_symmetry_Int_Tables_number   1
_chemical_formula_structural   In86Cu29Se144
_chemical_formula_sum   'In86 Cu29 Se144'
_cell_volume   7241.39104930
_cell_formula_units_Z   1
loop_
 _symmetry_equiv_pos_site_id
 _symmetry_equiv_pos_as_xyz
  1  'x, y, z'
loop_
 _atom_site_type_symbol
 _atom_site_label
 _atom_site_symmetry_multiplicity
 _atom_site_fract_x
 _atom_site_fract_y
 _atom_site_fract_z
 _atom_site_occupancy
  In  In0  1  0.00603679  0.16260640  0.13676309  1
  In  In1  1  0.00500689  0.17279712  0.61080788  1
  In  In2  1  0.00439089  0.49854280  0.13791219  1
  In  In3  1  0.00919948  0.50882741  0.61691117  1
  In  In4  1  0.01319373  0.82729049  0.13759327  1
  In  In5  1  -0.00748719  0.82513187  0.61818105  1
  In  In6  1  0.34156252  0.17357564  0.11090568  1
  In  In7  1  0.33394013  0.16831888  0.62707076  1
  In  In8  1  0.31723829  0.49758819  0.12506983  1
  In  In9  1  0.32528333  0.49034809  0.61900301  1
  In  In10  1  0.31700033  0.84989421  0.12067140  1
  In  In11  1  0.33770486  0.85351496  0.62595657  1
  In  In12  1  0.65830994  0.17408610  0.13360008  1
  In  In13  1  0.65576207  0.15660109  0.61275715  1
  In  In14  1  0.65464364  0.49131224  0.12888267  1
  In  In15  1  0.67059401  0.51677146  0.60061996  1
  In  In16  1  0.67805119  0.83188216  0.13185594  1
  In  In17  1  0.67579508  0.83363860  0.62120813  1
  In  In18  1  0.15937787  0.01037906  0.38097230  1
  In  In19  1  0.18272401  -0.01250569  0.89177665  1
  In  In20  1  0.16564334  0.33322954  0.37322688  1
  In  In21  1  0.20369297  0.29925442  0.90929117  1
  In  In22  1  0.15585571  0.67341126  0.38194488  1
  In  In23  1  0.15707715  0.67027027  0.88267608  1
  In  In24  1  0.51818302  0.00109443  0.37155161  1
  In  In25  1  0.50771756  0.00608221  0.86747872  1
  In  In26  1  0.49800540  0.32702067  0.37491637  1
  In  In27  1  0.47850440  0.33177118  0.87351203  1
  In  In28  1  0.49125616  0.66282106  0.37939989  1
  In  In29  1  0.50367710  0.67233482  0.87396683  1
  In  In30  1  0.83487622  0.00125167  0.37742463  1
  In  In31  1  0.82267355  0.00624721  0.86720554  1
  In  In32  1  0.83323678  0.33300893  0.37484841  1
  In  In33  1  0.83854541  0.33392870  0.87455453  1
  In  In34  1  0.84241731  0.65490817  0.38589281  1
  In  In35  1  0.84377758  0.65503400  0.87170825  1
  In  In36  1  0.00063943  0.16600478  0.37367459  1
  In  In37  1  0.00936379  0.17594998  0.87505506  1
  In  In38  1  0.00112979  0.50093212  0.37473949  1
  In  In39  1  0.01634482  0.51310125  0.86884446  1
  In  In40  1  0.00106292  0.83491686  0.37490710  1
  In  In41  1  0.01367601  0.82916720  0.87508450  1
  In  In42  1  0.32190432  0.17786060  0.38045130  1
  In  In43  1  0.33759490  0.16364227  0.87666637  1
  In  In44  1  0.34075243  0.48462211  0.38176052  1
  In  In45  1  0.32737452  0.48294829  0.87338441  1
  In  In46  1  0.33291568  0.82318085  0.37790106  1
  In  In47  1  0.32647671  0.83266468  0.86884212  1
  In  In48  1  0.66656534  0.16680308  0.37675804  1
  In  In49  1  0.66512136  0.14862268  0.87062185  1
  In  In50  1  0.67841632  0.49201117  0.38536432  1
  In  In51  1  0.67571542  0.49812490  0.87406255  1
  In  In52  1  0.66552980  0.85107783  0.37268545  1
  In  In53  1  0.65852146  0.84218458  0.87460300  1
  In  In54  1  0.16620896  -0.00221283  0.11702666  1
  In  In55  1  0.17601509  0.01092539  0.61953313  1
  In  In56  1  0.16947621  0.33128169  0.13114852  1
  In  In57  1  0.17021151  0.33674019  0.62047486  1
  In  In58  1  0.15286885  0.66161413  0.11462973  1
  In  In59  1  0.15771141  0.65884459  0.62275098  1
  In  In60  1  0.49057480  0.01106654  0.12865108  1
  In  In61  1  0.48503969  0.00811773  0.63631283  1
  In  In62  1  0.50024688  0.32468893  0.13355859  1
  In  In63  1  0.49204439  0.32600804  0.61799150  1
  In  In64  1  0.50205429  0.65923105  0.12381455  1
  In  In65  1  0.51301097  0.66694699  0.61758781  1
  In  In66  1  0.82861202  0.00593617  0.13821740  1
  In  In67  1  0.82550121  -0.00808328  0.61490646  1
  In  In68  1  0.83182140  0.33557023  0.13960235  1
  In  In69  1  0.83555276  0.33589160  0.60797216  1
  In  In70  1  0.84270390  0.67733761  0.13055944  1
  In  In71  1  0.84019850  0.67711732  0.61351289  1
  In  In72  1  0.33575921  0.67257297  0.75244134  1
  In  In73  1  0.00878947  0.33553474  0.75308741  1
  In  In74  1  0.84136760  0.82965860  0.00517706  1
  In  In75  1  0.83886783  0.16763935  -0.00301883  1
  In  In76  1  0.65756004  0.33156225  0.73309813  1
  In  In77  1  0.66679315  0.67333869  0.74065030  1
  In  In78  1  0.67353303  0.66190743  0.25418570  1
  In  In79  1  0.33203185  0.00222403  0.24452973  1
  In  In80  1  0.32968323  0.66567010  0.25543405  1
  In  In81  1  0.49997645  0.83618744  0.50163186  1
  In  In82  1  0.83974001  0.50076153  0.00721663  1
  In  In83  1  0.49292826  0.49589761  0.00383303  1
  In  In84  1  0.00292758  -0.00213324  0.74911825  1
  In  In85  1  0.49685991  0.83711886  -0.00272225  1
  Cu  Cu86  1  0.49914565  0.16464788  0.25265002  1
  Cu  Cu87  1  0.83802072  0.83795353  0.25548575  1
  Cu  Cu88  1  0.17722472  0.16463319  0.75467400  1
  Cu  Cu89  1  0.16461572  0.83566900  0.25082017  1
  Cu  Cu90  1  0.83026018  0.15866272  0.73877960  1
  Cu  Cu91  1  0.66966355  0.00477283  0.49765901  1
  Cu  Cu92  1  0.66444460  0.33431918  0.49357647  1
  Cu  Cu93  1  0.65522819  0.32509063  0.00396066  1
  Cu  Cu94  1  0.49693101  0.49992519  0.74400991  1
  Cu  Cu95  1  0.33026151  0.67119158  -0.00334059  1
  Cu  Cu96  1  0.83649017  0.49912173  0.25984831  1
  Cu  Cu97  1  0.00017783  0.33400361  0.49042086  1
  Cu  Cu98  1  0.16513389  0.83297306  0.75091155  1
  Cu  Cu99  1  0.49567424  0.17231963  0.74788038  1
  Cu  Cu100  1  0.16386453  0.49977105  0.25225629  1
  Cu  Cu101  1  0.00057296  -0.00420952  0.49740437  1
  Cu  Cu102  1  0.66075929  0.00450101  0.00214601  1
  Cu  Cu103  1  0.83841198  0.49942052  0.74317603  1
  Cu  Cu104  1  0.00230814  0.66634452  0.49783668  1
  Cu  Cu105  1  0.83472435  0.82760926  0.74232615  1
  Cu  Cu106  1  0.49863512  0.48943814  0.25565130  1
  Cu  Cu107  1  0.83133254  0.16652569  0.25906774  1
  Cu  Cu108  1  0.00451971  0.34141355  0.01044508  1
  Cu  Cu109  1  0.33542616  0.00738976  0.50254416  1
  Cu  Cu110  1  0.16858668  0.49470520  0.74609424  1
  Cu  Cu111  1  0.33086006  0.32815464  0.50025361  1
  Cu  Cu112  1  0.32259141  0.66224247  0.50048903  1
  Cu  Cu113  1  0.00115467  -0.00108974  0.00582140  1
  Cu  Cu114  1  0.16537311  0.17051634  0.25347003  1
  Se  Se115  1  0.07778393  0.08924849  0.05719121  1
  Se  Se116  1  0.08544191  0.08112248  0.54903936  1
  Se  Se117  1  0.08581489  0.42161987  0.06548313  1
  Se  Se118  1  0.08041961  0.41172513  0.55264380  1
  Se  Se119  1  0.08830267  0.76708077  0.05528779  1
  Se  Se120  1  0.08560224  0.74914496  0.55286754  1
  Se  Se121  1  0.40205606  0.06393037  0.05239774  1
  Se  Se122  1  0.42010284  0.08755451  0.55688137  1
  Se  Se123  1  0.40736874  0.40605956  0.06357542  1
  Se  Se124  1  0.41468141  0.41537205  0.55064254  1
  Se  Se125  1  0.40911351  0.74531149  0.06119150  1
  Se  Se126  1  0.40419445  0.74525879  0.55989530  1
  Se  Se127  1  0.74605872  0.08317882  0.05980192  1
  Se  Se128  1  0.75612994  0.08860711  0.54880350  1
  Se  Se129  1  0.74157468  0.40465162  0.05888431  1
  Se  Se130  1  0.75108789  0.41980375  0.54279950  1
  Se  Se131  1  0.74315219  0.73831374  0.05787396  1
  Se  Se132  1  0.73359528  0.73681416  0.55255452  1
  Se  Se133  1  0.23961443  0.24848949  0.05572376  1
  Se  Se134  1  0.24824518  0.24523261  0.55572733  1
  Se  Se135  1  0.25128859  0.58708621  0.05313532  1
  Se  Se136  1  0.24170667  0.57692999  0.55442294  1
  Se  Se137  1  0.25315162  0.92855789  0.04358375  1
  Se  Se138  1  0.25180911  0.91928812  0.55120627  1
  Se  Se139  1  0.57460749  0.24293132  0.05770408  1
  Se  Se140  1  0.58195036  0.25208282  0.54940788  1
  Se  Se141  1  0.59497386  0.58709247  0.05321115  1
  Se  Se142  1  0.56898323  0.58294103  0.53938970  1
  Se  Se143  1  0.58986895  0.91886730  0.06345583  1
  Se  Se144  1  0.58552377  0.92984969  0.56185868  1
  Se  Se145  1  0.91789924  0.25837679  0.06413330  1
  Se  Se146  1  0.91660852  0.24828528  0.54298223  1
  Se  Se147  1  0.92895688  0.59309325  0.06308925  1
  Se  Se148  1  0.91644180  0.58186203  0.55016877  1
  Se  Se149  1  0.91959525  0.92531080  0.06811148  1
  Se  Se150  1  0.91497356  0.91227534  0.55002635  1
  Se  Se151  1  0.08591953  0.24731096  0.44267784  1
  Se  Se152  1  0.07643405  0.25112438  0.95410404  1
  Se  Se153  1  0.08484928  0.57814549  0.44800270  1
  Se  Se154  1  0.08389298  0.58035387  0.95074398  1
  Se  Se155  1  0.08709080  0.91377338  0.44556178  1
  Se  Se156  1  0.08002616  0.91423158  0.94992299  1
  Se  Se157  1  0.41770391  0.24614417  0.44806210  1
  Se  Se158  1  0.41465825  0.24976843  0.94818756  1
  Se  Se159  1  0.40989652  0.58242612  0.44811179  1
  Se  Se160  1  0.41057153  0.59019454  0.93760746  1
  Se  Se161  1  0.41210459  0.92722536  0.43840502  1
  Se  Se162  1  0.41180420  0.92429463  0.93421639  1
  Se  Se163  1  0.75109945  0.24963430  0.44459121  1
  Se  Se164  1  0.74067827  0.25530573  0.93881511  1
  Se  Se165  1  0.74054855  0.59270888  0.44953874  1
  Se  Se166  1  0.74681725  0.58936728  0.94460530  1
  Se  Se167  1  0.75122001  0.91709558  0.44763435  1
  Se  Se168  1  0.74766602  0.92441713  0.94676439  1
  Se  Se169  1  0.24818500  0.08708183  0.44885996  1
  Se  Se170  1  0.22924750  0.10772109  0.94210160  1
  Se  Se171  1  0.24643725  0.41229203  0.44762838  1
  Se  Se172  1  0.24674926  0.42637083  0.95328226  1
  Se  Se173  1  0.24616160  0.75259923  0.44879738  1
  Se  Se174  1  0.24937045  0.75487418  0.94256089  1
  Se  Se175  1  0.58142227  0.08615139  0.44793471  1
  Se  Se176  1  0.57954761  0.08572943  0.94661085  1
  Se  Se177  1  0.57650481  0.41627211  0.44322795  1
  Se  Se178  1  0.58700259  0.41051541  0.93899690  1
  Se  Se179  1  0.58681737  0.75069389  0.43722863  1
  Se  Se180  1  0.59537119  0.74253854  0.94574098  1
  Se  Se181  1  0.91955955  0.08348832  0.44535594  1
  Se  Se182  1  0.92579434  0.07178052  0.93670357  1
  Se  Se183  1  0.91413878  0.42022960  0.44285008  1
  Se  Se184  1  0.92730504  0.41337719  0.94180344  1
  Se  Se185  1  0.91947218  0.75259391  0.44641628  1
  Se  Se186  1  0.92691353  0.73949636  0.94254569  1
  Se  Se187  1  0.25196574  0.25427694  0.30209817  1
  Se  Se188  1  0.25239544  0.25360170  0.81016046  1
  Se  Se189  1  0.24386853  0.57570722  0.31692579  1
  Se  Se190  1  0.24533663  0.57971181  0.80846695  1
  Se  Se191  1  0.24730839  0.91266651  0.31123080  1
  Se  Se192  1  0.24368294  0.92033656  0.80365810  1
  Se  Se193  1  0.58361087  0.24764914  0.30541929  1
  Se  Se194  1  0.58080317  0.24949189  0.80892247  1
  Se  Se195  1  0.57739260  0.57466410  0.31206635  1
  Se  Se196  1  0.58022368  0.57511942  0.80461417  1
  Se  Se197  1  0.58101404  0.91462571  0.29723379  1
  Se  Se198  1  0.59559291  0.92647560  0.80098409  1
  Se  Se199  1  0.91818749  0.25190002  0.30605563  1
  Se  Se200  1  0.90716329  0.23766766  0.80205618  1
  Se  Se201  1  0.91963354  0.58829389  0.30583048  1
  Se  Se202  1  0.92227151  0.57903132  0.79804370  1
  Se  Se203  1  0.92155811  0.92277239  0.30688902  1
  Se  Se204  1  0.90997789  0.90655061  0.80914095  1
  Se  Se205  1  0.08347067  0.08237458  0.30301945  1
  Se  Se206  1  0.09249023  0.08454257  0.81150188  1
  Se  Se207  1  0.08060203  0.41576876  0.30507977  1
  Se  Se208  1  0.10219964  0.41341104  0.81542242  1
  Se  Se209  1  0.08376916  0.75056056  0.30465562  1
  Se  Se210  1  0.08508569  0.74483820  0.80177420  1
  Se  Se211  1  0.41598350  0.08737882  0.31334968  1
  Se  Se212  1  0.41678222  0.08572539  0.80273872  1
  Se  Se213  1  0.41105818  0.40644319  0.30406362  1
  Se  Se214  1  0.41440315  0.41763052  0.79751797  1
  Se  Se215  1  0.42824456  0.75864543  0.30465569  1
  Se  Se216  1  0.43315967  0.76460775  0.80442842  1
  Se  Se217  1  0.74698102  0.08009579  0.30830144  1
  Se  Se218  1  0.74429345  0.07976783  0.79203429  1
  Se  Se219  1  0.74678563  0.41586230  0.30580042  1
  Se  Se220  1  0.75630143  0.41595675  0.79887602  1
  Se  Se221  1  0.75931457  0.75381734  0.31493647  1
  Se  Se222  1  0.75717643  0.75292899  0.81073821  1
  Se  Se223  1  0.24303499  0.09392691  0.18762529  1
  Se  Se224  1  0.25496386  0.08068954  0.69729429  1
  Se  Se225  1  0.25043995  0.41673907  0.20200382  1
  Se  Se226  1  0.25189282  0.41078729  0.69531019  1
  Se  Se227  1  0.24403123  0.75408569  0.19028055  1
  Se  Se228  1  0.24500133  0.75529623  0.68760922  1
  Se  Se229  1  0.58149060  0.08070460  0.19864157  1
  Se  Se230  1  0.58194831  0.09098773  0.69492298  1
  Se  Se231  1  0.58433959  0.40828590  0.20203562  1
  Se  Se232  1  0.57947120  0.43330420  0.67673895  1
  Se  Se233  1  0.57929284  0.74827221  0.19306443  1
  Se  Se234  1  0.57171064  0.76623495  0.69008413  1
  Se  Se235  1  0.91610231  0.08535215  0.20364046  1
  Se  Se236  1  0.91906095  0.08542842  0.68221875  1
  Se  Se237  1  0.91930940  0.41581314  0.20465774  1
  Se  Se238  1  0.91684335  0.41520468  0.68591284  1
  Se  Se239  1  0.92119629  0.75160149  0.20444665  1
  Se  Se240  1  0.91938634  0.74324472  0.69361270  1
  Se  Se241  1  0.08048616  0.25605512  0.20194443  1
  Se  Se242  1  0.09117694  0.23810993  0.69276301  1
  Se  Se243  1  0.08798304  0.59138410  0.19954499  1
  Se  Se244  1  0.08221223  0.57915908  0.69805389  1
  Se  Se245  1  0.08949491  0.92684096  0.19695435  1
  Se  Se246  1  0.08919630  0.91073965  0.68509799  1
  Se  Se247  1  0.41101068  0.23991242  0.19601321  1
  Se  Se248  1  0.41319370  0.25713744  0.69617718  1
  Se  Se249  1  0.42189728  0.57283718  0.19458288  1
  Se  Se250  1  0.41939218  0.58432710  0.68553512  1
  Se  Se251  1  0.42122108  0.90315318  0.19128601  1
  Se  Se252  1  0.41228459  0.91923625  0.70493618  1
  Se  Se253  1  0.74788017  0.24805811  0.20223519  1
  Se  Se254  1  0.75680030  0.24494979  0.68006467  1
  Se  Se255  1  0.75996575  0.57141338  0.18897738  1
  Se  Se256  1  0.75511833  0.57744453  0.68525197  1
  Se  Se257  1  0.74858482  0.91707012  0.20402405  1
  Se  Se258  1  0.75320072  0.91557269  0.69366077  1
