# generated using pymatgen
data_In86Cu29Se144
_symmetry_space_group_name_H-M   'P 1'
_cell_length_a   17.69783556
_cell_length_b   17.69391423
_cell_length_c   23.55496086
_cell_angle_alpha   89.95985546
_cell_angle_beta   90.04390805
_cell_angle_gamma   89.96571858
_symmetry_Int_Tables_number   1
_chemical_formula_structural   In86Cu29Se144
_chemical_formula_sum   'In86 Cu29 Se144'
_cell_volume   7376.08899552
_cell_formula_units_Z   1
loop_
 _symmetry_equiv_pos_site_id
 _symmetry_equiv_pos_as_xyz
  1  'x, y, z'
loop_
 _atom_site_type_symbol
 _atom_site_label
 _atom_site_symmetry_multiplicity
 _atom_site_fract_x
 _atom_site_fract_y
 _atom_site_fract_z
 _atom_site_occupancy
  In  In0  1  -0.01036226  0.16105531  0.12483391  1
  In  In1  1  0.00620491  0.17049054  0.61870126  1
  In  In2  1  0.01794691  0.50253951  0.11886742  1
  In  In3  1  -0.01347764  0.48865305  0.62432507  1
  In  In4  1  -0.00979527  0.82656778  0.11878943  1
  In  In5  1  0.00378725  0.83853884  0.62011271  1
  In  In6  1  0.34447645  0.16891340  0.12841059  1
  In  In7  1  0.33148505  0.18261581  0.62843779  1
  In  In8  1  0.33192045  0.50520335  0.12559141  1
  In  In9  1  0.33001759  0.51060943  0.62740579  1
  In  In10  1  0.32849903  0.81956014  0.11976944  1
  In  In11  1  0.32067153  0.82634047  0.62036986  1
  In  In12  1  0.67853243  0.16694195  0.12723444  1
  In  In13  1  0.67622307  0.15140567  0.63839714  1
  In  In14  1  0.65646250  0.50122337  0.12410856  1
  In  In15  1  0.68527625  0.50909632  0.62978038  1
  In  In16  1  0.66423912  0.82526724  0.11075988  1
  In  In17  1  0.66995575  0.83511638  0.62900614  1
  In  In18  1  0.16555904  -0.00616114  0.39610751  1
  In  In19  1  0.14638681  -0.00012284  0.87180729  1
  In  In20  1  0.17032894  0.33399476  0.38087295  1
  In  In21  1  0.16393286  0.33504760  0.87164730  1
  In  In22  1  0.16543861  0.66527099  0.37502793  1
  In  In23  1  0.17139882  0.65892156  0.87837407  1
  In  In24  1  0.49781956  -0.01201853  0.37771610  1
  In  In25  1  0.49958166  -0.01718306  0.87898759  1
  In  In26  1  0.50466456  0.33953622  0.36846226  1
  In  In27  1  0.49739001  0.34931813  0.88003491  1
  In  In28  1  0.49809463  0.67842486  0.37322124  1
  In  In29  1  0.49550312  0.66804076  0.87422127  1
  In  In30  1  0.84475879  -0.01055903  0.39534473  1
  In  In31  1  0.80538552  -0.04907533  0.80231098  1
  In  In32  1  0.83412754  0.33403214  0.38333319  1
  In  In33  1  0.83837030  0.32327292  0.86437340  1
  In  In34  1  0.84136656  0.65375159  0.38330847  1
  In  In35  1  0.83505683  0.68356982  0.86289240  1
  In  In36  1  0.00255700  0.15804299  0.39315816  1
  In  In37  1  -0.05886086  0.12265071  0.81338132  1
  In  In38  1  -0.00575718  0.50757268  0.38222353  1
  In  In39  1  0.01383157  0.50550164  0.87343568  1
  In  In40  1  0.01003461  0.82228922  0.38460307  1
  In  In41  1  -0.01197379  0.84553664  0.87612679  1
  In  In42  1  0.32304491  0.17388504  0.37484285  1
  In  In43  1  0.31675797  0.16698272  0.87101917  1
  In  In44  1  0.32567946  0.49529190  0.36960659  1
  In  In45  1  0.32826589  0.50161984  0.87525556  1
  In  In46  1  0.33771518  0.82557149  0.38027471  1
  In  In47  1  0.33966255  0.82263707  0.87964608  1
  In  In48  1  0.66850691  0.17448694  0.38053070  1
  In  In49  1  0.66969313  0.15053354  0.86444108  1
  In  In50  1  0.68045645  0.49415729  0.37757706  1
  In  In51  1  0.64837750  0.49735082  0.87808368  1
  In  In52  1  0.67379785  0.81490024  0.39331585  1
  In  In53  1  0.66821249  0.82867853  0.86423833  1
  In  In54  1  0.17499907  -0.01053035  0.12659595  1
  In  In55  1  0.15715305  -0.00239105  0.61211046  1
  In  In56  1  0.16851468  0.35187220  0.12371253  1
  In  In57  1  0.16879979  0.33760618  0.61844539  1
  In  In58  1  0.16606827  0.66897303  0.12533931  1
  In  In59  1  0.17147698  0.66997579  0.62041933  1
  In  In60  1  0.50682978  -0.01333126  0.12061485  1
  In  In61  1  0.51444577  0.00308480  0.63740262  1
  In  In62  1  0.49133723  0.34405383  0.13081204  1
  In  In63  1  0.49606724  0.32199543  0.63481830  1
  In  In64  1  0.49629942  0.65546039  0.11701304  1
  In  In65  1  0.49536887  0.67438008  0.63077004  1
  In  In66  1  0.83854858  -0.00307279  0.12334664  1
  In  In67  1  0.84456328  -0.00269669  0.62627531  1
  In  In68  1  0.83349618  0.32133496  0.13024101  1
  In  In69  1  0.84713214  0.34460058  0.62556613  1
  In  In70  1  0.82528998  0.67672901  0.12269808  1
  In  In71  1  0.82836324  0.67178960  0.62560521  1
  In  In72  1  0.00229138  0.66742903  0.74701205  1
  In  In73  1  0.50350046  0.16354517  0.50912164  1
  In  In74  1  0.50161351  0.16482545  -0.00695824  1
  In  In75  1  0.00069982  0.33793951  0.25225992  1
  In  In76  1  0.83770960  0.15066614  -0.01765235  1
  In  In77  1  0.82930239  0.50328994  -0.00104775  1
  In  In78  1  0.00449307  -0.00434801  0.27056803  1
  In  In79  1  0.50350981  0.50811439  0.50681369  1
  In  In80  1  0.66551630  0.33484635  0.75124267  1
  In  In81  1  0.33089133  0.00294621  0.25758413  1
  In  In82  1  0.66165368  0.66103750  0.24909049  1
  In  In83  1  0.66570377  -0.00013206  0.25101227  1
  In  In84  1  0.32896306  0.00236428  0.75558657  1
  In  In85  1  0.16001423  0.16961978  -0.00431048  1
  Cu  Cu86  1  0.33038794  -0.01272028  -0.00006316  1
  Cu  Cu87  1  0.16611177  0.17495844  0.74402362  1
  Cu  Cu88  1  0.83031864  0.16647673  0.25851324  1
  Cu  Cu89  1  0.66716016  -0.00614727  0.51093961  1
  Cu  Cu90  1  0.66330380  0.32823675  -0.00229747  1
  Cu  Cu91  1  0.16924062  0.50884053  0.24747803  1
  Cu  Cu92  1  0.49577312  0.83070424  0.25169389  1
  Cu  Cu93  1  0.17449454  0.49952647  0.74735007  1
  Cu  Cu94  1  0.67547247  0.33422778  0.50714953  1
  Cu  Cu95  1  0.33412990  0.66295195  -0.00022295  1
  Cu  Cu96  1  0.16594815  0.18025482  0.25480062  1
  Cu  Cu97  1  0.16581645  0.82942967  0.74592070  1
  Cu  Cu98  1  0.00114104  0.33903271  0.50095129  1
  Cu  Cu99  1  0.00252053  0.33046235  -0.00777878  1
  Cu  Cu100  1  0.32832725  0.34127091  0.00157126  1
  Cu  Cu101  1  0.33597290  0.33515258  0.49969796  1
  Cu  Cu102  1  0.00049282  0.67360689  -0.00607357  1
  Cu  Cu103  1  0.50210217  0.17744395  0.25114660  1
  Cu  Cu104  1  0.32785037  0.66551795  0.49955877  1
  Cu  Cu105  1  0.66788771  0.67453652  -0.00771888  1
  Cu  Cu106  1  0.16299216  0.83037743  0.25200481  1
  Cu  Cu107  1  0.49490339  0.83264741  0.75218958  1
  Cu  Cu108  1  -0.00200386  -0.00542416  -0.00513471  1
  Cu  Cu109  1  0.83741301  0.49684621  0.25860307  1
  Cu  Cu110  1  0.00195523  0.66388387  0.50555318  1
  Cu  Cu111  1  0.33931787  -0.00468434  0.50181540  1
  Cu  Cu112  1  0.49614550  0.49909195  0.24534476  1
  Cu  Cu113  1  0.83299583  0.82345810  0.24661695  1
  Cu  Cu114  1  0.49355806  0.50027449  0.75347343  1
  Se  Se115  1  0.07640819  0.07205003  0.06069024  1
  Se  Se116  1  0.09789364  0.10091907  0.54943557  1
  Se  Se117  1  0.08370893  0.41308310  0.04669778  1
  Se  Se118  1  0.08151544  0.42348340  0.55474311  1
  Se  Se119  1  0.08203354  0.74995788  0.05505509  1
  Se  Se120  1  0.08538909  0.75076138  0.55435887  1
  Se  Se121  1  0.40928823  0.07342421  0.05645363  1
  Se  Se122  1  0.41094622  0.07579526  0.56720419  1
  Se  Se123  1  0.41337881  0.41905058  0.05665955  1
  Se  Se124  1  0.41714925  0.40921215  0.56162667  1
  Se  Se125  1  0.41926638  0.74682252  0.05235281  1
  Se  Se126  1  0.41014496  0.74478208  0.55642067  1
  Se  Se127  1  0.74640102  0.07565948  0.05488384  1
  Se  Se128  1  0.74989364  0.07803549  0.56183229  1
  Se  Se129  1  0.74601649  0.40438067  0.05942864  1
  Se  Se130  1  0.75446645  0.42118745  0.55872392  1
  Se  Se131  1  0.75660836  0.75246433  0.04430130  1
  Se  Se132  1  0.76303311  0.76956161  0.55970114  1
  Se  Se133  1  0.25448178  0.25324047  0.06043770  1
  Se  Se134  1  0.25293485  0.25098385  0.55114898  1
  Se  Se135  1  0.24871374  0.58561573  0.05687023  1
  Se  Se136  1  0.24792302  0.57995343  0.55198716  1
  Se  Se137  1  0.24614843  0.90741934  0.05427693  1
  Se  Se138  1  0.24856296  0.91489956  0.55033241  1
  Se  Se139  1  0.58582191  0.25088886  0.06186392  1
  Se  Se140  1  0.59590237  0.25351847  0.56653832  1
  Se  Se141  1  0.59248088  0.58776556  0.05002135  1
  Se  Se142  1  0.59302317  0.59479036  0.56517961  1
  Se  Se143  1  0.59200444  0.92091564  0.04942553  1
  Se  Se144  1  0.57921652  0.91733991  0.56330039  1
  Se  Se145  1  0.91934639  0.25219077  0.05196714  1
  Se  Se146  1  0.91822000  0.25686446  0.55450258  1
  Se  Se147  1  0.92260376  0.59164120  0.05758285  1
  Se  Se148  1  0.91577544  0.58735994  0.56088734  1
  Se  Se149  1  0.91361099  0.91648701  0.05147177  1
  Se  Se150  1  0.92979657  0.92860860  0.55203291  1
  Se  Se151  1  0.08465087  0.25528071  0.44831368  1
  Se  Se152  1  0.07130482  0.24608723  0.93070380  1
  Se  Se153  1  0.08416411  0.58508255  0.44681784  1
  Se  Se154  1  0.08404880  0.58422130  0.94946361  1
  Se  Se155  1  0.05126289  0.93700138  0.44643079  1
  Se  Se156  1  0.08429512  0.91087097  0.94625645  1
  Se  Se157  1  0.42022452  0.25521477  0.44249062  1
  Se  Se158  1  0.40245579  0.25440435  0.94214100  1
  Se  Se159  1  0.41077403  0.58625176  0.44013469  1
  Se  Se160  1  0.41508570  0.58215175  0.94283083  1
  Se  Se161  1  0.41902618  0.91038344  0.44841558  1
  Se  Se162  1  0.41751516  0.90731613  0.95001676  1
  Se  Se163  1  0.75195554  0.24948441  0.45107041  1
  Se  Se164  1  0.74233617  0.25230442  0.93658753  1
  Se  Se165  1  0.73094131  0.59820983  0.44159846  1
  Se  Se166  1  0.74580290  0.59064736  0.93405041  1
  Se  Se167  1  0.74821719  0.91158466  0.45450967  1
  Se  Se168  1  0.76614770  0.92456078  0.90682589  1
  Se  Se169  1  0.26170291  0.08181763  0.44703996  1
  Se  Se170  1  0.25100910  0.07055560  0.94304706  1
  Se  Se171  1  0.25347431  0.41891304  0.44704879  1
  Se  Se172  1  0.24516608  0.41597936  0.94269768  1
  Se  Se173  1  0.24590255  0.75005681  0.44490036  1
  Se  Se174  1  0.25060023  0.74561899  0.94626920  1
  Se  Se175  1  0.58992486  0.07202138  0.44508194  1
  Se  Se176  1  0.59431902  0.07185967  0.94167272  1
  Se  Se177  1  0.58960171  0.40954019  0.44780209  1
  Se  Se178  1  0.57832657  0.41864794  0.95571640  1
  Se  Se179  1  0.56786501  0.75219957  0.45012660  1
  Se  Se180  1  0.58404166  0.75356922  0.93712630  1
  Se  Se181  1  0.89196685  0.10492029  0.45008332  1
  Se  Se182  1  0.94052571  0.08132717  0.92795489  1
  Se  Se183  1  0.91472934  0.42086853  0.44847622  1
  Se  Se184  1  0.91811445  0.41382592  0.93840115  1
  Se  Se185  1  0.91889751  0.74385235  0.44825218  1
  Se  Se186  1  0.91329822  0.75122938  0.94127773  1
  Se  Se187  1  0.25177831  0.26177841  0.30439467  1
  Se  Se188  1  0.24766975  0.25445023  0.80091439  1
  Se  Se189  1  0.25158313  0.58818009  0.30431051  1
  Se  Se190  1  0.25066085  0.58575398  0.80318468  1
  Se  Se191  1  0.23792792  0.91387165  0.31395975  1
  Se  Se192  1  0.24090385  0.90803206  0.81265661  1
  Se  Se193  1  0.58952806  0.25101335  0.30685480  1
  Se  Se194  1  0.57631762  0.25024933  0.81614196  1
  Se  Se195  1  0.57478643  0.57260007  0.31204803  1
  Se  Se196  1  0.57758440  0.58194800  0.80594578  1
  Se  Se197  1  0.58333945  0.90210292  0.31080426  1
  Se  Se198  1  0.57884306  0.91756291  0.80111538  1
  Se  Se199  1  0.91987430  0.24214978  0.31342439  1
  Se  Se200  1  0.94178960  0.26990053  0.80140415  1
  Se  Se201  1  0.91939090  0.58419310  0.30535799  1
  Se  Se202  1  0.91437497  0.57763805  0.80867222  1
  Se  Se203  1  0.90489279  0.90158242  0.31358526  1
  Se  Se204  1  0.95079889  0.92949869  0.79119086  1
  Se  Se205  1  0.09889614  0.09361178  0.31754447  1
  Se  Se206  1  0.08779115  0.09054936  0.79890625  1
  Se  Se207  1  0.09043483  0.42791427  0.30970392  1
  Se  Se208  1  0.08774123  0.42278577  0.80169697  1
  Se  Se209  1  0.08067283  0.74812382  0.30597434  1
  Se  Se210  1  0.08814011  0.75426053  0.81219043  1
  Se  Se211  1  0.42786129  0.09360467  0.31288102  1
  Se  Se212  1  0.42102995  0.08602557  0.81760968  1
  Se  Se213  1  0.41611185  0.41739283  0.30345315  1
  Se  Se214  1  0.41245442  0.41692194  0.80674491  1
  Se  Se215  1  0.40972041  0.74920388  0.30192722  1
  Se  Se216  1  0.41154522  0.74744080  0.80233718  1
  Se  Se217  1  0.75538329  0.08025116  0.31688283  1
  Se  Se218  1  0.77820597  0.10171947  0.80215439  1
  Se  Se219  1  0.75566002  0.41008521  0.30689456  1
  Se  Se220  1  0.75058779  0.42580640  0.81322685  1
  Se  Se221  1  0.75189232  0.74876714  0.30917516  1
  Se  Se222  1  0.73738840  0.73681721  0.79321500  1
  Se  Se223  1  0.24096555  0.09390742  0.19420731  1
  Se  Se224  1  0.24366945  0.08620118  0.68825608  1
  Se  Se225  1  0.25102306  0.42149608  0.19676972  1
  Se  Se226  1  0.25324176  0.41657845  0.69008967  1
  Se  Se227  1  0.24710100  0.75241382  0.19618283  1
  Se  Se228  1  0.24976626  0.74573371  0.69617364  1
  Se  Se229  1  0.57340594  0.09046670  0.19027874  1
  Se  Se230  1  0.57796639  0.09490389  0.70671992  1
  Se  Se231  1  0.58569092  0.41709622  0.19675242  1
  Se  Se232  1  0.57714795  0.42727731  0.68983704  1
  Se  Se233  1  0.57688103  0.75532449  0.18830576  1
  Se  Se234  1  0.58152201  0.75592357  0.69657267  1
  Se  Se235  1  0.91156123  0.08184361  0.20227729  1
  Se  Se236  1  0.92332309  0.09134168  0.69041908  1
  Se  Se237  1  0.91345575  0.42563516  0.18740044  1
  Se  Se238  1  0.91948321  0.41569740  0.70484203  1
  Se  Se239  1  0.91678764  0.74423026  0.19288140  1
  Se  Se240  1  0.91548708  0.76217841  0.69209791  1
  Se  Se241  1  0.08561449  0.24590911  0.18670325  1
  Se  Se242  1  0.08588206  0.25688622  0.68813767  1
  Se  Se243  1  0.08161361  0.58616632  0.19465176  1
  Se  Se244  1  0.08958266  0.57608812  0.68713651  1
  Se  Se245  1  0.08204557  0.91334352  0.19507573  1
  Se  Se246  1  0.09109920  0.91584666  0.69027976  1
  Se  Se247  1  0.41411384  0.25526897  0.19891989  1
  Se  Se248  1  0.41476961  0.24630233  0.70397040  1
  Se  Se249  1  0.41743309  0.58694995  0.19410037  1
  Se  Se250  1  0.41609900  0.58545396  0.69669378  1
  Se  Se251  1  0.41711189  0.91406800  0.19320752  1
  Se  Se252  1  0.41305997  0.91220583  0.69150678  1
  Se  Se253  1  0.75003185  0.24784774  0.20224808  1
  Se  Se254  1  0.76046103  0.25212694  0.69281507  1
  Se  Se255  1  0.75855424  0.57243585  0.19185670  1
  Se  Se256  1  0.75265265  0.59514503  0.70175704  1
  Se  Se257  1  0.75301751  0.90628545  0.18935336  1
  Se  Se258  1  0.75212534  0.92589048  0.69708865  1
