# generated using pymatgen
data_In86Cu29Se144
_symmetry_space_group_name_H-M   'P 1'
_cell_length_a   17.57982783
_cell_length_b   17.58720125
_cell_length_c   23.44684341
_cell_angle_alpha   90.01326820
_cell_angle_beta   89.95942369
_cell_angle_gamma   90.00044834
_symmetry_Int_Tables_number   1
_chemical_formula_structural   In86Cu29Se144
_chemical_formula_sum   'In86 Cu29 Se144'
_cell_volume   7249.29233100
_cell_formula_units_Z   1
loop_
 _symmetry_equiv_pos_site_id
 _symmetry_equiv_pos_as_xyz
  1  'x, y, z'
loop_
 _atom_site_type_symbol
 _atom_site_label
 _atom_site_symmetry_multiplicity
 _atom_site_fract_x
 _atom_site_fract_y
 _atom_site_fract_z
 _atom_site_occupancy
  In  In0  1  0.00760384  0.15095693  0.13055919  1
  In  In1  1  -0.01777859  0.16352571  0.62328300  1
  In  In2  1  0.03115325  0.48049810  0.15008525  1
  In  In3  1  0.01182329  0.50310069  0.61603393  1
  In  In4  1  0.00386357  0.83442032  0.12729069  1
  In  In5  1  0.03955105  0.84068857  0.61197376  1
  In  In6  1  0.33232453  0.18075196  0.12505725  1
  In  In7  1  0.33105820  0.16468839  0.63244658  1
  In  In8  1  0.32412655  0.49792478  0.12337162  1
  In  In9  1  0.31705416  0.51334038  0.64366282  1
  In  In10  1  0.31640916  0.82294209  0.10612463  1
  In  In11  1  0.32497456  0.83173768  0.62711924  1
  In  In12  1  0.65423060  0.15788994  0.12564188  1
  In  In13  1  0.68127265  0.16929257  0.63028643  1
  In  In14  1  0.66100740  0.51123286  0.12011859  1
  In  In15  1  0.66044360  0.50827349  0.63798015  1
  In  In16  1  0.67694167  0.83158129  0.11961325  1
  In  In17  1  0.65104139  0.83657142  0.62603179  1
  In  In18  1  0.15185790  -0.00321686  0.37926286  1
  In  In19  1  0.16801424  -0.00181780  0.88018696  1
  In  In20  1  0.16957285  0.34187893  0.36439908  1
  In  In21  1  0.17306679  0.33116076  0.87779339  1
  In  In22  1  0.16994684  0.67257243  0.37290540  1
  In  In23  1  0.18061970  0.65619023  0.88190246  1
  In  In24  1  0.49687260  -0.02101133  0.37248999  1
  In  In25  1  0.48073330  -0.00424062  0.87743459  1
  In  In26  1  0.49408000  0.34577558  0.37379279  1
  In  In27  1  0.49957919  0.33851966  0.87025506  1
  In  In28  1  0.49089525  0.67908225  0.37610033  1
  In  In29  1  0.49608409  0.66836161  0.87607501  1
  In  In30  1  0.84607583  0.01389049  0.37203889  1
  In  In31  1  0.82760674  -0.01250126  0.87231911  1
  In  In32  1  0.84427712  0.31726708  0.38108134  1
  In  In33  1  0.83449460  0.34290835  0.87027386  1
  In  In34  1  0.84346735  0.65668730  0.37655477  1
  In  In35  1  0.83859327  0.67950774  0.87345781  1
  In  In36  1  -0.00658019  0.15336102  0.36953313  1
  In  In37  1  0.01706220  0.16995864  0.87561448  1
  In  In38  1  0.04342813  0.53217295  0.33914995  1
  In  In39  1  0.01037344  0.50495440  0.87878795  1
  In  In40  1  0.01006573  0.84480541  0.37443217  1
  In  In41  1  -0.00699652  0.83373110  0.88308743  1
  In  In42  1  0.31864054  0.16737415  0.37545767  1
  In  In43  1  0.31656739  0.15079723  0.86629408  1
  In  In44  1  0.31251325  0.49350537  0.35665410  1
  In  In45  1  0.32884154  0.50599603  0.87326315  1
  In  In46  1  0.34343305  0.82726149  0.38108807  1
  In  In47  1  0.33372208  0.83567666  0.88091922  1
  In  In48  1  0.68489430  0.16688795  0.37968515  1
  In  In49  1  0.65368995  0.16580182  0.86950957  1
  In  In50  1  0.66342065  0.50795537  0.37401033  1
  In  In51  1  0.65415889  0.49155975  0.86699086  1
  In  In52  1  0.65015928  0.83263847  0.37656562  1
  In  In53  1  0.67378362  0.82578000  0.87857472  1
  In  In54  1  0.16158412  -0.01035102  0.11359882  1
  In  In55  1  0.17228399  -0.00857042  0.63538188  1
  In  In56  1  0.17178191  0.33060393  0.12238795  1
  In  In57  1  0.16794820  0.34383038  0.62410543  1
  In  In58  1  0.16812683  0.66751009  0.12870649  1
  In  In59  1  0.17226618  0.67266143  0.62116722  1
  In  In60  1  0.51086796  -0.00282283  0.12696720  1
  In  In61  1  0.49180631  -0.01635223  0.62269533  1
  In  In62  1  0.48072492  0.33280375  0.12225849  1
  In  In63  1  0.48764868  0.34500192  0.63465827  1
  In  In64  1  0.48621378  0.65581580  0.11478633  1
  In  In65  1  0.48390404  0.68095718  0.63563771  1
  In  In66  1  0.84264084  -0.01510737  0.13256108  1
  In  In67  1  0.83862688  0.01801075  0.62337790  1
  In  In68  1  0.83990308  0.34617494  0.12309032  1
  In  In69  1  0.83702915  0.32121099  0.62898019  1
  In  In70  1  0.84217911  0.67854076  0.12380702  1
  In  In71  1  0.83623740  0.66262248  0.62906075  1
  In  In72  1  0.00116488  0.32987449  0.75166844  1
  In  In73  1  0.84182138  0.51900910  0.00167821  1
  In  In74  1  0.67024550  0.32966204  0.25052646  1
  In  In75  1  0.50051972  0.15961627  0.51090337  1
  In  In76  1  0.83610849  0.16355726  -0.00272482  1
  In  In77  1  0.67017564  0.67008663  0.24967970  1
  In  In78  1  0.66173179  0.00194095  0.74748122  1
  In  In79  1  0.84452804  0.48970547  0.49871030  1
  In  In80  1  0.49338674  0.16660347  -0.00479665  1
  In  In81  1  0.33167431  -0.00288501  0.24833362  1
  In  In82  1  0.83871942  0.83981086  0.49557637  1
  In  In83  1  0.16120464  0.15773142  0.49714058  1
  In  In84  1  0.00519344  0.67255192  0.74397066  1
  In  In85  1  0.49358197  0.50397464  0.49890214  1
  Cu  Cu86  1  0.84178771  0.49647227  0.25286442  1
  Cu  Cu87  1  0.33370091  0.66715315  -0.00120671  1
  Cu  Cu88  1  0.83735885  0.83576588  0.74985473  1
  Cu  Cu89  1  0.48858769  0.49897510  0.24313888  1
  Cu  Cu90  1  0.66462945  0.00130230  0.50329788  1
  Cu  Cu91  1  0.83075232  0.50101717  0.74807068  1
  Cu  Cu92  1  0.50174821  0.16375228  0.24901338  1
  Cu  Cu93  1  0.00230665  -0.00528410  0.00393757  1
  Cu  Cu94  1  0.00565123  0.33615202  0.49594643  1
  Cu  Cu95  1  0.16648809  0.83489021  0.24536015  1
  Cu  Cu96  1  0.33014802  0.34010863  -0.00254693  1
  Cu  Cu97  1  0.67285941  0.33182330  0.50888588  1
  Cu  Cu98  1  0.66075510  0.33946574  -0.00777518  1
  Cu  Cu99  1  0.83365070  0.16204543  0.24989561  1
  Cu  Cu100  1  0.32938098  0.33456713  0.49411673  1
  Cu  Cu101  1  0.16555594  0.17027107  0.24978424  1
  Cu  Cu102  1  0.66073325  0.66647187  -0.00376255  1
  Cu  Cu103  1  0.49451574  0.82901128  0.75222333  1
  Cu  Cu104  1  0.49573574  0.17203084  0.75006925  1
  Cu  Cu105  1  0.49637408  0.82789352  0.24714312  1
  Cu  Cu106  1  0.66181209  0.67221499  0.50507253  1
  Cu  Cu107  1  0.00914873  0.66698713  0.00785549  1
  Cu  Cu108  1  0.49709772  0.50438455  0.75587715  1
  Cu  Cu109  1  0.17084766  0.83239984  0.75471994  1
  Cu  Cu110  1  0.32928860  0.66686056  0.50346115  1
  Cu  Cu111  1  0.83412826  0.83891206  0.25041080  1
  Cu  Cu112  1  0.67141766  -0.01091925  0.00187404  1
  Cu  Cu113  1  0.01048295  0.33486954  0.00529150  1
  Cu  Cu114  1  0.16354226  0.16020357  0.75154549  1
  Se  Se115  1  0.08402618  0.08589206  0.04998510  1
  Se  Se116  1  0.07901640  0.07654464  0.56640496  1
  Se  Se117  1  0.08839433  0.42255988  0.05798855  1
  Se  Se118  1  0.09084685  0.41812961  0.54748905  1
  Se  Se119  1  0.09001158  0.75530854  0.05840070  1
  Se  Se120  1  0.07580919  0.72863107  0.54903083  1
  Se  Se121  1  0.41480172  0.08095901  0.06448001  1
  Se  Se122  1  0.39937613  0.07069992  0.55829839  1
  Se  Se123  1  0.41413753  0.42173563  0.05124640  1
  Se  Se124  1  0.40269113  0.41589921  0.55824354  1
  Se  Se125  1  0.42124014  0.75299732  0.04737938  1
  Se  Se126  1  0.41225961  0.75200835  0.55588442  1
  Se  Se127  1  0.74728023  0.07530166  0.06057824  1
  Se  Se128  1  0.74740338  0.08739608  0.55268940  1
  Se  Se129  1  0.74493451  0.41664609  0.05191448  1
  Se  Se130  1  0.74544564  0.42028496  0.56637717  1
  Se  Se131  1  0.75110884  0.74131819  0.05061163  1
  Se  Se132  1  0.74757502  0.75041336  0.56049350  1
  Se  Se133  1  0.25135603  0.24978886  0.04860691  1
  Se  Se134  1  0.25380260  0.25063577  0.55517915  1
  Se  Se135  1  0.24851063  0.58777476  0.05514293  1
  Se  Se136  1  0.25278857  0.57808234  0.55719649  1
  Se  Se137  1  0.26044651  0.93091727  0.04531841  1
  Se  Se138  1  0.22882354  0.90052150  0.55992927  1
  Se  Se139  1  0.58685486  0.25800277  0.05650757  1
  Se  Se140  1  0.58356780  0.26074970  0.56657262  1
  Se  Se141  1  0.57823708  0.58007341  0.04648172  1
  Se  Se142  1  0.58042939  0.59191433  0.56346693  1
  Se  Se143  1  0.58436703  0.91103825  0.05555528  1
  Se  Se144  1  0.57935111  0.91481040  0.54927548  1
  Se  Se145  1  0.92378425  0.25423428  0.05927441  1
  Se  Se146  1  0.91986010  0.25738314  0.55081020  1
  Se  Se147  1  0.93751552  0.58233361  0.07220037  1
  Se  Se148  1  0.92428915  0.59432145  0.55322115  1
  Se  Se149  1  0.91647301  0.91116916  0.05490114  1
  Se  Se150  1  0.92418437  0.92122709  0.56365603  1
  Se  Se151  1  0.08131143  0.25275525  0.43402129  1
  Se  Se152  1  0.08930820  0.25115152  0.94913205  1
  Se  Se153  1  0.08900753  0.57912856  0.43588047  1
  Se  Se154  1  0.08758127  0.58255079  0.95127024  1
  Se  Se155  1  0.07714021  0.92093844  0.45401383  1
  Se  Se156  1  0.08408830  0.91200593  0.94785733  1
  Se  Se157  1  0.41528187  0.25164436  0.44270092  1
  Se  Se158  1  0.40442796  0.25472487  0.93487245  1
  Se  Se159  1  0.40203666  0.58626673  0.43598543  1
  Se  Se160  1  0.41509460  0.58276007  0.94429871  1
  Se  Se161  1  0.41837930  0.91577888  0.44982646  1
  Se  Se162  1  0.41305182  0.91776105  0.95328627  1
  Se  Se163  1  0.75497261  0.25057002  0.45420993  1
  Se  Se164  1  0.74263115  0.25540734  0.93853432  1
  Se  Se165  1  0.74267274  0.58945711  0.44831075  1
  Se  Se166  1  0.74376988  0.58772943  0.93469776  1
  Se  Se167  1  0.74194704  0.92482947  0.43702039  1
  Se  Se168  1  0.75663116  0.90843042  0.94843289  1
  Se  Se169  1  0.25865188  0.06681700  0.44380737  1
  Se  Se170  1  0.24977977  0.08348820  0.94838006  1
  Se  Se171  1  0.24878082  0.41744747  0.43940069  1
  Se  Se172  1  0.24587611  0.42388291  0.94496802  1
  Se  Se173  1  0.25077344  0.75177584  0.44662200  1
  Se  Se174  1  0.24785180  0.75210746  0.94906920  1
  Se  Se175  1  0.58549583  0.07979257  0.43875883  1
  Se  Se176  1  0.59070853  0.07076558  0.94290043  1
  Se  Se177  1  0.59466474  0.41019759  0.44617876  1
  Se  Se178  1  0.57415253  0.42182783  0.94444193  1
  Se  Se179  1  0.57659516  0.74948144  0.44966291  1
  Se  Se180  1  0.57994200  0.75345975  0.94448218  1
  Se  Se181  1  0.91609462  0.08902768  0.44970872  1
  Se  Se182  1  0.92447661  0.07260871  0.93831715  1
  Se  Se183  1  0.93419262  0.41744393  0.42977061  1
  Se  Se184  1  0.92462018  0.41174915  0.94635854  1
  Se  Se185  1  0.92674160  0.74483478  0.44034240  1
  Se  Se186  1  0.91899846  0.74246100  0.95285879  1
  Se  Se187  1  0.25323150  0.25082598  0.30048091  1
  Se  Se188  1  0.24473593  0.24859977  0.80241799  1
  Se  Se189  1  0.25105159  0.59779264  0.29744213  1
  Se  Se190  1  0.24771054  0.58542481  0.80131593  1
  Se  Se191  1  0.24436122  0.91062479  0.31232376  1
  Se  Se192  1  0.25167936  0.91749405  0.80925413  1
  Se  Se193  1  0.57892352  0.24374247  0.31421770  1
  Se  Se194  1  0.58180097  0.25402177  0.80076592  1
  Se  Se195  1  0.56995763  0.57868055  0.30388754  1
  Se  Se196  1  0.58302213  0.59022120  0.80468680  1
  Se  Se197  1  0.58226904  0.91145720  0.29745787  1
  Se  Se198  1  0.57707636  0.91199105  0.81123488  1
  Se  Se199  1  0.91735881  0.24580114  0.30180669  1
  Se  Se200  1  0.91089564  0.24013082  0.81155394  1
  Se  Se201  1  0.91931864  0.59245617  0.29635085  1
  Se  Se202  1  0.91487710  0.57794384  0.80753255  1
  Se  Se203  1  0.91807798  0.91958551  0.30607538  1
  Se  Se204  1  0.92066248  0.91422719  0.80590568  1
  Se  Se205  1  0.08731976  0.08112517  0.30223236  1
  Se  Se206  1  0.08325720  0.07668018  0.80655842  1
  Se  Se207  1  0.07723193  0.40494062  0.29266227  1
  Se  Se208  1  0.09101117  0.42332760  0.80659124  1
  Se  Se209  1  0.08367241  0.75686969  0.30443300  1
  Se  Se210  1  0.08903529  0.75215190  0.81523509  1
  Se  Se211  1  0.42112661  0.08739810  0.31216258  1
  Se  Se212  1  0.41757633  0.08262209  0.80200233  1
  Se  Se213  1  0.41190199  0.41240645  0.29879242  1
  Se  Se214  1  0.41164402  0.41899780  0.80503852  1
  Se  Se215  1  0.41011158  0.74881111  0.30018358  1
  Se  Se216  1  0.41029309  0.75019786  0.80831921  1
  Se  Se217  1  0.74831160  0.08166387  0.30348748  1
  Se  Se218  1  0.75419897  0.08919016  0.80777959  1
  Se  Se219  1  0.75714810  0.42127051  0.31348152  1
  Se  Se220  1  0.74851791  0.41672260  0.80086012  1
  Se  Se221  1  0.75801895  0.75753815  0.31441378  1
  Se  Se222  1  0.75309067  0.75266791  0.80145943  1
  Se  Se223  1  0.24353861  0.08756571  0.18783662  1
  Se  Se224  1  0.25272950  0.07905425  0.70127534  1
  Se  Se225  1  0.25578763  0.40667858  0.19331446  1
  Se  Se226  1  0.25849860  0.40063989  0.69808908  1
  Se  Se227  1  0.25427941  0.75655562  0.19280941  1
  Se  Se228  1  0.24841374  0.74578243  0.69901237  1
  Se  Se229  1  0.58647487  0.07749428  0.20237324  1
  Se  Se230  1  0.57042315  0.09014329  0.68524973  1
  Se  Se231  1  0.57964795  0.42050602  0.18950358  1
  Se  Se232  1  0.57923875  0.41931094  0.70154300  1
  Se  Se233  1  0.57681852  0.74811096  0.18515551  1
  Se  Se234  1  0.58436963  0.75031362  0.70017369  1
  Se  Se235  1  0.91775720  0.07663749  0.19844965  1
  Se  Se236  1  0.91347498  0.08716943  0.70127077  1
  Se  Se237  1  0.92011473  0.40773567  0.20171375  1
  Se  Se238  1  0.91702962  0.42698017  0.68802781  1
  Se  Se239  1  0.91812523  0.75481016  0.19865847  1
  Se  Se240  1  0.91935891  0.76534650  0.68374737  1
  Se  Se241  1  0.08365228  0.24819127  0.19083737  1
  Se  Se242  1  0.08819998  0.24082147  0.68693690  1
  Se  Se243  1  0.08315584  0.59625397  0.20332019  1
  Se  Se244  1  0.09402758  0.57468462  0.69246593  1
  Se  Se245  1  0.08536013  0.92278893  0.19443857  1
  Se  Se246  1  0.08187638  0.91225290  0.70297660  1
  Se  Se247  1  0.41802802  0.24933329  0.20003604  1
  Se  Se248  1  0.40895896  0.25365387  0.69875977  1
  Se  Se249  1  0.40866044  0.58514640  0.19151533  1
  Se  Se250  1  0.41360967  0.58931698  0.70416739  1
  Se  Se251  1  0.41609366  0.90676937  0.18517354  1
  Se  Se252  1  0.41182117  0.91237366  0.69790827  1
  Se  Se253  1  0.75782599  0.24161275  0.18481759  1
  Se  Se254  1  0.74816685  0.25741654  0.70125672  1
  Se  Se255  1  0.76018469  0.57472818  0.19120109  1
  Se  Se256  1  0.74955105  0.59199528  0.70084753  1
  Se  Se257  1  0.74388662  0.91431203  0.19711377  1
  Se  Se258  1  0.75521996  0.91358703  0.68712966  1
