# generated using pymatgen
data_In86Cu29Se144
_symmetry_space_group_name_H-M   'P 1'
_cell_length_a   17.53061994
_cell_length_b   17.52866951
_cell_length_c   23.37066524
_cell_angle_alpha   90.00415128
_cell_angle_beta   90.00955037
_cell_angle_gamma   90.00359740
_symmetry_Int_Tables_number   1
_chemical_formula_structural   In86Cu29Se144
_chemical_formula_sum   'In86 Cu29 Se144'
_cell_volume   7181.53520986
_cell_formula_units_Z   1
loop_
 _symmetry_equiv_pos_site_id
 _symmetry_equiv_pos_as_xyz
  1  'x, y, z'
loop_
 _atom_site_type_symbol
 _atom_site_label
 _atom_site_symmetry_multiplicity
 _atom_site_fract_x
 _atom_site_fract_y
 _atom_site_fract_z
 _atom_site_occupancy
  In  In0  1  -0.00739939  0.15111134  0.13315306  1
  In  In1  1  -0.00331066  0.16722568  0.62485685  1
  In  In2  1  0.01507828  0.50445555  0.11791476  1
  In  In3  1  0.00606249  0.49254637  0.63113169  1
  In  In4  1  -0.00537673  0.83703109  0.13339519  1
  In  In5  1  -0.00064347  0.83661396  0.62668440  1
  In  In6  1  0.34583197  0.17671227  0.13814564  1
  In  In7  1  0.34785541  0.18948191  0.59978044  1
  In  In8  1  0.32714739  0.50783593  0.13609634  1
  In  In9  1  0.30674676  0.48328418  0.59013901  1
  In  In10  1  0.32739124  0.81938813  0.13018301  1
  In  In11  1  0.33899255  0.83539264  0.59886781  1
  In  In12  1  0.66256410  0.17323645  0.12913532  1
  In  In13  1  0.67959026  0.17063736  0.61524070  1
  In  In14  1  0.66827060  0.49121750  0.11855643  1
  In  In15  1  0.66385713  0.50307648  0.63295210  1
  In  In16  1  0.66828389  0.82562369  0.11435136  1
  In  In17  1  0.66310907  0.82863086  0.61641049  1
  In  In18  1  0.15925192  0.00809295  0.38914016  1
  In  In19  1  0.16430734  0.01275751  0.86925274  1
  In  In20  1  0.18436451  0.32518559  0.39516481  1
  In  In21  1  0.17108414  0.34090827  0.86535110  1
  In  In22  1  0.16347642  0.66779514  0.38492147  1
  In  In23  1  0.15269243  0.66741095  0.87138249  1
  In  In24  1  0.49066789  0.00455913  0.40139012  1
  In  In25  1  0.49576437  -0.01232229  0.86908650  1
  In  In26  1  0.47364704  0.35588453  0.40601674  1
  In  In27  1  0.49474401  0.33521411  0.85956678  1
  In  In28  1  0.47470448  0.67922425  0.39613746  1
  In  In29  1  0.51359757  0.66908904  0.87030362  1
  In  In30  1  0.83642544  -0.00381413  0.38450688  1
  In  In31  1  0.83389056  -0.01171213  0.86900479  1
  In  In32  1  0.82557854  0.32555884  0.38043474  1
  In  In33  1  0.84651955  0.34695274  0.85677566  1
  In  In34  1  0.84946701  0.67107711  0.37284630  1
  In  In35  1  0.83371010  0.66434756  0.87373172  1
  In  In36  1  0.00611919  0.16211952  0.38132228  1
  In  In37  1  -0.00905556  0.16396885  0.85276612  1
  In  In38  1  0.00467146  0.51870182  0.37535423  1
  In  In39  1  -0.00023827  0.50294171  0.87226833  1
  In  In40  1  -0.00357907  0.83304491  0.38162974  1
  In  In41  1  -0.01025138  0.81770764  0.85813382  1
  In  In42  1  0.31848809  0.17801687  0.40100712  1
  In  In43  1  0.32279547  0.17596888  0.86497633  1
  In  In44  1  0.33081053  0.50547358  0.38654101  1
  In  In45  1  0.33223187  0.48812157  0.86959742  1
  In  In46  1  0.33279374  0.82399114  0.38856594  1
  In  In47  1  0.34547717  0.83924122  0.87180463  1
  In  In48  1  0.66695252  0.15950419  0.39386379  1
  In  In49  1  0.66217437  0.17153753  0.86432784  1
  In  In50  1  0.65930000  0.48743507  0.37408790  1
  In  In51  1  0.67838204  0.52074049  0.85795232  1
  In  In52  1  0.66229390  0.85057849  0.39350783  1
  In  In53  1  0.68320077  0.81263067  0.88952744  1
  In  In54  1  0.15808640  -0.01507730  0.13315429  1
  In  In55  1  0.16284285  -0.00264197  0.61418847  1
  In  In56  1  0.16378836  0.34944713  0.12910126  1
  In  In57  1  0.16777152  0.33171240  0.61507657  1
  In  In58  1  0.17408134  0.65924524  0.13451570  1
  In  In59  1  0.16432880  0.66137353  0.61360484  1
  In  In60  1  0.51689412  -0.00137817  0.13419961  1
  In  In61  1  0.50014120  -0.00136471  0.60271140  1
  In  In62  1  0.49861059  0.32791503  0.13314820  1
  In  In63  1  0.49305129  0.34237155  0.61947936  1
  In  In64  1  0.49211365  0.66547393  0.12824315  1
  In  In65  1  0.50489297  0.66756189  0.61830907  1
  In  In66  1  0.85041395  -0.00837264  0.13145444  1
  In  In67  1  0.84793349  0.01760103  0.61242333  1
  In  In68  1  0.82166188  0.33148308  0.12267087  1
  In  In69  1  0.84397613  0.31147048  0.64183157  1
  In  In70  1  0.84583426  0.67729352  0.11466672  1
  In  In71  1  0.82574166  0.67614972  0.63027699  1
  In  In72  1  0.66387912  0.32851651  0.25021913  1
  In  In73  1  0.00941326  0.33119481  0.25732077  1
  In  In74  1  0.32724837  -0.00035218  0.27003437  1
  In  In75  1  0.50581209  0.16467308  -0.00430658  1
  In  In76  1  0.33096092  0.66005559  0.72836230  1
  In  In77  1  0.66829885  -0.00104366  0.26647088  1
  In  In78  1  0.16621144  0.17079044  -0.00745393  1
  In  In79  1  0.16158467  0.82598092  -0.00137562  1
  In  In80  1  0.83271620  0.49734421  0.50285595  1
  In  In81  1  0.50285780  0.50319145  -0.00196941  1
  In  In82  1  0.67268465  0.00003368  0.73848947  1
  In  In83  1  0.33335176  0.00466181  0.73013324  1
  In  In84  1  0.83337649  0.16633351  0.00341701  1
  In  In85  1  0.66321762  0.66745174  0.25020697  1
  Cu  Cu86  1  0.16525775  0.49999717  0.74011953  1
  Cu  Cu87  1  0.83134449  0.50562944  0.74959245  1
  Cu  Cu88  1  0.17444389  0.49902554  0.25855639  1
  Cu  Cu89  1  0.66957911  0.32686069  0.51037391  1
  Cu  Cu90  1  0.51070075  0.82798665  0.74224698  1
  Cu  Cu91  1  -0.00128180  0.67309510  0.50304969  1
  Cu  Cu92  1  0.32799660  0.34030690  -0.00072013  1
  Cu  Cu93  1  0.48314359  0.83232760  0.26009358  1
  Cu  Cu94  1  0.00165724  0.33387550  0.50568039  1
  Cu  Cu95  1  0.48478942  0.50261681  0.26420936  1
  Cu  Cu96  1  0.83283931  0.83298377  0.25629272  1
  Cu  Cu97  1  0.67413724  0.34421219  -0.01352185  1
  Cu  Cu98  1  -0.00317510  0.00014330  0.50308046  1
  Cu  Cu99  1  0.16452150  0.17409287  0.73947654  1
  Cu  Cu100  1  0.17217103  0.16683227  0.26270000  1
  Cu  Cu101  1  0.67060968  -0.01051842  0.00195767  1
  Cu  Cu102  1  0.84424585  0.50317603  0.24273128  1
  Cu  Cu103  1  0.15492442  0.82437226  0.25916049  1
  Cu  Cu104  1  0.16325834  0.84141846  0.74000904  1
  Cu  Cu105  1  0.67060120  0.66256851  0.50087457  1
  Cu  Cu106  1  -0.00325671  0.34031151  -0.00723734  1
  Cu  Cu107  1  0.49492100  0.17089467  0.73445302  1
  Cu  Cu108  1  0.49370528  0.49391175  0.74138631  1
  Cu  Cu109  1  -0.00041209  -0.00923556  -0.00242359  1
  Cu  Cu110  1  -0.00353900  0.66084830  -0.00343564  1
  Cu  Cu111  1  0.33191312  0.66243180  0.00550644  1
  Cu  Cu112  1  0.83793246  0.83313572  0.74826764  1
  Cu  Cu113  1  0.34887335  -0.00866119  0.00146047  1
  Cu  Cu114  1  0.49593719  0.18332494  0.27063125  1
  Se  Se115  1  0.08077979  0.07356343  0.05630998  1
  Se  Se116  1  0.07948503  0.08910844  0.55216068  1
  Se  Se117  1  0.08879633  0.41430333  0.04746868  1
  Se  Se118  1  0.08369698  0.42501317  0.55151978  1
  Se  Se119  1  0.07529376  0.73864680  0.06310814  1
  Se  Se120  1  0.08357843  0.75778742  0.55465433  1
  Se  Se121  1  0.41628608  0.07931305  0.06431676  1
  Se  Se122  1  0.39365191  0.06840134  0.54612986  1
  Se  Se123  1  0.41393810  0.41305011  0.06164104  1
  Se  Se124  1  0.41983877  0.41652859  0.53993311  1
  Se  Se125  1  0.41306501  0.74911311  0.05698542  1
  Se  Se126  1  0.42072664  0.73813064  0.54382754  1
  Se  Se127  1  0.74348708  0.07439237  0.06532263  1
  Se  Se128  1  0.73335347  0.06241436  0.55010099  1
  Se  Se129  1  0.75611048  0.41861918  0.04740046  1
  Se  Se130  1  0.75249234  0.40788583  0.56939760  1
  Se  Se131  1  0.75467073  0.74983463  0.04719271  1
  Se  Se132  1  0.75494233  0.74888283  0.54955480  1
  Se  Se133  1  0.25712503  0.25273092  0.06150808  1
  Se  Se134  1  0.24756379  0.25885119  0.53837456  1
  Se  Se135  1  0.24824000  0.57949616  0.05787768  1
  Se  Se136  1  0.27243004  0.61502579  0.54523635  1
  Se  Se137  1  0.25442392  0.92032123  0.05812270  1
  Se  Se138  1  0.25069688  0.92646720  0.54175911  1
  Se  Se139  1  0.59416892  0.26675671  0.05189306  1
  Se  Se140  1  0.57719781  0.24707058  0.55818156  1
  Se  Se141  1  0.59142641  0.59475731  0.05835550  1
  Se  Se142  1  0.59012218  0.57729037  0.55398242  1
  Se  Se143  1  0.57915697  0.91609850  0.05579297  1
  Se  Se144  1  0.57550998  0.89999929  0.54471473  1
  Se  Se145  1  0.93131394  0.25573377  0.06077645  1
  Se  Se146  1  0.91282869  0.25124577  0.55451121  1
  Se  Se147  1  0.91739511  0.57566018  0.05292277  1
  Se  Se148  1  0.92055634  0.58910963  0.56339809  1
  Se  Se149  1  0.91770798  0.91016709  0.05415803  1
  Se  Se150  1  0.91489388  0.91144477  0.55323227  1
  Se  Se151  1  0.08360460  0.24682798  0.45253940  1
  Se  Se152  1  0.07005670  0.25306354  0.93088343  1
  Se  Se153  1  0.08148350  0.58307458  0.45571557  1
  Se  Se154  1  0.08550815  0.58117942  0.94520027  1
  Se  Se155  1  0.08039543  0.91372445  0.45132602  1
  Se  Se156  1  0.07954355  0.91715218  0.93256579  1
  Se  Se157  1  0.43480065  0.23127173  0.45584745  1
  Se  Se158  1  0.40882527  0.25832491  0.94022666  1
  Se  Se159  1  0.44231819  0.55608836  0.45140094  1
  Se  Se160  1  0.40901441  0.58937709  0.93618846  1
  Se  Se161  1  0.41959427  0.90116551  0.45739465  1
  Se  Se162  1  0.42896767  0.90745771  0.94831346  1
  Se  Se163  1  0.75624084  0.24648106  0.45710482  1
  Se  Se164  1  0.75188578  0.25334455  0.93378643  1
  Se  Se165  1  0.74821596  0.58530461  0.43519993  1
  Se  Se166  1  0.74065531  0.59047386  0.94117803  1
  Se  Se167  1  0.74568737  0.93373470  0.45958096  1
  Se  Se168  1  0.75942359  0.91496115  0.94708568  1
  Se  Se169  1  0.26211757  0.06341895  0.45853278  1
  Se  Se170  1  0.26715017  0.07421835  0.94208991  1
  Se  Se171  1  0.24618396  0.42868543  0.45893108  1
  Se  Se172  1  0.24491853  0.41961485  0.94334722  1
  Se  Se173  1  0.25338417  0.73587326  0.45757086  1
  Se  Se174  1  0.25885244  0.74327521  0.93735861  1
  Se  Se175  1  0.58681371  0.07868238  0.46322779  1
  Se  Se176  1  0.59619281  0.07003173  0.93740544  1
  Se  Se177  1  0.59319464  0.41623246  0.45626161  1
  Se  Se178  1  0.58528731  0.41686671  0.92876497  1
  Se  Se179  1  0.58646224  0.74686094  0.44873367  1
  Se  Se180  1  0.56533628  0.76390666  0.94375378  1
  Se  Se181  1  0.91599932  0.08743955  0.45019943  1
  Se  Se182  1  0.92512568  0.08024945  0.93872915  1
  Se  Se183  1  0.92573805  0.41219495  0.43863448  1
  Se  Se184  1  0.91068595  0.42045692  0.94008547  1
  Se  Se185  1  0.90962680  0.75320327  0.45235982  1
  Se  Se186  1  0.92089104  0.74990120  0.94133767  1
  Se  Se187  1  0.25531887  0.24844474  0.31502891  1
  Se  Se188  1  0.24976063  0.25819956  0.79217364  1
  Se  Se189  1  0.24952681  0.58653252  0.31485521  1
  Se  Se190  1  0.24526571  0.58120069  0.80290229  1
  Se  Se191  1  0.23528806  0.90316644  0.32088741  1
  Se  Se192  1  0.24908450  0.91595473  0.80249965  1
  Se  Se193  1  0.58383863  0.25683538  0.32847555  1
  Se  Se194  1  0.57808207  0.24833311  0.79444183  1
  Se  Se195  1  0.57353365  0.58426481  0.31614027  1
  Se  Se196  1  0.57438945  0.58349150  0.79269381  1
  Se  Se197  1  0.56378230  0.91508110  0.31815750  1
  Se  Se198  1  0.58867030  0.90835145  0.80391250  1
  Se  Se199  1  0.91253391  0.24316009  0.31083826  1
  Se  Se200  1  0.91423872  0.25335953  0.78875792  1
  Se  Se201  1  0.92198304  0.58731382  0.29875681  1
  Se  Se202  1  0.91929061  0.58768516  0.80234345  1
  Se  Se203  1  0.91473570  0.91705726  0.31042051  1
  Se  Se204  1  0.92307210  0.92176971  0.79586688  1
  Se  Se205  1  0.08641743  0.08071240  0.30881030  1
  Se  Se206  1  0.08727133  0.08375893  0.79234505  1
  Se  Se207  1  0.09693527  0.41785815  0.32093505  1
  Se  Se208  1  0.08212300  0.42103465  0.79983885  1
  Se  Se209  1  0.07341354  0.74089941  0.31391228  1
  Se  Se210  1  0.08845633  0.74909290  0.79270010  1
  Se  Se211  1  0.41919382  0.09244258  0.32425623  1
  Se  Se212  1  0.42255528  0.09027840  0.80263622  1
  Se  Se213  1  0.40780113  0.41318910  0.31632848  1
  Se  Se214  1  0.40510994  0.41280946  0.79211597  1
  Se  Se215  1  0.40472608  0.74387302  0.31042756  1
  Se  Se216  1  0.41852165  0.75039209  0.79637596  1
  Se  Se217  1  0.75876225  0.09547902  0.31611731  1
  Se  Se218  1  0.75900992  0.08936820  0.80396004  1
  Se  Se219  1  0.76278380  0.42377561  0.30335689  1
  Se  Se220  1  0.74301200  0.41634185  0.79608124  1
  Se  Se221  1  0.74603364  0.76041597  0.31705895  1
  Se  Se222  1  0.75170775  0.75167735  0.80337411  1
  Se  Se223  1  0.24663114  0.08438492  0.19490830  1
  Se  Se224  1  0.24707298  0.10092825  0.67534254  1
  Se  Se225  1  0.25317462  0.41330023  0.20285709  1
  Se  Se226  1  0.24874882  0.42378060  0.68162510  1
  Se  Se227  1  0.24654999  0.74886731  0.20556656  1
  Se  Se228  1  0.24820642  0.76640532  0.67865521  1
  Se  Se229  1  0.57558722  0.10027703  0.20795156  1
  Se  Se230  1  0.57217123  0.08299623  0.68074430  1
  Se  Se231  1  0.57241010  0.43208661  0.19857892  1
  Se  Se232  1  0.58236248  0.40915266  0.69430686  1
  Se  Se233  1  0.57183988  0.76545219  0.19554362  1
  Se  Se234  1  0.59166006  0.74177640  0.69077211  1
  Se  Se235  1  0.91259502  0.07838878  0.20593133  1
  Se  Se236  1  0.91244157  0.08788343  0.69491263  1
  Se  Se237  1  0.91966405  0.41317495  0.18734891  1
  Se  Se238  1  0.91389281  0.41935667  0.69812077  1
  Se  Se239  1  0.91179177  0.74834111  0.19907347  1
  Se  Se240  1  0.92210493  0.74752233  0.69657794  1
  Se  Se241  1  0.09493543  0.23826232  0.19181629  1
  Se  Se242  1  0.08083139  0.25975084  0.68799269  1
  Se  Se243  1  0.08691229  0.57483697  0.19985504  1
  Se  Se244  1  0.08528937  0.59059602  0.69157648  1
  Se  Se245  1  0.07651171  0.91465228  0.20752594  1
  Se  Se246  1  0.08085759  0.92940100  0.69215250  1
  Se  Se247  1  0.41547606  0.26290409  0.21155297  1
  Se  Se248  1  0.40808419  0.25599013  0.68791504  1
  Se  Se249  1  0.41269544  0.58973892  0.20328793  1
  Se  Se250  1  0.41612998  0.56434393  0.67260366  1
  Se  Se251  1  0.41371562  0.91965192  0.19671618  1
  Se  Se252  1  0.42689251  0.90584369  0.68146301  1
  Se  Se253  1  0.76359032  0.23457333  0.19892488  1
  Se  Se254  1  0.73977482  0.24204413  0.70015657  1
  Se  Se255  1  0.75416343  0.57945406  0.18700787  1
  Se  Se256  1  0.74606076  0.59026087  0.69927143  1
  Se  Se257  1  0.74764287  0.90843047  0.19472468  1
  Se  Se258  1  0.76270770  0.90909297  0.68089817  1
