# generated using pymatgen
data_In86Cu29Se144
_symmetry_space_group_name_H-M   'P 1'
_cell_length_a   17.54675757
_cell_length_b   17.54846408
_cell_length_c   23.39997843
_cell_angle_alpha   89.97017678
_cell_angle_beta   89.99794787
_cell_angle_gamma   90.00673041
_symmetry_Int_Tables_number   1
_chemical_formula_structural   In86Cu29Se144
_chemical_formula_sum   'In86 Cu29 Se144'
_cell_volume   7205.28861985
_cell_formula_units_Z   1
loop_
 _symmetry_equiv_pos_site_id
 _symmetry_equiv_pos_as_xyz
  1  'x, y, z'
loop_
 _atom_site_type_symbol
 _atom_site_label
 _atom_site_symmetry_multiplicity
 _atom_site_fract_x
 _atom_site_fract_y
 _atom_site_fract_z
 _atom_site_occupancy
  In  In0  1  -0.00570264  0.15765760  0.11882864  1
  In  In1  1  0.00733543  0.16415373  0.62949788  1
  In  In2  1  0.00884579  0.50018632  0.12434110  1
  In  In3  1  -0.00894953  0.50612744  0.62916770  1
  In  In4  1  -0.00110612  0.82492870  0.14203352  1
  In  In5  1  -0.00470545  0.82843096  0.61155565  1
  In  In6  1  0.33961171  0.17485888  0.12418889  1
  In  In7  1  0.34314124  0.18030987  0.62682340  1
  In  In8  1  0.32032315  0.49390533  0.11633723  1
  In  In9  1  0.34730554  0.48848665  0.62990061  1
  In  In10  1  0.33949909  0.84380331  0.12537651  1
  In  In11  1  0.31690628  0.83328119  0.61984774  1
  In  In12  1  0.66117653  0.16681702  0.12887563  1
  In  In13  1  0.67748288  0.17254214  0.62629961  1
  In  In14  1  0.65735482  0.49895284  0.12085771  1
  In  In15  1  0.66067869  0.50082989  0.62355503  1
  In  In16  1  0.64921774  0.84558184  0.15401020  1
  In  In17  1  0.65822809  0.80899208  0.61342265  1
  In  In18  1  0.15671775  -0.00951921  0.35893331  1
  In  In19  1  0.17153659  -0.00379555  0.88965184  1
  In  In20  1  0.16677165  0.32503645  0.37301223  1
  In  In21  1  0.17260447  0.33490162  0.87624905  1
  In  In22  1  0.17387207  0.68658913  0.37587720  1
  In  In23  1  0.20183644  0.63779365  0.91283431  1
  In  In24  1  0.50413492  -0.00501730  0.34722855  1
  In  In25  1  0.51482797  0.01285859  0.87932199  1
  In  In26  1  0.50210598  0.33511875  0.36441479  1
  In  In27  1  0.49752682  0.34487052  0.88075257  1
  In  In28  1  0.50462339  0.64721400  0.37739376  1
  In  In29  1  0.48348967  0.64963191  0.86878239  1
  In  In30  1  0.81637684  -0.02863252  0.34759435  1
  In  In31  1  0.84038617  0.00388923  0.87714237  1
  In  In32  1  0.82058723  0.34752508  0.37896023  1
  In  In33  1  0.82849506  0.32794963  0.87276120  1
  In  In34  1  0.83554695  0.66219187  0.36630931  1
  In  In35  1  0.82446747  0.67497800  0.87165876  1
  In  In36  1  0.01018503  0.15806369  0.37162585  1
  In  In37  1  -0.00989424  0.17512271  0.88811574  1
  In  In38  1  -0.02513818  0.49528495  0.37646914  1
  In  In39  1  0.01676153  0.50332844  0.87505659  1
  In  In40  1  -0.00031411  0.83230252  0.36443768  1
  In  In41  1  0.00222285  0.84130732  0.87495780  1
  In  In42  1  0.34803444  0.17146371  0.35240524  1
  In  In43  1  0.32413150  0.17900612  0.88502425  1
  In  In44  1  0.34456308  0.50089105  0.37931097  1
  In  In45  1  0.34511412  0.49895288  0.88029071  1
  In  In46  1  0.32415508  0.83526358  0.37313945  1
  In  In47  1  0.33359149  0.81929446  0.88096087  1
  In  In48  1  0.65448273  0.17458492  0.35722814  1
  In  In49  1  0.63606580  0.21502879  0.92517245  1
  In  In50  1  0.66834257  0.49890805  0.36847376  1
  In  In51  1  0.65329515  0.48749390  0.87268589  1
  In  In52  1  0.66960045  0.82459586  0.36182272  1
  In  In53  1  0.67577505  0.83167569  0.87256334  1
  In  In54  1  0.17021744  0.00172397  0.12164999  1
  In  In55  1  0.16590340  -0.00840917  0.62041059  1
  In  In56  1  0.18108959  0.34020117  0.11786918  1
  In  In57  1  0.17185681  0.32834565  0.63574186  1
  In  In58  1  0.16030550  0.65824116  0.11803981  1
  In  In59  1  0.16080228  0.67644444  0.62523777  1
  In  In60  1  0.48072999  0.02289065  0.15530469  1
  In  In61  1  0.50042846  0.00923605  0.62137648  1
  In  In62  1  0.50262376  0.32597560  0.12392376  1
  In  In63  1  0.49101325  0.35080641  0.63221591  1
  In  In64  1  0.50689129  0.67122923  0.12307105  1
  In  In65  1  0.51281925  0.65056577  0.63186118  1
  In  In66  1  0.82154809  0.00676230  0.14449630  1
  In  In67  1  0.84264157  -0.00353628  0.61698981  1
  In  In68  1  0.82345902  0.31914529  0.11910655  1
  In  In69  1  0.81560100  0.34851473  0.63823596  1
  In  In70  1  0.81677805  0.68520752  0.14041224  1
  In  In71  1  0.81076324  0.64304208  0.59705922  1
  In  In72  1  0.49983372  0.83609183  0.00819945  1
  In  In73  1  0.50004573  0.17042181  0.48732093  1
  In  In74  1  -0.00007664  0.67056191  0.75215508  1
  In  In75  1  0.34211601  0.66779611  0.25260237  1
  In  In76  1  -0.00435169  0.33483561  0.24679636  1
  In  In77  1  0.83884912  0.16304720  0.49475836  1
  In  In78  1  -0.00027687  0.00299424  0.74988595  1
  In  In79  1  0.67460303  0.00479635  0.75460666  1
  In  In80  1  0.83541928  0.50045651  0.00674994  1
  In  In81  1  0.50134949  0.82537408  0.48571124  1
  In  In82  1  0.17063817  0.16295638  0.50119329  1
  In  In83  1  0.83278110  0.83722874  0.01151847  1
  In  In84  1  0.16705634  0.50540739  0.49968283  1
  In  In85  1  0.33258765  0.00489379  0.74412426  1
  Cu  Cu86  1  0.65948838  0.66563622  -0.00078415  1
  Cu  Cu87  1  0.50455566  0.18144851  0.76258393  1
  Cu  Cu88  1  0.32206952  0.00137093  0.48700456  1
  Cu  Cu89  1  0.01018935  0.33799990  0.00146720  1
  Cu  Cu90  1  -0.00745545  0.33641648  0.51016458  1
  Cu  Cu91  1  0.34138830  0.00342602  0.00885766  1
  Cu  Cu92  1  0.65822527  0.33896207  0.49944243  1
  Cu  Cu93  1  0.00127272  0.67363467  0.49042871  1
  Cu  Cu94  1  0.49596005  0.82043879  0.74881727  1
  Cu  Cu95  1  0.16474891  0.50524596  0.24702674  1
  Cu  Cu96  1  0.82104514  0.49898085  0.24778576  1
  Cu  Cu97  1  0.00214065  0.00037813  0.00709705  1
  Cu  Cu98  1  0.67162214  0.00804922  0.01727729  1
  Cu  Cu99  1  0.82256342  0.82046076  0.73814642  1
  Cu  Cu100  1  0.17899524  0.49843046  0.76032786  1
  Cu  Cu101  1  0.16884118  0.82144376  0.75626661  1
  Cu  Cu102  1  0.83426975  0.17280762  0.24828119  1
  Cu  Cu103  1  0.16246954  0.17414721  0.75763535  1
  Cu  Cu104  1  0.17229497  0.83567424  0.24601202  1
  Cu  Cu105  1  0.50420418  0.50201360  0.75316800  1
  Cu  Cu106  1  0.82468581  0.17603972  0.76408176  1
  Cu  Cu107  1  0.49951678  0.49374531  0.24705904  1
  Cu  Cu108  1  0.34017125  0.33069733  0.00037417  1
  Cu  Cu109  1  0.82749846  0.50045756  0.74605410  1
  Cu  Cu110  1  0.34054160  0.66712972  0.50256873  1
  Cu  Cu111  1  -0.00085413  0.67329254  0.01010621  1
  Cu  Cu112  1  -0.00370188  -0.01595070  0.48355382  1
  Cu  Cu113  1  0.17614481  0.17124398  0.24066980  1
  Cu  Cu114  1  0.66855998  -0.01106029  0.48376357  1
  Se  Se115  1  0.09014504  0.08821427  0.05205418  1
  Se  Se116  1  0.06827153  0.06844430  0.55047013  1
  Se  Se117  1  0.09154263  0.42371294  0.05342182  1
  Se  Se118  1  0.08182587  0.41244564  0.56411401  1
  Se  Se119  1  0.07970898  0.75982296  0.06230570  1
  Se  Se120  1  0.08764038  0.75013466  0.54659073  1
  Se  Se121  1  0.42662999  0.08261982  0.06283184  1
  Se  Se122  1  0.40291031  0.07994477  0.55036937  1
  Se  Se123  1  0.41829620  0.41406173  0.05784414  1
  Se  Se124  1  0.41716939  0.41404977  0.55105161  1
  Se  Se125  1  0.40407890  0.74042981  0.05637267  1
  Se  Se126  1  0.42007280  0.74951724  0.56283978  1
  Se  Se127  1  0.76095276  0.08945666  0.06488927  1
  Se  Se128  1  0.73944082  0.07312823  0.55035215  1
  Se  Se129  1  0.73773104  0.40521559  0.05127579  1
  Se  Se130  1  0.74635949  0.41497653  0.55514703  1
  Se  Se131  1  0.72969079  0.75160053  0.06178333  1
  Se  Se132  1  0.76874343  0.76770203  0.54964571  1
  Se  Se133  1  0.25282189  0.24680812  0.05062179  1
  Se  Se134  1  0.25814895  0.26182440  0.55480513  1
  Se  Se135  1  0.24905859  0.58720434  0.04834535  1
  Se  Se136  1  0.25796768  0.58917145  0.56401987  1
  Se  Se137  1  0.25400360  0.91687640  0.05356641  1
  Se  Se138  1  0.24546044  0.91765329  0.54541032  1
  Se  Se139  1  0.58568432  0.24448499  0.05231345  1
  Se  Se140  1  0.58408829  0.25182719  0.55977051  1
  Se  Se141  1  0.57554457  0.58175773  0.05071148  1
  Se  Se142  1  0.59074676  0.59032170  0.55205056  1
  Se  Se143  1  0.58791170  0.92397866  0.07029292  1
  Se  Se144  1  0.58427350  0.92157967  0.55216460  1
  Se  Se145  1  0.92402370  0.25585113  0.05367081  1
  Se  Se146  1  0.91389610  0.25167506  0.56791234  1
  Se  Se147  1  0.91259487  0.59926919  0.06965092  1
  Se  Se148  1  0.92882491  0.58298369  0.54760270  1
  Se  Se149  1  0.92201762  0.92505581  0.07111058  1
  Se  Se150  1  0.91121750  0.91111333  0.54345020  1
  Se  Se151  1  0.07100939  0.25661938  0.44817435  1
  Se  Se152  1  0.08994370  0.25122964  0.94695955  1
  Se  Se153  1  0.07923340  0.58739498  0.43184183  1
  Se  Se154  1  0.07571745  0.58475423  0.95570189  1
  Se  Se155  1  0.09136613  0.90793035  0.43679760  1
  Se  Se156  1  0.07935526  0.91425072  0.95158550  1
  Se  Se157  1  0.40377963  0.25871979  0.43547810  1
  Se  Se158  1  0.42448926  0.24713192  0.94776536  1
  Se  Se159  1  0.42124354  0.57901142  0.45375721  1
  Se  Se160  1  0.41700729  0.58709423  0.95280748  1
  Se  Se161  1  0.41789440  0.93054676  0.43335438  1
  Se  Se162  1  0.41477779  0.92663548  0.93916282  1
  Se  Se163  1  0.73440200  0.24889684  0.44117645  1
  Se  Se164  1  0.77651431  0.23677454  0.95031797  1
  Se  Se165  1  0.76834543  0.56521537  0.43309045  1
  Se  Se166  1  0.74543891  0.58809848  0.94183099  1
  Se  Se167  1  0.75266285  0.90547439  0.43422013  1
  Se  Se168  1  0.74166857  0.92669819  0.94790331  1
  Se  Se169  1  0.25058416  0.08576875  0.42534590  1
  Se  Se170  1  0.25484144  0.08379313  0.95280598  1
  Se  Se171  1  0.25239313  0.40980090  0.44187400  1
  Se  Se172  1  0.25657726  0.41501737  0.94602508  1
  Se  Se173  1  0.25766744  0.75367021  0.45191675  1
  Se  Se174  1  0.22964022  0.77300267  0.94906609  1
  Se  Se175  1  0.58654592  0.07215854  0.42953111  1
  Se  Se176  1  0.58343620  0.08290568  0.96062933  1
  Se  Se177  1  0.58052305  0.41566085  0.43647527  1
  Se  Se178  1  0.58256914  0.41960438  0.95286453  1
  Se  Se179  1  0.60076737  0.73366346  0.43898608  1
  Se  Se180  1  0.58372889  0.74991569  0.93765074  1
  Se  Se181  1  0.91522308  0.06981915  0.42864819  1
  Se  Se182  1  0.91541467  0.07983376  0.95313159  1
  Se  Se183  1  0.90807810  0.41376191  0.45402587  1
  Se  Se184  1  0.92563749  0.41580338  0.94098898  1
  Se  Se185  1  0.91654207  0.75144791  0.43416866  1
  Se  Se186  1  0.91843226  0.74644478  0.94458502  1
  Se  Se187  1  0.25044971  0.25760027  0.29785683  1
  Se  Se188  1  0.25563427  0.25313393  0.80442626  1
  Se  Se189  1  0.24568944  0.58010622  0.31188932  1
  Se  Se190  1  0.25309912  0.58585801  0.81684745  1
  Se  Se191  1  0.25800041  0.91878244  0.29673407  1
  Se  Se192  1  0.24670782  0.91494244  0.80864065  1
  Se  Se193  1  0.55357169  0.23520520  0.29160779  1
  Se  Se194  1  0.59066951  0.25373106  0.82192975  1
  Se  Se195  1  0.58242502  0.57918969  0.29853132  1
  Se  Se196  1  0.58808998  0.58695999  0.80572437  1
  Se  Se197  1  0.59764383  0.91294360  0.29026759  1
  Se  Se198  1  0.57417879  0.90946441  0.80610844  1
  Se  Se199  1  0.91010426  0.24964302  0.31595012  1
  Se  Se200  1  0.92401371  0.25214988  0.80710813  1
  Se  Se201  1  0.91655566  0.57466672  0.29552582  1
  Se  Se202  1  0.90838886  0.57593597  0.81084098  1
  Se  Se203  1  0.94589341  0.94261419  0.30239796  1
  Se  Se204  1  0.90164500  0.90394499  0.80037860  1
  Se  Se205  1  0.08946098  0.09075543  0.29377722  1
  Se  Se206  1  0.08876938  0.08531405  0.81634740  1
  Se  Se207  1  0.08512254  0.42410518  0.31017356  1
  Se  Se208  1  0.08749312  0.41503109  0.80479697  1
  Se  Se209  1  0.09023135  0.74922529  0.29875415  1
  Se  Se210  1  0.09110295  0.74556366  0.81978321  1
  Se  Se211  1  0.41505860  0.07673666  0.28520108  1
  Se  Se212  1  0.42078463  0.09075827  0.81133190  1
  Se  Se213  1  0.40993998  0.41931199  0.30182149  1
  Se  Se214  1  0.41769637  0.41762518  0.80398621  1
  Se  Se215  1  0.42861499  0.75370428  0.31751966  1
  Se  Se216  1  0.40832696  0.74463303  0.80342777  1
  Se  Se217  1  0.74990496  0.08887415  0.30111421  1
  Se  Se218  1  0.74589864  0.09534028  0.82380130  1
  Se  Se219  1  0.74245752  0.40743554  0.29721219  1
  Se  Se220  1  0.75020521  0.41763056  0.80631660  1
  Se  Se221  1  0.76510243  0.75217959  0.29457002  1
  Se  Se222  1  0.73983660  0.74385796  0.79705123  1
  Se  Se223  1  0.25650488  0.08365759  0.18906116  1
  Se  Se224  1  0.23591185  0.09644858  0.68718707  1
  Se  Se225  1  0.24840067  0.41959256  0.19705649  1
  Se  Se226  1  0.25473206  0.41666389  0.69908269  1
  Se  Se227  1  0.24839747  0.74882685  0.18803935  1
  Se  Se228  1  0.25227449  0.74687198  0.69584945  1
  Se  Se229  1  0.61114455  0.05986529  0.19659154  1
  Se  Se230  1  0.57566349  0.09677465  0.69594900  1
  Se  Se231  1  0.58464620  0.41222653  0.19300020  1
  Se  Se232  1  0.58782532  0.41780763  0.69917786  1
  Se  Se233  1  0.57801132  0.73722130  0.20441926  1
  Se  Se234  1  0.58803357  0.74510778  0.69796765  1
  Se  Se235  1  0.92207244  0.08896926  0.20041847  1
  Se  Se236  1  0.89955063  0.09478815  0.69603788  1
  Se  Se237  1  0.90343950  0.42205115  0.18440289  1
  Se  Se238  1  0.91882464  0.41782024  0.69937933  1
  Se  Se239  1  0.90743855  0.75322229  0.21115937  1
  Se  Se240  1  0.91049218  0.74505997  0.68125733  1
  Se  Se241  1  0.08742089  0.25077960  0.18475180  1
  Se  Se242  1  0.07749591  0.25216859  0.70050959  1
  Se  Se243  1  0.08026128  0.58762984  0.19641118  1
  Se  Se244  1  0.09553830  0.57512309  0.69665708  1
  Se  Se245  1  0.08876389  0.92095982  0.19426097  1
  Se  Se246  1  0.08695119  0.90188002  0.69352152  1
  Se  Se247  1  0.41993435  0.25136136  0.19833887  1
  Se  Se248  1  0.41955762  0.25631339  0.70162208  1
  Se  Se249  1  0.41810621  0.57344118  0.18682526  1
  Se  Se250  1  0.41654330  0.58202779  0.69913031  1
  Se  Se251  1  0.43020341  0.89824744  0.19998958  1
  Se  Se252  1  0.42478965  0.90892682  0.68680370  1
  Se  Se253  1  0.74573582  0.25314924  0.19838309  1
  Se  Se254  1  0.74129877  0.25406241  0.70443267  1
  Se  Se255  1  0.73867876  0.58057960  0.19215525  1
  Se  Se256  1  0.75172792  0.58558272  0.68846918  1
  Se  Se257  1  0.77590581  0.88843978  0.20081600  1
  Se  Se258  1  0.74831911  0.91346053  0.68257577  1
