# generated using pymatgen
data_In86Cu29Se144
_symmetry_space_group_name_H-M   'P 1'
_cell_length_a   17.58425838
_cell_length_b   17.58435916
_cell_length_c   23.43983158
_cell_angle_alpha   89.98716156
_cell_angle_beta   90.01662309
_cell_angle_gamma   90.01782370
_symmetry_Int_Tables_number   1
_chemical_formula_structural   In86Cu29Se144
_chemical_formula_sum   'In86 Cu29 Se144'
_cell_volume   7247.78060825
_cell_formula_units_Z   1
loop_
 _symmetry_equiv_pos_site_id
 _symmetry_equiv_pos_as_xyz
  1  'x, y, z'
loop_
 _atom_site_type_symbol
 _atom_site_label
 _atom_site_symmetry_multiplicity
 _atom_site_fract_x
 _atom_site_fract_y
 _atom_site_fract_z
 _atom_site_occupancy
  In  In0  1  0.00589366  0.17653773  0.12355713  1
  In  In1  1  -0.00079229  0.16905519  0.61542141  1
  In  In2  1  0.00477500  0.49942208  0.13622915  1
  In  In3  1  -0.00559929  0.50453789  0.60472668  1
  In  In4  1  0.01164336  0.82063210  0.13597556  1
  In  In5  1  -0.00309999  0.82020970  0.60353376  1
  In  In6  1  0.31731196  0.16966592  0.11876359  1
  In  In7  1  0.33226424  0.17146254  0.62204235  1
  In  In8  1  0.34222640  0.50292625  0.11744595  1
  In  In9  1  0.34451646  0.50604944  0.62123255  1
  In  In10  1  0.32977165  0.83144860  0.12814329  1
  In  In11  1  0.31697532  0.82634034  0.62549979  1
  In  In12  1  0.67768931  0.15780750  0.12932876  1
  In  In13  1  0.67754778  0.16983090  0.62468114  1
  In  In14  1  0.65919021  0.50660995  0.13612876  1
  In  In15  1  0.66690474  0.49674928  0.61318235  1
  In  In16  1  0.65959443  0.83631832  0.13418670  1
  In  In17  1  0.65957512  0.82158200  0.61768109  1
  In  In18  1  0.17048281  -0.00447348  0.37393591  1
  In  In19  1  0.19127742  -0.01636326  0.90696684  1
  In  In20  1  0.15369987  0.34701092  0.37938804  1
  In  In21  1  0.17475328  0.32962448  0.89148465  1
  In  In22  1  0.16332368  0.66437866  0.37136757  1
  In  In23  1  0.17584140  0.65143475  0.88459146  1
  In  In24  1  0.49161605  -0.00596475  0.36284734  1
  In  In25  1  0.48661272  0.00028823  0.88338851  1
  In  In26  1  0.51447445  0.33768716  0.37516585  1
  In  In27  1  0.52278660  0.33330930  0.87474437  1
  In  In28  1  0.48976323  0.65569646  0.37145396  1
  In  In29  1  0.48853729  0.68074137  0.88496531  1
  In  In30  1  0.83212874  0.00710200  0.37683139  1
  In  In31  1  0.84961718  0.00174694  0.87718330  1
  In  In32  1  0.83020931  0.33444470  0.37807023  1
  In  In33  1  0.81470765  0.33491417  0.87276098  1
  In  In34  1  0.83368934  0.66527742  0.37512236  1
  In  In35  1  0.83553242  0.66056835  0.87284495  1
  In  In36  1  -0.01269791  0.17977409  0.38076125  1
  In  In37  1  0.00528400  0.16223858  0.88321862  1
  In  In38  1  0.00277002  0.50563498  0.37303567  1
  In  In39  1  0.00747662  0.50509395  0.87374540  1
  In  In40  1  0.01904900  0.80938569  0.38896934  1
  In  In41  1  0.00380278  0.84388070  0.87708407  1
  In  In42  1  0.33007152  0.15262494  0.36850532  1
  In  In43  1  0.33296720  0.16094263  0.88003249  1
  In  In44  1  0.31990256  0.50933033  0.38323087  1
  In  In45  1  0.32572116  0.50866688  0.88256006  1
  In  In46  1  0.29524720  0.80500216  0.33412321  1
  In  In47  1  0.33775389  0.82464825  0.88666552  1
  In  In48  1  0.67869356  0.17738573  0.36468257  1
  In  In49  1  0.66065964  0.19011095  0.87622364  1
  In  In50  1  0.66363340  0.49465265  0.37956103  1
  In  In51  1  0.66982919  0.48682082  0.87513224  1
  In  In52  1  0.67608377  0.84323639  0.36692943  1
  In  In53  1  0.66161604  0.81800884  0.88029409  1
  In  In54  1  0.17628421  0.00047532  0.12537034  1
  In  In55  1  0.16041419  -0.01069844  0.61664659  1
  In  In56  1  0.16055810  0.33294460  0.12014169  1
  In  In57  1  0.16237043  0.32656515  0.61732717  1
  In  In58  1  0.17211398  0.67189046  0.13111536  1
  In  In59  1  0.16987742  0.67077391  0.61752855  1
  In  In60  1  0.50661115  -0.00474931  0.12756683  1
  In  In61  1  0.50096722  0.00235715  0.62603700  1
  In  In62  1  0.49638029  0.34937121  0.12348140  1
  In  In63  1  0.50169515  0.34307304  0.62724171  1
  In  In64  1  0.49636883  0.66269309  0.13053149  1
  In  In65  1  0.49799332  0.65676940  0.62597007  1
  In  In66  1  0.82199082  0.00085380  0.12916441  1
  In  In67  1  0.83848049  0.00483796  0.61164596  1
  In  In68  1  0.84096932  0.32881774  0.13418759  1
  In  In69  1  0.83008993  0.33490061  0.61497397  1
  In  In70  1  0.83324351  0.66421276  0.14027690  1
  In  In71  1  0.82972614  0.65370520  0.59511289  1
  In  In72  1  0.00029646  -0.00350624  0.25382596  1
  In  In73  1  0.83537399  0.83724917  0.00922076  1
  In  In74  1  0.33327159  0.33205762  0.24350025  1
  In  In75  1  0.34074785  0.33916504  0.75122900  1
  In  In76  1  -0.00071427  0.33461996  0.74025258  1
  In  In77  1  0.33150993  0.00015707  0.76540397  1
  In  In78  1  0.49946998  0.17052286  0.49780071  1
  In  In79  1  0.83595398  0.49903891  -0.00309826  1
  In  In80  1  0.66723798  0.00619427  0.75091403  1
  In  In81  1  0.66222226  0.65585491  0.73976278  1
  In  In82  1  -0.00412842  0.66096528  0.74270016  1
  In  In83  1  0.00806748  0.00009112  0.74613339  1
  In  In84  1  0.49450876  0.83217839  0.48670151  1
  In  In85  1  0.49787107  0.17115615  0.00098302  1
  Cu  Cu86  1  -0.00109776  0.33222917  0.49488979  1
  Cu  Cu87  1  0.00466152  0.66777684  0.00541469  1
  Cu  Cu88  1  0.65374681  0.66594528  0.00893514  1
  Cu  Cu89  1  0.16589700  0.81710178  0.75070347  1
  Cu  Cu90  1  0.82718760  0.82753877  0.73661991  1
  Cu  Cu91  1  0.16466413  0.50800572  0.25332505  1
  Cu  Cu92  1  0.15945221  0.17463439  0.24753669  1
  Cu  Cu93  1  0.32471664  -0.00695565  0.49289009  1
  Cu  Cu94  1  0.83023286  0.49769605  0.25825801  1
  Cu  Cu95  1  0.83150724  0.17707825  0.74992920  1
  Cu  Cu96  1  0.82837521  0.17016105  0.25523324  1
  Cu  Cu97  1  0.66946310  0.66560991  0.49462748  1
  Cu  Cu98  1  0.32911107  0.33012422  0.49871408  1
  Cu  Cu99  1  -0.00564471  0.32870158  0.00614305  1
  Cu  Cu100  1  0.33138298  0.67026492  0.00788820  1
  Cu  Cu101  1  0.00547862  0.00465189  0.00729382  1
  Cu  Cu102  1  0.50666293  0.16323354  0.24758372  1
  Cu  Cu103  1  0.00239141  0.00220561  0.49342499  1
  Cu  Cu104  1  0.66414934  0.00638527  0.49096111  1
  Cu  Cu105  1  0.33010970  0.66689692  0.49292840  1
  Cu  Cu106  1  0.66989255  -0.00076828  0.00508554  1
  Cu  Cu107  1  0.16831981  0.49727064  0.75141523  1
  Cu  Cu108  1  0.17156438  0.15374172  0.75670534  1
  Cu  Cu109  1  0.67260575  0.33562817  0.00451828  1
  Cu  Cu110  1  0.48644895  0.83854874  0.76008141  1
  Cu  Cu111  1  0.50293159  0.50706075  0.74937155  1
  Cu  Cu112  1  0.50441369  0.82749338  0.24674867  1
  Cu  Cu113  1  0.83751342  0.83242330  0.25673929  1
  Cu  Cu114  1  0.49767388  0.49657589  0.25289330  1
  Se  Se115  1  0.08816874  0.08659179  0.06122122  1
  Se  Se116  1  0.08423169  0.08185914  0.55275597  1
  Se  Se117  1  0.07154211  0.41909525  0.05737538  1
  Se  Se118  1  0.08389625  0.41279177  0.54980449  1
  Se  Se119  1  0.08756238  0.75162469  0.05741815  1
  Se  Se120  1  0.09985083  0.75549178  0.54444215  1
  Se  Se121  1  0.41350030  0.07933717  0.06132533  1
  Se  Se122  1  0.40712744  0.07048991  0.55319593  1
  Se  Se123  1  0.41138099  0.41068430  0.04826767  1
  Se  Se124  1  0.41309398  0.40928983  0.55448451  1
  Se  Se125  1  0.41858256  0.74904431  0.06069785  1
  Se  Se126  1  0.41133694  0.74540847  0.55705415  1
  Se  Se127  1  0.75615662  0.08412190  0.05172951  1
  Se  Se128  1  0.74547260  0.08508659  0.55018355  1
  Se  Se129  1  0.75003729  0.41762324  0.06534687  1
  Se  Se130  1  0.76962762  0.43636959  0.54906042  1
  Se  Se131  1  0.74612522  0.74114624  0.06382938  1
  Se  Se132  1  0.74772363  0.75789974  0.54452836  1
  Se  Se133  1  0.26122589  0.27181751  0.05374278  1
  Se  Se134  1  0.24767122  0.24322923  0.55081442  1
  Se  Se135  1  0.24698655  0.58596133  0.05893832  1
  Se  Se136  1  0.25513344  0.58295331  0.55399269  1
  Se  Se137  1  0.25181602  0.91450673  0.05622989  1
  Se  Se138  1  0.24759062  0.90848558  0.55030321  1
  Se  Se139  1  0.59208993  0.25411399  0.06404034  1
  Se  Se140  1  0.58906689  0.25749585  0.55834191  1
  Se  Se141  1  0.57714414  0.57587782  0.05975377  1
  Se  Se142  1  0.58352516  0.58990063  0.55222606  1
  Se  Se143  1  0.58830569  0.91385191  0.05571555  1
  Se  Se144  1  0.58419794  0.92505004  0.55120129  1
  Se  Se145  1  0.90862536  0.24664942  0.05685056  1
  Se  Se146  1  0.91443593  0.24949611  0.54926421  1
  Se  Se147  1  0.91846860  0.59037710  0.06163831  1
  Se  Se148  1  0.94781392  0.61289536  0.53881220  1
  Se  Se149  1  0.92835312  0.92289782  0.07012658  1
  Se  Se150  1  0.91674003  0.91784682  0.54573752  1
  Se  Se151  1  0.08675799  0.24799027  0.44591034  1
  Se  Se152  1  0.08239132  0.24783634  0.95227975  1
  Se  Se153  1  0.09945785  0.57031634  0.44155748  1
  Se  Se154  1  0.08048278  0.57866504  0.95099857  1
  Se  Se155  1  0.08802095  0.91745738  0.44517197  1
  Se  Se156  1  0.08004769  0.91192433  0.95579818  1
  Se  Se157  1  0.40733162  0.25446777  0.43413520  1
  Se  Se158  1  0.41591721  0.26284822  0.93666745  1
  Se  Se159  1  0.41822694  0.57934800  0.44996599  1
  Se  Se160  1  0.41384425  0.58828948  0.95045472  1
  Se  Se161  1  0.39976114  0.91490034  0.42945147  1
  Se  Se162  1  0.40239930  0.92556178  0.95049436  1
  Se  Se163  1  0.75031909  0.24468236  0.44429618  1
  Se  Se164  1  0.75292737  0.24962860  0.95068244  1
  Se  Se165  1  0.75227171  0.57975736  0.44442549  1
  Se  Se166  1  0.73889432  0.59448821  0.94504329  1
  Se  Se167  1  0.74966387  0.91942487  0.44450058  1
  Se  Se168  1  0.74671794  0.92022321  0.93973322  1
  Se  Se169  1  0.24604349  0.08588547  0.44452566  1
  Se  Se170  1  0.24791666  0.09914794  0.95543604  1
  Se  Se171  1  0.24584202  0.41665315  0.44941549  1
  Se  Se172  1  0.24001655  0.43147191  0.95057387  1
  Se  Se173  1  0.25625054  0.75159246  0.43369182  1
  Se  Se174  1  0.24449938  0.74780303  0.95114717  1
  Se  Se175  1  0.58047121  0.08096691  0.43145046  1
  Se  Se176  1  0.59280065  0.08018829  0.94048361  1
  Se  Se177  1  0.57913200  0.41814948  0.45141560  1
  Se  Se178  1  0.58784237  0.41876840  0.95172305  1
  Se  Se179  1  0.59075223  0.74416620  0.43240948  1
  Se  Se180  1  0.57668963  0.75610326  0.95617242  1
  Se  Se181  1  0.91369263  0.08706941  0.44806131  1
  Se  Se182  1  0.91934203  0.08254187  0.95235181  1
  Se  Se183  1  0.91999965  0.41868428  0.44142975  1
  Se  Se184  1  0.92408636  0.40607406  0.93647937  1
  Se  Se185  1  0.90953640  0.75030940  0.44668897  1
  Se  Se186  1  0.92109961  0.74453212  0.94363130  1
  Se  Se187  1  0.24202579  0.25166890  0.31030731  1
  Se  Se188  1  0.24612239  0.24643861  0.80876850  1
  Se  Se189  1  0.25593100  0.58610956  0.30247018  1
  Se  Se190  1  0.24960652  0.58223333  0.80376385  1
  Se  Se191  1  0.26207640  0.93932562  0.29933289  1
  Se  Se192  1  0.23548809  0.90433548  0.81423671  1
  Se  Se193  1  0.58240529  0.25215701  0.30081391  1
  Se  Se194  1  0.59156193  0.25874064  0.79549754  1
  Se  Se195  1  0.58228063  0.57735103  0.30740391  1
  Se  Se196  1  0.57811069  0.58537727  0.81684802  1
  Se  Se197  1  0.58437531  0.91636937  0.29892140  1
  Se  Se198  1  0.57795808  0.91237776  0.81373249  1
  Se  Se199  1  0.91373028  0.25534422  0.30403489  1
  Se  Se200  1  0.91860374  0.24704753  0.81142627  1
  Se  Se201  1  0.91699578  0.58508187  0.30379121  1
  Se  Se202  1  0.90603408  0.56753348  0.80313654  1
  Se  Se203  1  0.91871285  0.90763025  0.31938026  1
  Se  Se204  1  0.90795433  0.90514926  0.79939935  1
  Se  Se205  1  0.08198712  0.09590218  0.31203229  1
  Se  Se206  1  0.09460549  0.07439655  0.81816524  1
  Se  Se207  1  0.08075989  0.41906337  0.30015679  1
  Se  Se208  1  0.09271869  0.41235738  0.80915258  1
  Se  Se209  1  0.08910538  0.75525466  0.30243989  1
  Se  Se210  1  0.08112547  0.74559861  0.81330143  1
  Se  Se211  1  0.41476013  0.08325084  0.29448845  1
  Se  Se212  1  0.43142434  0.09802966  0.80724635  1
  Se  Se213  1  0.41301983  0.41938664  0.31343506  1
  Se  Se214  1  0.42673033  0.42818667  0.81379408  1
  Se  Se215  1  0.42081201  0.74358466  0.29842901  1
  Se  Se216  1  0.40645533  0.74798436  0.80693549  1
  Se  Se217  1  0.74826652  0.07659512  0.30095424  1
  Se  Se218  1  0.76046296  0.09135233  0.81318725  1
  Se  Se219  1  0.74482893  0.41327388  0.30722629  1
  Se  Se220  1  0.75228093  0.42276763  0.79948046  1
  Se  Se221  1  0.75021665  0.74657661  0.30367188  1
  Se  Se222  1  0.75363375  0.75165494  0.80282265  1
  Se  Se223  1  0.24619312  0.09293195  0.19697240  1
  Se  Se224  1  0.24740831  0.07887515  0.69013859  1
  Se  Se225  1  0.24238239  0.42742586  0.19034638  1
  Se  Se226  1  0.24446804  0.41730514  0.68743440  1
  Se  Se227  1  0.25592979  0.74937373  0.20301369  1
  Se  Se228  1  0.25057930  0.73718589  0.69828468  1
  Se  Se229  1  0.58979552  0.07796560  0.19585972  1
  Se  Se230  1  0.57604791  0.09604301  0.69201019  1
  Se  Se231  1  0.58118632  0.41266130  0.20065808  1
  Se  Se232  1  0.58552344  0.42907075  0.69227674  1
  Se  Se233  1  0.58845400  0.73926482  0.19820723  1
  Se  Se234  1  0.56759670  0.76119197  0.69599421  1
  Se  Se235  1  0.91146931  0.09063367  0.19355475  1
  Se  Se236  1  0.90976228  0.09181986  0.69194490  1
  Se  Se237  1  0.91541334  0.41941234  0.20123955  1
  Se  Se238  1  0.91456628  0.42818841  0.68332593  1
  Se  Se239  1  0.92011529  0.74889069  0.20349366  1
  Se  Se240  1  0.90710622  0.74767695  0.67822606  1
  Se  Se241  1  0.07913018  0.26110301  0.19668297  1
  Se  Se242  1  0.09325812  0.23188001  0.69389400  1
  Se  Se243  1  0.08183148  0.59300283  0.19940545  1
  Se  Se244  1  0.08850137  0.57084250  0.68610986  1
  Se  Se245  1  0.09815486  0.91151603  0.19878221  1
  Se  Se246  1  0.08517543  0.89596984  0.68862656  1
  Se  Se247  1  0.42523976  0.24067527  0.18554686  1
  Se  Se248  1  0.42448959  0.24263864  0.69223151  1
  Se  Se249  1  0.41274655  0.57670680  0.19794467  1
  Se  Se250  1  0.41319531  0.58638936  0.69987226  1
  Se  Se251  1  0.42208498  0.91210405  0.19381033  1
  Se  Se252  1  0.41436494  0.91459123  0.69212478  1
  Se  Se253  1  0.74624978  0.25215363  0.19828675  1
  Se  Se254  1  0.75339728  0.25859194  0.69306653  1
  Se  Se255  1  0.74686688  0.58225029  0.20497389  1
  Se  Se256  1  0.76281474  0.58269726  0.68117681  1
  Se  Se257  1  0.75322472  0.91205809  0.20014330  1
  Se  Se258  1  0.74778161  0.91429934  0.68291473  1
