# generated using pymatgen
data_In86Cu29Se144
_symmetry_space_group_name_H-M   'P 1'
_cell_length_a   17.58428584
_cell_length_b   17.58506150
_cell_length_c   23.45053892
_cell_angle_alpha   89.99984814
_cell_angle_beta   90.00518418
_cell_angle_gamma   90.02094498
_symmetry_Int_Tables_number   1
_chemical_formula_structural   In86Cu29Se144
_chemical_formula_sum   'In86 Cu29 Se144'
_cell_volume   7251.39267143
_cell_formula_units_Z   1
loop_
 _symmetry_equiv_pos_site_id
 _symmetry_equiv_pos_as_xyz
  1  'x, y, z'
loop_
 _atom_site_type_symbol
 _atom_site_label
 _atom_site_symmetry_multiplicity
 _atom_site_fract_x
 _atom_site_fract_y
 _atom_site_fract_z
 _atom_site_occupancy
  In  In0  1  0.01035960  0.16402811  0.12879946  1
  In  In1  1  -0.01182823  0.15620961  0.61959548  1
  In  In2  1  -0.01020726  0.50645831  0.13560355  1
  In  In3  1  -0.00456076  0.51684010  0.62801616  1
  In  In4  1  -0.00270169  0.83179868  0.11896569  1
  In  In5  1  -0.00409684  0.83112379  0.62565385  1
  In  In6  1  0.33045596  0.16226201  0.10970640  1
  In  In7  1  0.33819700  0.16891050  0.62786336  1
  In  In8  1  0.34831610  0.50363536  0.12190750  1
  In  In9  1  0.32895990  0.50044592  0.63680517  1
  In  In10  1  0.31341744  0.83378491  0.12646213  1
  In  In11  1  0.32051302  0.83063721  0.61662648  1
  In  In12  1  0.66070786  0.17937565  0.12860685  1
  In  In13  1  0.67251576  0.15709772  0.63294000  1
  In  In14  1  0.65942211  0.50456764  0.12851217  1
  In  In15  1  0.66804978  0.48872927  0.62531393  1
  In  In16  1  0.66356297  0.81603861  0.12291831  1
  In  In17  1  0.67631089  0.84205217  0.62137545  1
  In  In18  1  0.18271015  -0.00567355  0.39234419  1
  In  In19  1  0.16145285  0.00547152  0.87866330  1
  In  In20  1  0.15521436  0.33523417  0.37789108  1
  In  In21  1  0.16470998  0.31351893  0.87971019  1
  In  In22  1  0.17141573  0.68410196  0.35846871  1
  In  In23  1  0.17406043  0.67928492  0.87217574  1
  In  In24  1  0.48587639  -0.00855757  0.37783742  1
  In  In25  1  0.51501929  -0.00270697  0.87380573  1
  In  In26  1  0.51877068  0.32226113  0.36893154  1
  In  In27  1  0.49907327  0.33579124  0.87666415  1
  In  In28  1  0.51132579  0.67046580  0.37105011  1
  In  In29  1  0.48572027  0.67274476  0.87525586  1
  In  In30  1  0.84238907  -0.00506925  0.38656877  1
  In  In31  1  0.82193878  -0.01681798  0.85664954  1
  In  In32  1  0.83613291  0.33418329  0.37942590  1
  In  In33  1  0.82053504  0.34156593  0.86746855  1
  In  In34  1  0.83474101  0.66664873  0.37749039  1
  In  In35  1  0.85184818  0.67085362  0.86260539  1
  In  In36  1  -0.00038464  0.16893951  0.38341743  1
  In  In37  1  0.01220648  0.15933441  0.87614221  1
  In  In38  1  -0.00475309  0.49514248  0.37280620  1
  In  In39  1  -0.01351967  0.51010339  0.86948491  1
  In  In40  1  0.00910030  0.82460263  0.37870276  1
  In  In41  1  0.00081206  0.83595102  0.86990204  1
  In  In42  1  0.33283208  0.15414505  0.37676907  1
  In  In43  1  0.32287836  0.17144267  0.88200527  1
  In  In44  1  0.31975167  0.50388239  0.37321483  1
  In  In45  1  0.34497349  0.51337190  0.87202263  1
  In  In46  1  0.33795223  0.82900713  0.38208821  1
  In  In47  1  0.33731287  0.81940414  0.87270494  1
  In  In48  1  0.66310855  0.18298201  0.37099117  1
  In  In49  1  0.65951377  0.16050097  0.86924242  1
  In  In50  1  0.67930773  0.50903326  0.37125871  1
  In  In51  1  0.67129846  0.48671576  0.87068997  1
  In  In52  1  0.67908924  0.82378814  0.38399277  1
  In  In53  1  0.66333948  0.84638743  0.86740767  1
  In  In54  1  0.16855414  -0.00221969  0.11257540  1
  In  In55  1  0.15757023  -0.01650201  0.61309953  1
  In  In56  1  0.16320446  0.32238273  0.12878903  1
  In  In57  1  0.17759018  0.33317913  0.62894475  1
  In  In58  1  0.15193030  0.68330188  0.13866101  1
  In  In59  1  0.15242325  0.67763204  0.63099010  1
  In  In60  1  0.48462695  0.00261471  0.11642233  1
  In  In61  1  0.51166803  -0.00209778  0.62692296  1
  In  In62  1  0.50020613  0.33597073  0.11873942  1
  In  In63  1  0.50333559  0.32571882  0.63706055  1
  In  In64  1  0.50783965  0.65913925  0.13149267  1
  In  In65  1  0.48430489  0.67105600  0.62740591  1
  In  In66  1  0.84673294  -0.00643884  0.12144106  1
  In  In67  1  0.83200836  -0.00324370  0.62869933  1
  In  In68  1  0.82612903  0.34117537  0.13737427  1
  In  In69  1  0.82581357  0.32587086  0.62028220  1
  In  In70  1  0.82623348  0.66962936  0.12737523  1
  In  In71  1  0.84252704  0.67752126  0.61731317  1
  In  In72  1  0.00620236  -0.00319511  0.24999364  1
  In  In73  1  0.00097557  0.33344178  0.75262153  1
  In  In74  1  0.17148341  0.49887265  0.00387307  1
  In  In75  1  0.33537380  0.33701525  0.24298196  1
  In  In76  1  0.66961482  0.67064346  0.74554153  1
  In  In77  1  0.49595187  0.83789973  -0.00302482  1
  In  In78  1  0.83735581  0.16112029  0.00205044  1
  In  In79  1  0.33235125  -0.00253171  0.25229326  1
  In  In80  1  0.50400598  0.16017921  0.49827642  1
  In  In81  1  0.15697706  0.50376922  0.50085576  1
  In  In82  1  0.33569308  -0.00190534  0.74927471  1
  In  In83  1  0.66577756  -0.00107344  0.25066779  1
  In  In84  1  0.83058605  0.50508739  -0.00476375  1
  In  In85  1  0.50083884  0.50406558  0.50340061  1
  Cu  Cu86  1  0.00830175  0.67538137  -0.00356024  1
  Cu  Cu87  1  0.00087486  0.32992946  0.00229645  1
  Cu  Cu88  1  0.67400432  0.33264242  0.49969878  1
  Cu  Cu89  1  0.83085896  0.82322655  0.25071053  1
  Cu  Cu90  1  0.16194044  0.50587912  0.25144205  1
  Cu  Cu91  1  0.50179953  0.49959776  0.75128239  1
  Cu  Cu92  1  0.33685333  0.32709016  0.50709912  1
  Cu  Cu93  1  0.66822412  0.66484926  0.00214100  1
  Cu  Cu94  1  0.50235599  0.49506809  0.24840168  1
  Cu  Cu95  1  0.83347147  0.49636319  0.25625361  1
  Cu  Cu96  1  0.32606842  0.66971447  0.49981854  1
  Cu  Cu97  1  -0.00167482  -0.00866572  -0.00508884  1
  Cu  Cu98  1  0.65894863  0.33126845  -0.00227969  1
  Cu  Cu99  1  -0.00068100  0.67229688  0.49885153  1
  Cu  Cu100  1  0.33523809  0.33387272  -0.00098719  1
  Cu  Cu101  1  0.83137264  0.16535558  0.74553658  1
  Cu  Cu102  1  0.17172291  0.50099707  0.75510710  1
  Cu  Cu103  1  -0.00118370  0.00187879  0.50443144  1
  Cu  Cu104  1  0.50138384  0.82368873  0.25327111  1
  Cu  Cu105  1  0.67271146  0.00027148  -0.00740774  1
  Cu  Cu106  1  0.83300272  0.17431956  0.25877984  1
  Cu  Cu107  1  0.33417524  0.66762951  0.00149672  1
  Cu  Cu108  1  0.16418915  0.83062916  0.74525026  1
  Cu  Cu109  1  0.49629309  0.17710218  0.75389139  1
  Cu  Cu110  1  0.67240430  0.00249898  0.50543676  1
  Cu  Cu111  1  0.16426873  0.16630770  0.25317100  1
  Cu  Cu112  1  -0.00302677  0.33209465  0.50067007  1
  Cu  Cu113  1  0.66824565  0.67226773  0.49857407  1
  Cu  Cu114  1  0.16818902  0.16201925  0.75256020  1
  Se  Se115  1  0.07388585  0.07917755  0.05261376  1
  Se  Se116  1  0.08499946  0.08674957  0.55384052  1
  Se  Se117  1  0.07256049  0.41552787  0.06350820  1
  Se  Se118  1  0.07469158  0.41064123  0.56497572  1
  Se  Se119  1  0.09089800  0.75439761  0.05310472  1
  Se  Se120  1  0.08331596  0.75460781  0.55264290  1
  Se  Se121  1  0.41765498  0.08542600  0.04284043  1
  Se  Se122  1  0.41364716  0.07497983  0.55978058  1
  Se  Se123  1  0.41911605  0.41957248  0.04912393  1
  Se  Se124  1  0.41396411  0.41090839  0.56507408  1
  Se  Se125  1  0.41608438  0.74672820  0.06364754  1
  Se  Se126  1  0.41376556  0.75037793  0.55103409  1
  Se  Se127  1  0.74286105  0.07631229  0.06378852  1
  Se  Se128  1  0.75415039  0.08663379  0.55780658  1
  Se  Se129  1  0.74388339  0.41075680  0.05619097  1
  Se  Se130  1  0.75365533  0.42000040  0.55129903  1
  Se  Se131  1  0.75382522  0.74982599  0.05061794  1
  Se  Se132  1  0.75290332  0.75575409  0.55119855  1
  Se  Se133  1  0.24537004  0.25659390  0.05206504  1
  Se  Se134  1  0.25095492  0.24632825  0.55804105  1
  Se  Se135  1  0.25179553  0.59423009  0.06523558  1
  Se  Se136  1  0.25145887  0.58689600  0.56236766  1
  Se  Se137  1  0.27102303  0.93155272  0.05233661  1
  Se  Se138  1  0.25130973  0.91753713  0.54457600  1
  Se  Se139  1  0.57925102  0.24571435  0.05129627  1
  Se  Se140  1  0.58951715  0.25418666  0.55944769  1
  Se  Se141  1  0.58280937  0.58298599  0.05369363  1
  Se  Se142  1  0.59006746  0.59457820  0.56275897  1
  Se  Se143  1  0.59304330  0.92244616  0.05847199  1
  Se  Se144  1  0.58484024  0.91759164  0.55185634  1
  Se  Se145  1  0.91708045  0.25755635  0.06554542  1
  Se  Se146  1  0.91297899  0.24753993  0.55259261  1
  Se  Se147  1  0.92553639  0.59213010  0.05424344  1
  Se  Se148  1  0.91787364  0.58419678  0.54899859  1
  Se  Se149  1  0.91277668  0.90928445  0.04686125  1
  Se  Se150  1  0.91545639  0.91787177  0.55741228  1
  Se  Se151  1  0.08629473  0.25087168  0.45152462  1
  Se  Se152  1  0.08120821  0.24146558  0.95331968  1
  Se  Se153  1  0.07983204  0.59494372  0.43487202  1
  Se  Se154  1  0.08070025  0.58481834  0.93961837  1
  Se  Se155  1  0.07827477  0.91939720  0.44672220  1
  Se  Se156  1  0.08616462  0.91082418  0.94349204  1
  Se  Se157  1  0.41626271  0.25802432  0.43968173  1
  Se  Se158  1  0.41720369  0.25055607  0.94464088  1
  Se  Se159  1  0.40748448  0.58820294  0.44124768  1
  Se  Se160  1  0.42032048  0.58585121  0.95099296  1
  Se  Se161  1  0.40312573  0.92472948  0.45107827  1
  Se  Se162  1  0.40893395  0.92532740  0.93473362  1
  Se  Se163  1  0.75145052  0.24579003  0.44528254  1
  Se  Se164  1  0.74734094  0.25353988  0.94216823  1
  Se  Se165  1  0.75114334  0.58472712  0.44875079  1
  Se  Se166  1  0.74550048  0.59493648  0.93252366  1
  Se  Se167  1  0.75290433  0.91520740  0.45105051  1
  Se  Se168  1  0.75214952  0.91471382  0.94047377  1
  Se  Se169  1  0.24955087  0.09578017  0.45376481  1
  Se  Se170  1  0.24130538  0.08761712  0.94758798  1
  Se  Se171  1  0.25612999  0.40928087  0.44809872  1
  Se  Se172  1  0.25511738  0.41262244  0.93711388  1
  Se  Se173  1  0.24185734  0.74776434  0.44335941  1
  Se  Se174  1  0.25250353  0.75216397  0.94897571  1
  Se  Se175  1  0.59446346  0.07290205  0.43517175  1
  Se  Se176  1  0.58525878  0.08486438  0.94680913  1
  Se  Se177  1  0.58963993  0.41266170  0.44230933  1
  Se  Se178  1  0.58365664  0.42123358  0.94472596  1
  Se  Se179  1  0.57916184  0.75255292  0.44793697  1
  Se  Se180  1  0.59022572  0.74722197  0.93946930  1
  Se  Se181  1  0.91579351  0.08779033  0.45200265  1
  Se  Se182  1  0.91630629  0.07150616  0.93564131  1
  Se  Se183  1  0.91709564  0.41980766  0.44845155  1
  Se  Se184  1  0.92243329  0.40681624  0.94041664  1
  Se  Se185  1  0.91374072  0.75503223  0.44575472  1
  Se  Se186  1  0.91995500  0.74977135  0.94060052  1
  Se  Se187  1  0.24888053  0.24808811  0.30967328  1
  Se  Se188  1  0.24914916  0.24872575  0.80335157  1
  Se  Se189  1  0.25186527  0.58678382  0.29907992  1
  Se  Se190  1  0.25307824  0.58905279  0.80652054  1
  Se  Se191  1  0.24252867  0.90842497  0.31073986  1
  Se  Se192  1  0.24292893  0.90949134  0.80886199  1
  Se  Se193  1  0.58199314  0.24276208  0.29131276  1
  Se  Se194  1  0.58504145  0.25670861  0.80603968  1
  Se  Se195  1  0.58484475  0.57911250  0.30382605  1
  Se  Se196  1  0.58017567  0.58305753  0.81092879  1
  Se  Se197  1  0.57874389  0.90776820  0.31258872  1
  Se  Se198  1  0.57512985  0.91400089  0.79666336  1
  Se  Se199  1  0.92236711  0.25115013  0.31105447  1
  Se  Se200  1  0.90979313  0.24034539  0.81237311  1
  Se  Se201  1  0.91542880  0.58385028  0.30671771  1
  Se  Se202  1  0.91143220  0.57657871  0.79150775  1
  Se  Se203  1  0.90928516  0.91013014  0.30692681  1
  Se  Se204  1  0.93171330  0.92655652  0.79893114  1
  Se  Se205  1  0.09318735  0.08206075  0.31605075  1
  Se  Se206  1  0.08230841  0.07758210  0.80074388  1
  Se  Se207  1  0.08424127  0.41705679  0.30403493  1
  Se  Se208  1  0.09129874  0.42146129  0.81674377  1
  Se  Se209  1  0.07307225  0.75393012  0.29594927  1
  Se  Se210  1  0.08261928  0.74729450  0.80202097  1
  Se  Se211  1  0.42916580  0.09186686  0.30357933  1
  Se  Se212  1  0.41961697  0.09082061  0.81273779  1
  Se  Se213  1  0.42257515  0.42040878  0.31325050  1
  Se  Se214  1  0.41667860  0.41831477  0.80603884  1
  Se  Se215  1  0.41457563  0.74712914  0.30898535  1
  Se  Se216  1  0.42092494  0.75291367  0.79839739  1
  Se  Se217  1  0.75890591  0.08324124  0.31388021  1
  Se  Se218  1  0.74502131  0.08381152  0.79958759  1
  Se  Se219  1  0.74949320  0.41067244  0.30744071  1
  Se  Se220  1  0.75631395  0.42666086  0.79402258  1
  Se  Se221  1  0.74672000  0.74399431  0.30585836  1
  Se  Se222  1  0.75925435  0.76210752  0.80400294  1
  Se  Se223  1  0.24320139  0.08964378  0.18993293  1
  Se  Se224  1  0.24138532  0.08132884  0.68750988  1
  Se  Se225  1  0.24099315  0.42927836  0.18661132  1
  Se  Se226  1  0.25105222  0.41241770  0.70437523  1
  Se  Se227  1  0.25907672  0.74207578  0.20023543  1
  Se  Se228  1  0.25181360  0.74908761  0.69411958  1
  Se  Se229  1  0.57411816  0.08175921  0.18800542  1
  Se  Se230  1  0.57483309  0.08993796  0.69936837  1
  Se  Se231  1  0.58205724  0.41140157  0.19294829  1
  Se  Se232  1  0.58565862  0.41625827  0.69920256  1
  Se  Se233  1  0.58926242  0.74399705  0.20072576  1
  Se  Se234  1  0.57871653  0.75789089  0.68627060  1
  Se  Se235  1  0.90811984  0.09112327  0.19631726  1
  Se  Se236  1  0.91760928  0.08083156  0.69782332  1
  Se  Se237  1  0.91918304  0.41339410  0.20327179  1
  Se  Se238  1  0.91378021  0.41616348  0.68739012  1
  Se  Se239  1  0.91704477  0.75075556  0.19091158  1
  Se  Se240  1  0.92806777  0.73702270  0.69474442  1
  Se  Se241  1  0.07920840  0.25066736  0.20282970  1
  Se  Se242  1  0.08636982  0.24140206  0.69063577  1
  Se  Se243  1  0.07495924  0.58867025  0.20129726  1
  Se  Se244  1  0.08755959  0.58031692  0.69974027  1
  Se  Se245  1  0.09451841  0.91100460  0.18747295  1
  Se  Se246  1  0.08241070  0.91609300  0.69310743  1
  Se  Se247  1  0.41646505  0.24048080  0.18461466  1
  Se  Se248  1  0.40693217  0.25459984  0.70212097  1
  Se  Se249  1  0.41796161  0.58156661  0.19965246  1
  Se  Se250  1  0.41656758  0.58343690  0.70042267  1
  Se  Se251  1  0.42484358  0.90575918  0.19195692  1
  Se  Se252  1  0.41763886  0.90843492  0.68556631  1
  Se  Se253  1  0.74743691  0.24947854  0.20108369  1
  Se  Se254  1  0.74770292  0.25281523  0.69733233  1
  Se  Se255  1  0.75439669  0.57631208  0.19445989  1
  Se  Se256  1  0.75619940  0.58252066  0.68329196  1
  Se  Se257  1  0.75660380  0.90883742  0.18943262  1
  Se  Se258  1  0.73837219  0.92805545  0.69754188  1
