# generated using pymatgen
data_In86Cu29Se144
_symmetry_space_group_name_H-M   'P 1'
_cell_length_a   17.65407263
_cell_length_b   17.66094367
_cell_length_c   23.50573094
_cell_angle_alpha   89.97651573
_cell_angle_beta   90.00129938
_cell_angle_gamma   90.04928359
_symmetry_Int_Tables_number   1
_chemical_formula_structural   In86Cu29Se144
_chemical_formula_sum   'In86 Cu29 Se144'
_cell_volume   7328.79169075
_cell_formula_units_Z   1
loop_
 _symmetry_equiv_pos_site_id
 _symmetry_equiv_pos_as_xyz
  1  'x, y, z'
loop_
 _atom_site_type_symbol
 _atom_site_label
 _atom_site_symmetry_multiplicity
 _atom_site_fract_x
 _atom_site_fract_y
 _atom_site_fract_z
 _atom_site_occupancy
  In  In0  1  -0.00455389  0.16836594  0.11937945  1
  In  In1  1  0.00093832  0.16495605  0.63745382  1
  In  In2  1  -0.00304908  0.50278707  0.12926697  1
  In  In3  1  -0.00645793  0.49492892  0.61820005  1
  In  In4  1  0.00859127  0.83382171  0.13557608  1
  In  In5  1  0.00759473  0.83991507  0.61563708  1
  In  In6  1  0.33832813  0.17032056  0.11246829  1
  In  In7  1  0.33357583  0.16643324  0.63777493  1
  In  In8  1  0.32962016  0.48811962  0.12322818  1
  In  In9  1  0.32638109  0.50209291  0.62870711  1
  In  In10  1  0.33321805  0.85090900  0.11251376  1
  In  In11  1  0.33556520  0.83335101  0.62175952  1
  In  In12  1  0.66089742  0.16179572  0.10465510  1
  In  In13  1  0.65867376  0.16740601  0.63407007  1
  In  In14  1  0.66087559  0.49683557  0.12020422  1
  In  In15  1  0.69267042  0.49675722  0.62359529  1
  In  In16  1  0.66627242  0.85644622  0.11820827  1
  In  In17  1  0.67140999  0.84198968  0.62186451  1
  In  In18  1  0.15268112  -0.00500395  0.36873555  1
  In  In19  1  0.16688317  0.00034919  0.87874702  1
  In  In20  1  0.16811730  0.33916670  0.36739991  1
  In  In21  1  0.15485484  0.31887227  0.87113054  1
  In  In22  1  0.13338223  0.68767498  0.40070696  1
  In  In23  1  0.17923899  0.67233857  0.87683395  1
  In  In24  1  0.49789583  -0.01047516  0.37201244  1
  In  In25  1  0.50182912  0.00363912  0.88130519  1
  In  In26  1  0.49600683  0.33897060  0.36824013  1
  In  In27  1  0.50198250  0.33372916  0.88189592  1
  In  In28  1  0.50811141  0.67430985  0.37593792  1
  In  In29  1  0.50210899  0.65611356  0.87710188  1
  In  In30  1  0.82723972  -0.00434807  0.36620009  1
  In  In31  1  0.83757311  0.00279776  0.86744297  1
  In  In32  1  0.84721416  0.32660484  0.37356279  1
  In  In33  1  0.88597624  0.29100538  0.93649787  1
  In  In34  1  0.85423349  0.65426649  0.39166121  1
  In  In35  1  0.82114771  0.65624970  0.87474106  1
  In  In36  1  -0.00160504  0.16681328  0.36037041  1
  In  In37  1  0.00901257  0.15892718  0.87794543  1
  In  In38  1  0.00418795  0.49858310  0.37272215  1
  In  In39  1  -0.00310962  0.47807618  0.87641126  1
  In  In40  1  -0.00277298  0.83334243  0.37404601  1
  In  In41  1  -0.00565015  0.84727093  0.87375337  1
  In  In42  1  0.32410657  0.16748357  0.36629992  1
  In  In43  1  0.32881654  0.15953320  0.88315706  1
  In  In44  1  0.32315224  0.48816128  0.36984713  1
  In  In45  1  0.35137377  0.48974760  0.87564133  1
  In  In46  1  0.33203113  0.83025278  0.38165053  1
  In  In47  1  0.32690303  0.85032413  0.89106418  1
  In  In48  1  0.67730810  0.16219219  0.36808593  1
  In  In49  1  0.67947295  0.14974202  0.89860575  1
  In  In50  1  0.66706916  0.50908522  0.37709506  1
  In  In51  1  0.71189783  0.43864925  0.92157473  1
  In  In52  1  0.66746750  0.84179024  0.37761762  1
  In  In53  1  0.64901908  0.83833331  0.88119886  1
  In  In54  1  0.15546116  -0.00337201  0.11310824  1
  In  In55  1  0.17391625  -0.00573079  0.63137963  1
  In  In56  1  0.16815271  0.33359743  0.12525040  1
  In  In57  1  0.16280535  0.33569420  0.63351133  1
  In  In58  1  0.15441856  0.67634405  0.13153982  1
  In  In59  1  0.16308232  0.66690413  0.60990717  1
  In  In60  1  0.51299304  0.01860278  0.09487470  1
  In  In61  1  0.50120900  -0.00817968  0.63645561  1
  In  In62  1  0.48981795  0.31829015  0.10491631  1
  In  In63  1  0.50438582  0.32287743  0.63299321  1
  In  In64  1  0.49946026  0.67414332  0.11862755  1
  In  In65  1  0.49220616  0.67141753  0.62444883  1
  In  In66  1  0.82250909  0.01194549  0.12346762  1
  In  In67  1  0.84030728  0.00070845  0.63654302  1
  In  In68  1  0.83842461  0.33978878  0.11421686  1
  In  In69  1  0.83778636  0.34592474  0.62609678  1
  In  In70  1  0.84644890  0.67171178  0.12957165  1
  In  In71  1  0.84537286  0.67217603  0.60815566  1
  In  In72  1  0.50220935  0.50405877  0.50191496  1
  In  In73  1  0.66339709  0.67063929  0.75049341  1
  In  In74  1  0.33457377  0.66815783  0.74817997  1
  In  In75  1  0.66751957  0.33119616  0.24211409  1
  In  In76  1  0.83422772  0.82824147  0.00125487  1
  In  In77  1  0.32247509  0.67010644  0.25392653  1
  In  In78  1  0.83014815  0.16792653  0.49715965  1
  In  In79  1  0.67154020  0.67145066  0.25587993  1
  In  In80  1  0.16158230  0.50303839  0.00344996  1
  In  In81  1  0.33197729  0.00119280  0.24331702  1
  In  In82  1  0.67186727  0.33134307  0.76572622  1
  In  In83  1  0.00345907  0.66891736  0.73614630  1
  In  In84  1  0.16794435  0.16392667  0.49873379  1
  In  In85  1  0.50052943  0.16507538  0.51226518  1
  Cu  Cu86  1  0.15869352  0.50080439  0.24987183  1
  Cu  Cu87  1  0.84265998  0.49964123  0.74869147  1
  Cu  Cu88  1  0.83364626  0.16263160  0.24215285  1
  Cu  Cu89  1  0.16944233  0.16195663  0.75596413  1
  Cu  Cu90  1  0.50196279  0.16462741  0.23078615  1
  Cu  Cu91  1  0.66087926  0.00284789  0.50284061  1
  Cu  Cu92  1  0.66726495  0.65617242  0.00134877  1
  Cu  Cu93  1  0.48650511  0.49458571  0.24503428  1
  Cu  Cu94  1  0.66758267  0.67411597  0.49749216  1
  Cu  Cu95  1  0.83732514  0.49876472  0.25113294  1
  Cu  Cu96  1  0.51182825  0.49044054  0.75825204  1
  Cu  Cu97  1  0.32696526  0.33474733  -0.00303596  1
  Cu  Cu98  1  0.32891893  -0.01131538  0.50256044  1
  Cu  Cu99  1  0.33715378  0.33050228  0.49776912  1
  Cu  Cu100  1  0.83520861  0.17808846  0.76845084  1
  Cu  Cu101  1  0.33477778  0.66537591  0.50064516  1
  Cu  Cu102  1  0.82584295  0.84347129  0.74805718  1
  Cu  Cu103  1  0.49079733  0.84151883  0.75832077  1
  Cu  Cu104  1  0.49380697  0.16214968  0.75902837  1
  Cu  Cu105  1  0.17144944  0.48886901  0.74977034  1
  Cu  Cu106  1  -0.00240335  -0.00288507  0.49873282  1
  Cu  Cu107  1  0.16383716  0.83875044  0.75122596  1
  Cu  Cu108  1  0.50427194  0.84538151  0.24525795  1
  Cu  Cu109  1  0.00151588  0.33612142  0.49907003  1
  Cu  Cu110  1  0.83829546  0.83630797  0.25146959  1
  Cu  Cu111  1  0.32631421  0.67412723  -0.00030122  1
  Cu  Cu112  1  -0.00182018  -0.00153216  -0.00038127  1
  Cu  Cu113  1  0.00367095  0.66692493  0.00464119  1
  Cu  Cu114  1  0.16427258  0.17376028  0.24277552  1
  Se  Se115  1  0.07860667  0.08889520  0.04882365  1
  Se  Se116  1  0.07619265  0.07844416  0.56051237  1
  Se  Se117  1  0.07114869  0.41028434  0.05707957  1
  Se  Se118  1  0.08628068  0.41036916  0.55769725  1
  Se  Se119  1  0.08072954  0.75529500  0.05648335  1
  Se  Se120  1  0.06491871  0.73719719  0.55033355  1
  Se  Se121  1  0.40158379  0.07823262  0.04108222  1
  Se  Se122  1  0.40423617  0.07286932  0.56310678  1
  Se  Se123  1  0.41109786  0.41959275  0.04833247  1
  Se  Se124  1  0.41612027  0.40732668  0.56138463  1
  Se  Se125  1  0.41195327  0.75369237  0.05343218  1
  Se  Se126  1  0.41769341  0.75076940  0.55167674  1
  Se  Se127  1  0.75053388  0.07885127  0.04271494  1
  Se  Se128  1  0.74218310  0.08211018  0.56261741  1
  Se  Se129  1  0.74684680  0.42065820  0.05250222  1
  Se  Se130  1  0.75309935  0.40842798  0.55095680  1
  Se  Se131  1  0.74149044  0.74121401  0.06375669  1
  Se  Se132  1  0.74881770  0.75642731  0.55322590  1
  Se  Se133  1  0.24477052  0.25369359  0.05210519  1
  Se  Se134  1  0.25832971  0.25154171  0.56036043  1
  Se  Se135  1  0.25104559  0.59409312  0.06400200  1
  Se  Se136  1  0.25481250  0.57901354  0.55290250  1
  Se  Se137  1  0.25935070  0.94224204  0.04495398  1
  Se  Se138  1  0.24277564  0.91027927  0.55614207  1
  Se  Se139  1  0.59984012  0.26853695  0.04532980  1
  Se  Se140  1  0.59787769  0.26187994  0.55757590  1
  Se  Se141  1  0.57676895  0.58178809  0.05537478  1
  Se  Se142  1  0.59461557  0.59207735  0.56361561  1
  Se  Se143  1  0.57045685  0.90114452  0.04346019  1
  Se  Se144  1  0.57831647  0.92115233  0.55804341  1
  Se  Se145  1  0.90211658  0.23915410  0.04771686  1
  Se  Se146  1  0.92632818  0.25019734  0.55927525  1
  Se  Se147  1  0.91879659  0.58719488  0.05766844  1
  Se  Se148  1  0.91579735  0.57534201  0.54775705  1
  Se  Se149  1  0.92111370  0.91793270  0.06275558  1
  Se  Se150  1  0.91199284  0.92481180  0.55838837  1
  Se  Se151  1  0.07599165  0.25097363  0.43804654  1
  Se  Se152  1  0.08497519  0.24535808  0.94874615  1
  Se  Se153  1  0.10023796  0.55886961  0.44322455  1
  Se  Se154  1  0.07687830  0.59030050  0.93557949  1
  Se  Se155  1  0.08227099  0.91712195  0.44506847  1
  Se  Se156  1  0.08061831  0.91452379  0.94605071  1
  Se  Se157  1  0.41418222  0.24758166  0.43972195  1
  Se  Se158  1  0.41217169  0.25153959  0.94567599  1
  Se  Se159  1  0.41153926  0.58676753  0.43614780  1
  Se  Se160  1  0.40560251  0.58916333  0.94548488  1
  Se  Se161  1  0.41780067  0.91577092  0.44599086  1
  Se  Se162  1  0.44560726  0.89502156  0.94539154  1
  Se  Se163  1  0.74029456  0.25950207  0.43821452  1
  Se  Se164  1  0.73677253  0.28053593  0.92578467  1
  Se  Se165  1  0.74745183  0.58390116  0.44871495  1
  Se  Se166  1  0.75662595  0.57866159  0.95247382  1
  Se  Se167  1  0.74754000  0.92896950  0.44511546  1
  Se  Se168  1  0.75006860  0.91847018  0.93944428  1
  Se  Se169  1  0.25734345  0.07163491  0.43867468  1
  Se  Se170  1  0.26335544  0.06023339  0.95194997  1
  Se  Se171  1  0.24998896  0.40774494  0.44478144  1
  Se  Se172  1  0.24664280  0.41565758  0.93712254  1
  Se  Se173  1  0.24991433  0.75048566  0.45112403  1
  Se  Se174  1  0.24116221  0.75882217  0.95166127  1
  Se  Se175  1  0.58527484  0.08305784  0.44000939  1
  Se  Se176  1  0.57156732  0.08963823  0.95572289  1
  Se  Se177  1  0.58622743  0.41018919  0.44005477  1
  Se  Se178  1  0.56568370  0.44557160  0.93425522  1
  Se  Se179  1  0.58354447  0.75683958  0.44584825  1
  Se  Se180  1  0.58722690  0.73671959  0.94504606  1
  Se  Se181  1  0.92318407  0.08112962  0.43749071  1
  Se  Se182  1  0.91638931  0.07704713  0.94222771  1
  Se  Se183  1  0.91883965  0.41462178  0.44229360  1
  Se  Se184  1  0.90755883  0.43551325  0.95497768  1
  Se  Se185  1  0.90321487  0.77017410  0.44522691  1
  Se  Se186  1  0.92235425  0.73926311  0.93739185  1
  Se  Se187  1  0.24885411  0.25315500  0.29865535  1
  Se  Se188  1  0.25213028  0.24385322  0.81027285  1
  Se  Se189  1  0.23479654  0.58105909  0.31298855  1
  Se  Se190  1  0.24863394  0.57239488  0.80904607  1
  Se  Se191  1  0.24956136  0.91055525  0.30827099  1
  Se  Se192  1  0.24842962  0.91319031  0.80969482  1
  Se  Se193  1  0.57531657  0.23998183  0.30224293  1
  Se  Se194  1  0.58140622  0.23531437  0.81828955  1
  Se  Se195  1  0.57008180  0.57390986  0.30313207  1
  Se  Se196  1  0.59209919  0.57323968  0.81337863  1
  Se  Se197  1  0.58935579  0.92131501  0.30244657  1
  Se  Se198  1  0.58123219  0.92164637  0.80640109  1
  Se  Se199  1  0.91338909  0.24977091  0.29446972  1
  Se  Se200  1  0.91463069  0.25586990  0.82858088  1
  Se  Se201  1  0.91588874  0.58245733  0.30707122  1
  Se  Se202  1  0.92106968  0.58365813  0.80765720  1
  Se  Se203  1  0.92190230  0.92243533  0.30264164  1
  Se  Se204  1  0.91837244  0.92002570  0.79734921  1
  Se  Se205  1  0.08750708  0.08603020  0.29731865  1
  Se  Se206  1  0.08468241  0.07640555  0.80532551  1
  Se  Se207  1  0.07677635  0.41110449  0.29950931  1
  Se  Se208  1  0.08291312  0.41192811  0.80243463  1
  Se  Se209  1  0.08524824  0.75032721  0.30995655  1
  Se  Se210  1  0.08641423  0.75250396  0.80806167  1
  Se  Se211  1  0.42671149  0.09202675  0.30272825  1
  Se  Se212  1  0.41228103  0.07835589  0.81231884  1
  Se  Se213  1  0.40726611  0.41031764  0.29928674  1
  Se  Se214  1  0.42210751  0.40653741  0.80213326  1
  Se  Se215  1  0.42661169  0.76140875  0.30448618  1
  Se  Se216  1  0.41587783  0.75412763  0.81512717  1
  Se  Se217  1  0.74859136  0.08090598  0.29529102  1
  Se  Se218  1  0.74528032  0.09035080  0.80951960  1
  Se  Se219  1  0.75160370  0.42077064  0.30870259  1
  Se  Se220  1  0.75905344  0.43056858  0.81262964  1
  Se  Se221  1  0.76274279  0.75551816  0.31584931  1
  Se  Se222  1  0.75340946  0.76206437  0.81133062  1
  Se  Se223  1  0.24511684  0.09303278  0.18407031  1
  Se  Se224  1  0.25109724  0.07907922  0.70073045  1
  Se  Se225  1  0.24453362  0.42030030  0.19659180  1
  Se  Se226  1  0.25957406  0.40971040  0.69796176  1
  Se  Se227  1  0.25112871  0.76625911  0.18747821  1
  Se  Se228  1  0.23693843  0.75190249  0.68997223  1
  Se  Se229  1  0.58477318  0.08194951  0.17927164  1
  Se  Se230  1  0.57845693  0.08445215  0.70098672  1
  Se  Se231  1  0.56837398  0.41588019  0.18669374  1
  Se  Se232  1  0.59223811  0.42179063  0.69050517  1
  Se  Se233  1  0.58428511  0.75836429  0.19069410  1
  Se  Se234  1  0.56964995  0.76205390  0.69456138  1
  Se  Se235  1  0.91879497  0.08101387  0.18960813  1
  Se  Se236  1  0.90942967  0.09399938  0.70545993  1
  Se  Se237  1  0.91206755  0.41431562  0.19290825  1
  Se  Se238  1  0.92556950  0.41539059  0.69764630  1
  Se  Se239  1  0.92202672  0.75065474  0.20176011  1
  Se  Se240  1  0.90563303  0.76230431  0.68807042  1
  Se  Se241  1  0.07754064  0.25223621  0.18876298  1
  Se  Se242  1  0.08733449  0.24697373  0.70154948  1
  Se  Se243  1  0.07860497  0.58671186  0.19751970  1
  Se  Se244  1  0.09756988  0.57245473  0.68730839  1
  Se  Se245  1  0.09486753  0.92234118  0.19512866  1
  Se  Se246  1  0.07934560  0.91600701  0.69411449  1
  Se  Se247  1  0.41548912  0.25088561  0.18634516  1
  Se  Se248  1  0.41913320  0.24970154  0.70297493  1
  Se  Se249  1  0.41447569  0.58484355  0.18939992  1
  Se  Se250  1  0.43163071  0.57154123  0.69693638  1
  Se  Se251  1  0.42962055  0.92364884  0.18206004  1
  Se  Se252  1  0.40526326  0.91464171  0.69829723  1
  Se  Se253  1  0.75393969  0.24254088  0.18083990  1
  Se  Se254  1  0.76040755  0.24777420  0.69512170  1
  Se  Se255  1  0.75284569  0.57685525  0.19263913  1
  Se  Se256  1  0.76729675  0.58907840  0.69225697  1
  Se  Se257  1  0.75570363  0.91510152  0.19332933  1
  Se  Se258  1  0.74035742  0.92548191  0.69691118  1
