# generated using pymatgen
data_In86Cu29Se144
_symmetry_space_group_name_H-M   'P 1'
_cell_length_a   17.58436096
_cell_length_b   17.58373105
_cell_length_c   23.43667175
_cell_angle_alpha   90.00992849
_cell_angle_beta   90.00037811
_cell_angle_gamma   89.98702496
_symmetry_Int_Tables_number   1
_chemical_formula_structural   In86Cu29Se144
_chemical_formula_sum   'In86 Cu29 Se144'
_cell_volume   7246.58752957
_cell_formula_units_Z   1
loop_
 _symmetry_equiv_pos_site_id
 _symmetry_equiv_pos_as_xyz
  1  'x, y, z'
loop_
 _atom_site_type_symbol
 _atom_site_label
 _atom_site_symmetry_multiplicity
 _atom_site_fract_x
 _atom_site_fract_y
 _atom_site_fract_z
 _atom_site_occupancy
  In  In0  1  -0.00142617  0.15939637  0.11733919  1
  In  In1  1  0.02084025  0.16312118  0.62977408  1
  In  In2  1  0.00639873  0.51295513  0.12133534  1
  In  In3  1  -0.00642764  0.49131648  0.62651683  1
  In  In4  1  -0.00969586  0.83431318  0.13505302  1
  In  In5  1  0.00263267  0.83357713  0.62182211  1
  In  In6  1  0.33177714  0.17085515  0.11809850  1
  In  In7  1  0.33369979  0.17000942  0.63527479  1
  In  In8  1  0.33012086  0.49564174  0.12568585  1
  In  In9  1  0.34166053  0.48913754  0.62728319  1
  In  In10  1  0.33027121  0.83746107  0.13144148  1
  In  In11  1  0.33465987  0.83081558  0.62970165  1
  In  In12  1  0.67175223  0.18307186  0.10620111  1
  In  In13  1  0.64028335  0.16989870  0.63969453  1
  In  In14  1  0.66368297  0.49575426  0.11547295  1
  In  In15  1  0.67104926  0.51023809  0.62914362  1
  In  In16  1  0.67375977  0.81928705  0.13211892  1
  In  In17  1  0.66175377  0.83524321  0.63652028  1
  In  In18  1  0.17625980  0.01609971  0.36569907  1
  In  In19  1  0.18549484  0.01510543  0.86524278  1
  In  In20  1  0.16760292  0.31674683  0.37367958  1
  In  In21  1  0.16969651  0.33267420  0.87467511  1
  In  In22  1  0.16386039  0.65933124  0.36281341  1
  In  In23  1  0.17075788  0.65626612  0.87791091  1
  In  In24  1  0.48827357  0.01579986  0.37553134  1
  In  In25  1  0.50749178  0.01182226  0.86159878  1
  In  In26  1  0.50353593  0.34078534  0.36871337  1
  In  In27  1  0.49981775  0.34161992  0.88918369  1
  In  In28  1  0.49193598  0.65728773  0.36552227  1
  In  In29  1  0.49337732  0.65512678  0.87302264  1
  In  In30  1  0.83294120  -0.01321929  0.36772286  1
  In  In31  1  0.82447629  0.00915564  0.88798119  1
  In  In32  1  0.83333282  0.34674008  0.36605247  1
  In  In33  1  0.84000238  0.32428548  0.89050820  1
  In  In34  1  0.83006089  0.67488990  0.35353620  1
  In  In35  1  0.83107380  0.67409286  0.88664533  1
  In  In36  1  0.01960998  0.17423947  0.37081719  1
  In  In37  1  -0.00257451  0.17261155  0.87912084  1
  In  In38  1  -0.00363304  0.50199132  0.37042303  1
  In  In39  1  0.01466918  0.49065379  0.88891601  1
  In  In40  1  -0.01014002  0.83230718  0.36064839  1
  In  In41  1  -0.00151690  0.82425336  0.88279658  1
  In  In42  1  0.32276679  0.15919304  0.36362784  1
  In  In43  1  0.33276407  0.17404298  0.87278710  1
  In  In44  1  0.34268810  0.50958456  0.36462812  1
  In  In45  1  0.33420576  0.49520407  0.87683995  1
  In  In46  1  0.33051520  0.83754970  0.36969244  1
  In  In47  1  0.34273331  0.83564531  0.86969277  1
  In  In48  1  0.65250644  0.17050508  0.36930643  1
  In  In49  1  0.66847158  0.16544211  0.88728599  1
  In  In50  1  0.66133594  0.49652749  0.36171897  1
  In  In51  1  0.65650427  0.49877936  0.89126005  1
  In  In52  1  0.67639166  0.82559129  0.36944548  1
  In  In53  1  0.67373843  0.83840757  0.87613584  1
  In  In54  1  0.16121414  0.00232316  0.12514557  1
  In  In55  1  0.17233981  0.01134078  0.62110244  1
  In  In56  1  0.18123599  0.35158964  0.11763340  1
  In  In57  1  0.18655784  0.31097537  0.65028457  1
  In  In58  1  0.17294995  0.64842597  0.14308675  1
  In  In59  1  0.17000583  0.67502384  0.62210292  1
  In  In60  1  0.48701015  0.00767180  0.12502788  1
  In  In61  1  0.48867217  0.01652096  0.65068247  1
  In  In62  1  0.49501023  0.33371509  0.11670317  1
  In  In63  1  0.48267620  0.33601265  0.62961250  1
  In  In64  1  0.50799263  0.65596619  0.12816004  1
  In  In65  1  0.50706136  0.66076109  0.62611085  1
  In  In66  1  0.84201831  0.00600413  0.11840520  1
  In  In67  1  0.82959873  -0.00922572  0.63089425  1
  In  In68  1  0.81929188  0.32977947  0.10982322  1
  In  In69  1  0.83758323  0.34535106  0.63470268  1
  In  In70  1  0.83369648  0.66431291  0.12356595  1
  In  In71  1  0.82823129  0.65311607  0.62953770  1
  In  In72  1  0.48698496  0.17305835  0.51273473  1
  In  In73  1  0.16356691  0.83540015  0.49649947  1
  In  In74  1  0.65948827  0.00402520  0.24763880  1
  In  In75  1  -0.00300251  0.00533125  0.75846771  1
  In  In76  1  0.00147673  0.66122713  0.74404165  1
  In  In77  1  0.49894279  0.83765339  0.49416305  1
  In  In78  1  0.00100375  0.33697251  0.24331608  1
  In  In79  1  0.15968440  0.83120781  0.00554357  1
  In  In80  1  0.83379773  0.82777478  0.49028617  1
  In  In81  1  0.83291210  0.16541493  0.50149359  1
  In  In82  1  0.16686981  0.49374066  0.49433652  1
  In  In83  1  0.66600611  0.33222076  0.76773716  1
  In  In84  1  0.83592029  0.50501112  0.49270425  1
  In  In85  1  0.50151983  0.83363220  0.00820995  1
  Cu  Cu86  1  0.82188365  0.49629101  0.23899584  1
  Cu  Cu87  1  0.66770889  -0.00337171  0.00050096  1
  Cu  Cu88  1  0.17394325  0.49593910  0.75804201  1
  Cu  Cu89  1  0.83303764  0.16865893  0.23678702  1
  Cu  Cu90  1  0.16525914  0.83525980  0.24884667  1
  Cu  Cu91  1  0.66579602  0.66122955  0.50144564  1
  Cu  Cu92  1  0.32987648  0.65867853  0.00190078  1
  Cu  Cu93  1  0.33843589  0.65889201  0.49264859  1
  Cu  Cu94  1  0.16954358  0.16834192  0.24177627  1
  Cu  Cu95  1  0.01181511  0.32455386  0.50634083  1
  Cu  Cu96  1  0.66671477  0.66650509  0.00284247  1
  Cu  Cu97  1  0.16799200  0.83203304  0.74725561  1
  Cu  Cu98  1  0.32612288  0.33629085  -0.00244565  1
  Cu  Cu99  1  0.49663301  0.18029554  0.24338661  1
  Cu  Cu100  1  0.50178511  0.50106845  0.75372080  1
  Cu  Cu101  1  0.50166301  0.49762042  0.24196559  1
  Cu  Cu102  1  0.00247743  0.33452651  0.00392753  1
  Cu  Cu103  1  0.00650025  -0.00101166  -0.00182106  1
  Cu  Cu104  1  0.33350692  0.33080622  0.50313447  1
  Cu  Cu105  1  0.50320817  0.81817567  0.75245548  1
  Cu  Cu106  1  0.33580496  0.01035237  -0.00641766  1
  Cu  Cu107  1  0.83731583  0.50689207  0.76142740  1
  Cu  Cu108  1  -0.00260042  0.66487755  0.00894775  1
  Cu  Cu109  1  0.66600382  0.34101570  0.49114180  1
  Cu  Cu110  1  0.82440536  0.83173862  0.75772667  1
  Cu  Cu111  1  0.49651543  0.83596584  0.24901655  1
  Cu  Cu112  1  0.83176589  0.16984249  0.76150645  1
  Cu  Cu113  1  0.00402399  0.00514803  0.49100118  1
  Cu  Cu114  1  0.65933839  0.00307121  0.51155015  1
  Se  Se115  1  0.08989820  0.08353196  0.04937735  1
  Se  Se116  1  0.08436317  0.08318932  0.54974093  1
  Se  Se117  1  0.08316015  0.42342467  0.05375098  1
  Se  Se118  1  0.08836856  0.40820077  0.56529012  1
  Se  Se119  1  0.08071608  0.74072269  0.07018856  1
  Se  Se120  1  0.07052750  0.73898898  0.55132151  1
  Se  Se121  1  0.41974761  0.09020534  0.04884902  1
  Se  Se122  1  0.40678234  0.06896902  0.56457584  1
  Se  Se123  1  0.41034399  0.42050501  0.05030120  1
  Se  Se124  1  0.42020243  0.41707771  0.54986943  1
  Se  Se125  1  0.40689294  0.74177814  0.06268676  1
  Se  Se126  1  0.41307159  0.74238301  0.55494377  1
  Se  Se127  1  0.75245333  0.08236437  0.05081157  1
  Se  Se128  1  0.74120188  0.08443459  0.56837223  1
  Se  Se129  1  0.73282061  0.40817666  0.04081848  1
  Se  Se130  1  0.74942844  0.41343443  0.55557387  1
  Se  Se131  1  0.75085102  0.75090682  0.05384831  1
  Se  Se132  1  0.74524982  0.74444030  0.56030785  1
  Se  Se133  1  0.24391700  0.25134908  0.05080265  1
  Se  Se134  1  0.25447573  0.25121120  0.56242974  1
  Se  Se135  1  0.24421221  0.58319212  0.05888233  1
  Se  Se136  1  0.25694031  0.58537752  0.55673079  1
  Se  Se137  1  0.26020964  0.92489833  0.05337659  1
  Se  Se138  1  0.25716283  0.91882879  0.55648577  1
  Se  Se139  1  0.57246120  0.25066596  0.04403841  1
  Se  Se140  1  0.59175805  0.26440953  0.55896695  1
  Se  Se141  1  0.57741069  0.58213478  0.04846211  1
  Se  Se142  1  0.58533953  0.57698221  0.55402347  1
  Se  Se143  1  0.59211143  0.92285273  0.06836888  1
  Se  Se144  1  0.57787987  0.92164692  0.56744775  1
  Se  Se145  1  0.91771125  0.24866608  0.05242623  1
  Se  Se146  1  0.91970014  0.25501591  0.56444521  1
  Se  Se147  1  0.90950925  0.57711377  0.05206121  1
  Se  Se148  1  0.92588615  0.59167118  0.55715792  1
  Se  Se149  1  0.92645178  0.91639093  0.05475563  1
  Se  Se150  1  0.92284777  0.92586531  0.55170699  1
  Se  Se151  1  0.09326485  0.24182294  0.45183834  1
  Se  Se152  1  0.08368062  0.25413863  0.94568493  1
  Se  Se153  1  0.07551058  0.58919956  0.44103468  1
  Se  Se154  1  0.08549197  0.59010993  0.95254806  1
  Se  Se155  1  0.07679543  0.92015817  0.43046294  1
  Se  Se156  1  0.08747058  0.92553345  0.93390963  1
  Se  Se157  1  0.41171940  0.25351670  0.43675159  1
  Se  Se158  1  0.41188639  0.25175627  0.94790433  1
  Se  Se159  1  0.42405485  0.57621478  0.44332911  1
  Se  Se160  1  0.41579007  0.57934694  0.94828178  1
  Se  Se161  1  0.40304235  0.93037718  0.44320256  1
  Se  Se162  1  0.41855469  0.92249595  0.94244860  1
  Se  Se163  1  0.74639217  0.25741346  0.43590586  1
  Se  Se164  1  0.75669901  0.23946973  0.95459151  1
  Se  Se165  1  0.74529872  0.59256020  0.43274488  1
  Se  Se166  1  0.75029993  0.58318198  0.95051578  1
  Se  Se167  1  0.73475553  0.92742703  0.44481774  1
  Se  Se168  1  0.75317766  0.91035347  0.95240046  1
  Se  Se169  1  0.24949122  0.08925234  0.44328818  1
  Se  Se170  1  0.24707937  0.09295098  0.94579849  1
  Se  Se171  1  0.26051143  0.40750175  0.43544294  1
  Se  Se172  1  0.24284472  0.42266198  0.94606245  1
  Se  Se173  1  0.25401704  0.73976986  0.43815665  1
  Se  Se174  1  0.25808709  0.74902846  0.94349017  1
  Se  Se175  1  0.58460238  0.08485035  0.44938717  1
  Se  Se176  1  0.57969320  0.07390689  0.94655704  1
  Se  Se177  1  0.58358775  0.42401595  0.43949801  1
  Se  Se178  1  0.60400577  0.39339685  0.95904399  1
  Se  Se179  1  0.58975392  0.74266522  0.43887798  1
  Se  Se180  1  0.58384133  0.74561620  0.94173466  1
  Se  Se181  1  0.91846112  0.08150027  0.43264255  1
  Se  Se182  1  0.92109490  0.08503329  0.94877663  1
  Se  Se183  1  0.93096888  0.40220831  0.44426114  1
  Se  Se184  1  0.91706416  0.42020907  0.95307090  1
  Se  Se185  1  0.92149815  0.73507380  0.43357602  1
  Se  Se186  1  0.91750153  0.75294985  0.95677140  1
  Se  Se187  1  0.25115968  0.25247387  0.29576247  1
  Se  Se188  1  0.26073936  0.26540614  0.80320257  1
  Se  Se189  1  0.25221320  0.58345027  0.29806491  1
  Se  Se190  1  0.25589747  0.58467340  0.80603256  1
  Se  Se191  1  0.24957120  0.92032635  0.30135100  1
  Se  Se192  1  0.25045068  0.91185137  0.80355408  1
  Se  Se193  1  0.58485582  0.25697085  0.29764871  1
  Se  Se194  1  0.57216286  0.24088659  0.81867088  1
  Se  Se195  1  0.58242830  0.58566513  0.29566926  1
  Se  Se196  1  0.58845892  0.57569902  0.81064027  1
  Se  Se197  1  0.57272302  0.91465990  0.31447439  1
  Se  Se198  1  0.58092704  0.90584234  0.80633570  1
  Se  Se199  1  0.91107148  0.24315691  0.30576003  1
  Se  Se200  1  0.91541614  0.25555414  0.80917076  1
  Se  Se201  1  0.90632323  0.57024359  0.29977948  1
  Se  Se202  1  0.92280416  0.58386324  0.81963729  1
  Se  Se203  1  0.91192895  0.91788873  0.29332899  1
  Se  Se204  1  0.90922945  0.90997219  0.81566200  1
  Se  Se205  1  0.08366014  0.08756143  0.29577824  1
  Se  Se206  1  0.09142152  0.10170162  0.80442187  1
  Se  Se207  1  0.09112173  0.41868806  0.30974566  1
  Se  Se208  1  0.08256402  0.41876435  0.80733270  1
  Se  Se209  1  0.08148231  0.74923096  0.29991443  1
  Se  Se210  1  0.08828630  0.75306627  0.80719075  1
  Se  Se211  1  0.41918714  0.08914716  0.29609553  1
  Se  Se212  1  0.38972350  0.06374333  0.81051825  1
  Se  Se213  1  0.41803712  0.41692033  0.29850282  1
  Se  Se214  1  0.42538323  0.41573106  0.81043191  1
  Se  Se215  1  0.41397773  0.75261073  0.30439539  1
  Se  Se216  1  0.41399158  0.74026994  0.80417466  1
  Se  Se217  1  0.75554310  0.09462565  0.30689746  1
  Se  Se218  1  0.74829911  0.08544248  0.81216957  1
  Se  Se219  1  0.74321565  0.41045652  0.29399406  1
  Se  Se220  1  0.75962042  0.42394354  0.82172543  1
  Se  Se221  1  0.74643395  0.75829031  0.28906139  1
  Se  Se222  1  0.74772982  0.74233961  0.80993052  1
  Se  Se223  1  0.25253844  0.08358297  0.18867092  1
  Se  Se224  1  0.24294020  0.08683763  0.69696569  1
  Se  Se225  1  0.24699295  0.42082882  0.19933026  1
  Se  Se226  1  0.26046077  0.41681835  0.70283169  1
  Se  Se227  1  0.25115025  0.75136914  0.19884986  1
  Se  Se228  1  0.25089235  0.74586257  0.69646859  1
  Se  Se229  1  0.57984918  0.09857997  0.18494654  1
  Se  Se230  1  0.60049013  0.06721041  0.71007815  1
  Se  Se231  1  0.58145709  0.41370916  0.18645037  1
  Se  Se232  1  0.58400625  0.41825979  0.69387838  1
  Se  Se233  1  0.57719660  0.75099885  0.19684388  1
  Se  Se234  1  0.58911506  0.73811400  0.69865928  1
  Se  Se235  1  0.92085470  0.08338362  0.19341161  1
  Se  Se236  1  0.90740061  0.09299381  0.69275317  1
  Se  Se237  1  0.90630399  0.41731835  0.18036643  1
  Se  Se238  1  0.91779285  0.42320699  0.70641472  1
  Se  Se239  1  0.91873098  0.73604552  0.19665356  1
  Se  Se240  1  0.90629988  0.75960124  0.69217860  1
  Se  Se241  1  0.08921727  0.24941975  0.18155956  1
  Se  Se242  1  0.06111882  0.26959414  0.69706535  1
  Se  Se243  1  0.07051768  0.58211863  0.20491702  1
  Se  Se244  1  0.09726753  0.57083644  0.68894667  1
  Se  Se245  1  0.08353050  0.91812020  0.19475096  1
  Se  Se246  1  0.08530565  0.91460413  0.69197397  1
  Se  Se247  1  0.40946620  0.25690213  0.18912483  1
  Se  Se248  1  0.45297823  0.21920331  0.69067240  1
  Se  Se249  1  0.41451060  0.58271977  0.19353074  1
  Se  Se250  1  0.42110670  0.57901705  0.69328354  1
  Se  Se251  1  0.41493433  0.92189541  0.19731136  1
  Se  Se252  1  0.41946497  0.90522980  0.70087730  1
  Se  Se253  1  0.74674428  0.25096968  0.18763192  1
  Se  Se254  1  0.75255178  0.24716026  0.69504137  1
  Se  Se255  1  0.74086315  0.58129727  0.18655548  1
  Se  Se256  1  0.75049538  0.58258260  0.70596110  1
  Se  Se257  1  0.75481929  0.92042319  0.18966963  1
  Se  Se258  1  0.74659466  0.91880619  0.70332288  1
