# generated using pymatgen
data_In86Cu29Se144
_symmetry_space_group_name_H-M   'P 1'
_cell_length_a   17.72359011
_cell_length_b   17.72449364
_cell_length_c   23.57469960
_cell_angle_alpha   89.96260906
_cell_angle_beta   89.99390543
_cell_angle_gamma   90.02994154
_symmetry_Int_Tables_number   1
_chemical_formula_structural   In86Cu29Se144
_chemical_formula_sum   'In86 Cu29 Se144'
_cell_volume   7405.79263860
_cell_formula_units_Z   1
loop_
 _symmetry_equiv_pos_site_id
 _symmetry_equiv_pos_as_xyz
  1  'x, y, z'
loop_
 _atom_site_type_symbol
 _atom_site_label
 _atom_site_symmetry_multiplicity
 _atom_site_fract_x
 _atom_site_fract_y
 _atom_site_fract_z
 _atom_site_occupancy
  In  In0  1  0.02283789  0.13785274  0.16685470  1
  In  In1  1  0.00059874  0.17111631  0.61181677  1
  In  In2  1  0.00089312  0.49343920  0.13767617  1
  In  In3  1  -0.00583061  0.50908557  0.61613564  1
  In  In4  1  -0.01334601  0.85364447  0.14210075  1
  In  In5  1  -0.00225323  0.83413669  0.61082520  1
  In  In6  1  0.33363538  0.16106683  0.12948182  1
  In  In7  1  0.34716059  0.18322632  0.60409609  1
  In  In8  1  0.35108873  0.49705224  0.12953659  1
  In  In9  1  0.33563672  0.47884460  0.62658627  1
  In  In10  1  0.33845211  0.83121428  0.12509882  1
  In  In11  1  0.33783417  0.84473705  0.61328583  1
  In  In12  1  0.65960995  0.17015672  0.13553690  1
  In  In13  1  0.65642349  0.15500216  0.61862244  1
  In  In14  1  0.65672257  0.49393062  0.12288069  1
  In  In15  1  0.67037578  0.50259975  0.61948665  1
  In  In16  1  0.67417438  0.84660083  0.10310607  1
  In  In17  1  0.65580152  0.84491575  0.63068611  1
  In  In18  1  0.16779703  0.00053648  0.36804203  1
  In  In19  1  0.18119918  0.00572033  0.87766559  1
  In  In20  1  0.16142965  0.33474556  0.37821958  1
  In  In21  1  0.17562190  0.30830905  0.88101270  1
  In  In22  1  0.17329589  0.67437759  0.36991262  1
  In  In23  1  0.15415947  0.66986530  0.87387527  1
  In  In24  1  0.49165150  0.00593950  0.36617791  1
  In  In25  1  0.52638899  -0.01793648  0.90393525  1
  In  In26  1  0.50336922  0.31965356  0.39620058  1
  In  In27  1  0.49777321  0.34265892  0.88494144  1
  In  In28  1  0.49919798  0.67545164  0.38252099  1
  In  In29  1  0.50611138  0.65042177  0.87795500  1
  In  In30  1  0.84609418  0.04480921  0.32661748  1
  In  In31  1  0.80898908  0.00256562  0.88228869  1
  In  In32  1  0.83680335  0.32565380  0.36868522  1
  In  In33  1  0.84079472  0.33330267  0.87857491  1
  In  In34  1  0.83059290  0.65653147  0.37546077  1
  In  In35  1  0.83425671  0.68404247  0.87637492  1
  In  In36  1  0.01156773  0.16906477  0.36916692  1
  In  In37  1  0.00105068  0.17147553  0.88070138  1
  In  In38  1  -0.01186221  0.49052960  0.36732316  1
  In  In39  1  -0.00900310  0.50125100  0.88008397  1
  In  In40  1  0.00981565  0.84752756  0.36032115  1
  In  In41  1  0.00046867  0.84090895  0.88278476  1
  In  In42  1  0.33633230  0.16430930  0.37902338  1
  In  In43  1  0.34111415  0.16693969  0.87772079  1
  In  In44  1  0.32987445  0.51087068  0.37921729  1
  In  In45  1  0.34612046  0.49337954  0.87406830  1
  In  In46  1  0.33916455  0.82805718  0.37366844  1
  In  In47  1  0.33716026  0.84739970  0.87573652  1
  In  In48  1  0.65278879  0.17404556  0.36577816  1
  In  In49  1  0.66536007  0.15920398  0.87810757  1
  In  In50  1  0.67620770  0.48463511  0.38557278  1
  In  In51  1  0.65332362  0.49881172  0.87192156  1
  In  In52  1  0.64995391  0.84587939  0.37629620  1
  In  In53  1  0.66629527  0.82715254  0.87478070  1
  In  In54  1  0.17272417  0.01459748  0.15055046  1
  In  In55  1  0.17183864  0.00994405  0.60597963  1
  In  In56  1  0.17078364  0.30237676  0.14616658  1
  In  In57  1  0.17783271  0.33543541  0.62386455  1
  In  In58  1  0.16405946  0.67032079  0.12988312  1
  In  In59  1  0.15799584  0.66933452  0.61588880  1
  In  In60  1  0.50722126  -0.00251054  0.12536395  1
  In  In61  1  0.50556789  0.00670659  0.61760760  1
  In  In62  1  0.50670767  0.33510587  0.12155694  1
  In  In63  1  0.49705183  0.32609336  0.61812012  1
  In  In64  1  0.49980425  0.66554271  0.11816059  1
  In  In65  1  0.50743526  0.67620681  0.61981421  1
  In  In66  1  0.83461542  -0.00433648  0.13281837  1
  In  In67  1  0.81420215  -0.00431569  0.61768916  1
  In  In68  1  0.83339065  0.31462058  0.14288911  1
  In  In69  1  0.83473121  0.33122420  0.61665580  1
  In  In70  1  0.82936501  0.68091747  0.12621362  1
  In  In71  1  0.82841054  0.65998033  0.61824252  1
  In  In72  1  0.82874479  0.49747097  0.01074963  1
  In  In73  1  0.65434249  0.66786107  0.25049109  1
  In  In74  1  0.33885863  0.00891161  0.74951315  1
  In  In75  1  0.17230654  0.49053822  0.01662648  1
  In  In76  1  0.16928941  0.84018665  0.00300178  1
  In  In77  1  0.00556076  0.33655029  0.75318325  1
  In  In78  1  0.16447466  0.49979605  0.49758672  1
  In  In79  1  -0.00297793  0.66979934  0.73238863  1
  In  In80  1  0.83462750  0.16270356  0.00836922  1
  In  In81  1  0.66819146  0.33127100  0.75428668  1
  In  In82  1  0.33982342  0.33674755  0.25983702  1
  In  In83  1  0.33719078  0.66656166  0.74582531  1
  In  In84  1  -0.00618021  0.00058425  0.74741742  1
  In  In85  1  0.82221277  0.84028744  0.48216264  1
  Cu  Cu86  1  0.50582997  0.50048015  0.25160829  1
  Cu  Cu87  1  0.33338549  0.32792288  0.00924145  1
  Cu  Cu88  1  0.83034679  0.50997721  0.74352698  1
  Cu  Cu89  1  0.49993303  0.49474886  0.75228762  1
  Cu  Cu90  1  0.17454659  0.16443601  0.74929894  1
  Cu  Cu91  1  0.17430822  0.82430761  0.25126885  1
  Cu  Cu92  1  0.33612565  0.01006714  0.00670245  1
  Cu  Cu93  1  0.00065645  0.67128849  0.49461533  1
  Cu  Cu94  1  0.82286433  0.50161776  0.25467885  1
  Cu  Cu95  1  0.82177972  0.83877228  0.75163249  1
  Cu  Cu96  1  0.82442906  0.82359759  0.24576570  1
  Cu  Cu97  1  0.17259924  0.49053470  0.75354330  1
  Cu  Cu98  1  0.17626715  0.50936452  0.25154206  1
  Cu  Cu99  1  -0.01052386  0.00637055  0.47844300  1
  Cu  Cu100  1  0.67276103  0.33078200  0.49775982  1
  Cu  Cu101  1  0.33918191  0.67028177  -0.00168839  1
  Cu  Cu102  1  0.16041004  0.83470053  0.73853315  1
  Cu  Cu103  1  0.82607714  0.15898489  0.74721314  1
  Cu  Cu104  1  0.50422870  0.83542667  0.75492444  1
  Cu  Cu105  1  0.66752675  0.66923821  0.50020012  1
  Cu  Cu106  1  -0.00910870  0.33136692  0.49062895  1
  Cu  Cu107  1  0.00579952  0.31632378  0.01240191  1
  Cu  Cu108  1  0.66244845  0.01065491  0.49246804  1
  Cu  Cu109  1  0.49715813  0.82979967  0.24763470  1
  Cu  Cu110  1  0.33120762  -0.00587682  0.48880122  1
  Cu  Cu111  1  0.33568025  0.66960849  0.49965936  1
  Cu  Cu112  1  0.00214458  0.66939088  0.00424140  1
  Cu  Cu113  1  0.50140506  0.16042123  0.74566685  1
  Cu  Cu114  1  0.66496610  0.66207783  -0.00247172  1
  Se  Se115  1  0.08899684  0.08616532  0.07850169  1
  Se  Se116  1  0.07011127  0.07781480  0.54518734  1
  Se  Se117  1  0.08243133  0.39891492  0.07193573  1
  Se  Se118  1  0.07132566  0.40760905  0.55703899  1
  Se  Se119  1  0.07738265  0.75361556  0.06253617  1
  Se  Se120  1  0.08458855  0.75426660  0.54540671  1
  Se  Se121  1  0.42184237  0.08651644  0.06120035  1
  Se  Se122  1  0.41102790  0.07327467  0.54980690  1
  Se  Se123  1  0.41843726  0.41602477  0.05429600  1
  Se  Se124  1  0.41999050  0.41606919  0.55340011  1
  Se  Se125  1  0.41888475  0.75311497  0.05218629  1
  Se  Se126  1  0.41877473  0.75325210  0.55298162  1
  Se  Se127  1  0.74342454  0.07725427  0.06640676  1
  Se  Se128  1  0.74882474  0.08725826  0.54813783  1
  Se  Se129  1  0.75071259  0.39965235  0.06802633  1
  Se  Se130  1  0.75158180  0.41650983  0.55333176  1
  Se  Se131  1  0.75136784  0.74452923  0.04728847  1
  Se  Se132  1  0.74502080  0.75634204  0.55736909  1
  Se  Se133  1  0.24972509  0.24797865  0.06348180  1
  Se  Se134  1  0.22773008  0.23534939  0.55621089  1
  Se  Se135  1  0.26219934  0.59199050  0.06175297  1
  Se  Se136  1  0.25817347  0.58631922  0.56063975  1
  Se  Se137  1  0.25237310  0.93037650  0.06546401  1
  Se  Se138  1  0.24656927  0.91385358  0.54501068  1
  Se  Se139  1  0.59158934  0.24898508  0.05940130  1
  Se  Se140  1  0.58783654  0.24958072  0.55274266  1
  Se  Se141  1  0.58443351  0.58037292  0.05269856  1
  Se  Se142  1  0.58513211  0.58640019  0.55459464  1
  Se  Se143  1  0.57049878  0.91375842  0.04679898  1
  Se  Se144  1  0.58938164  0.92293886  0.55133673  1
  Se  Se145  1  0.92582143  0.24083820  0.07312357  1
  Se  Se146  1  0.91047410  0.24737285  0.54682417  1
  Se  Se147  1  0.92520607  0.58779304  0.06433001  1
  Se  Se148  1  0.91524032  0.58975917  0.54647850  1
  Se  Se149  1  0.91947852  0.92144408  0.06147189  1
  Se  Se150  1  0.91556282  0.92766861  0.54649008  1
  Se  Se151  1  0.08252806  0.25065558  0.44668751  1
  Se  Se152  1  0.08723925  0.24058277  0.95292306  1
  Se  Se153  1  0.07684663  0.58687455  0.43532480  1
  Se  Se154  1  0.08092333  0.58307048  0.94973462  1
  Se  Se155  1  0.08056589  0.92077439  0.43858597  1
  Se  Se156  1  0.08146763  0.93488565  0.94446712  1
  Se  Se157  1  0.40189918  0.24996350  0.45392941  1
  Se  Se158  1  0.41570128  0.25366029  0.94787788  1
  Se  Se159  1  0.41756125  0.58685866  0.44740382  1
  Se  Se160  1  0.41401072  0.57917839  0.94610880  1
  Se  Se161  1  0.42105805  0.91604031  0.43876969  1
  Se  Se162  1  0.41014702  0.91867698  0.95307397  1
  Se  Se163  1  0.74390055  0.24927828  0.43417235  1
  Se  Se164  1  0.75140674  0.25389563  0.94213728  1
  Se  Se165  1  0.74873498  0.58449652  0.44830858  1
  Se  Se166  1  0.75153251  0.58474574  0.93857393  1
  Se  Se167  1  0.74318401  0.93996875  0.42754166  1
  Se  Se168  1  0.74757373  0.90490637  0.94641479  1
  Se  Se169  1  0.24653690  0.07999894  0.44140070  1
  Se  Se170  1  0.25504423  0.08830013  0.94772616  1
  Se  Se171  1  0.25846957  0.40985730  0.44524753  1
  Se  Se172  1  0.25572195  0.40868173  0.94481392  1
  Se  Se173  1  0.25274880  0.74855170  0.44407311  1
  Se  Se174  1  0.25412809  0.74487711  0.93818007  1
  Se  Se175  1  0.57598377  0.08680828  0.43592529  1
  Se  Se176  1  0.57662723  0.10109638  0.95243210  1
  Se  Se177  1  0.58309657  0.41675061  0.45423596  1
  Se  Se178  1  0.59883910  0.41019342  0.94577192  1
  Se  Se179  1  0.58659172  0.75498892  0.44885595  1
  Se  Se180  1  0.58187348  0.74196661  0.94183572  1
  Se  Se181  1  0.90912229  0.08706920  0.42221860  1
  Se  Se182  1  0.91872868  0.07572896  0.93902374  1
  Se  Se183  1  0.90843620  0.41683320  0.44145672  1
  Se  Se184  1  0.93015184  0.40440043  0.95501330  1
  Se  Se185  1  0.92256725  0.75061625  0.43303991  1
  Se  Se186  1  0.92308160  0.75110953  0.94776214  1
  Se  Se187  1  0.24269565  0.24692466  0.30989833  1
  Se  Se188  1  0.25755743  0.24418975  0.80442418  1
  Se  Se189  1  0.25891837  0.59106450  0.30390885  1
  Se  Se190  1  0.24393504  0.58146232  0.81084166  1
  Se  Se191  1  0.25198080  0.90816660  0.30722186  1
  Se  Se192  1  0.24080745  0.91046864  0.80083969  1
  Se  Se193  1  0.56180038  0.26129451  0.30784713  1
  Se  Se194  1  0.57443324  0.24366744  0.80962717  1
  Se  Se195  1  0.58248584  0.57454639  0.31833527  1
  Se  Se196  1  0.58330653  0.58275387  0.79866039  1
  Se  Se197  1  0.57512364  0.91813676  0.29970845  1
  Se  Se198  1  0.58028129  0.91796692  0.81330743  1
  Se  Se199  1  0.94266980  0.26913189  0.30360777  1
  Se  Se200  1  0.90891970  0.23931888  0.80426638  1
  Se  Se201  1  0.91155444  0.58342700  0.30212191  1
  Se  Se202  1  0.91516666  0.58463923  0.80413977  1
  Se  Se203  1  0.89589636  0.90743097  0.30712939  1
  Se  Se204  1  0.90750423  0.91339558  0.81136318  1
  Se  Se205  1  0.08571551  0.08202599  0.29913441  1
  Se  Se206  1  0.08976167  0.08830932  0.80768541  1
  Se  Se207  1  0.09638407  0.42905063  0.30919691  1
  Se  Se208  1  0.09331403  0.42110494  0.82059343  1
  Se  Se209  1  0.08244017  0.74638318  0.30119449  1
  Se  Se210  1  0.08001667  0.76076113  0.80091425  1
  Se  Se211  1  0.39680443  0.07982611  0.30030763  1
  Se  Se212  1  0.43261008  0.08139241  0.81446847  1
  Se  Se213  1  0.42654589  0.42850710  0.31738599  1
  Se  Se214  1  0.41947503  0.40893904  0.80373253  1
  Se  Se215  1  0.42186403  0.74425577  0.30419231  1
  Se  Se216  1  0.42050066  0.75548133  0.81144591  1
  Se  Se217  1  0.71764754  0.09289411  0.28269435  1
  Se  Se218  1  0.74380122  0.08231796  0.80404858  1
  Se  Se219  1  0.74674925  0.41259012  0.30635707  1
  Se  Se220  1  0.76395398  0.42523320  0.80847188  1
  Se  Se221  1  0.74550828  0.75242009  0.31278821  1
  Se  Se222  1  0.74763393  0.74661386  0.80211915  1
  Se  Se223  1  0.28054660  0.07479604  0.21049248  1
  Se  Se224  1  0.24809196  0.08816668  0.68431993  1
  Se  Se225  1  0.24795666  0.42101911  0.19181348  1
  Se  Se226  1  0.25359491  0.40761109  0.70112925  1
  Se  Se227  1  0.25578332  0.74714300  0.19298114  1
  Se  Se228  1  0.24515034  0.75534557  0.68456841  1
  Se  Se229  1  0.59169959  0.07059719  0.20026632  1
  Se  Se230  1  0.58458579  0.07682075  0.69507429  1
  Se  Se231  1  0.58313058  0.41545009  0.19705239  1
  Se  Se232  1  0.58138320  0.41776344  0.69029781  1
  Se  Se233  1  0.58174006  0.76005894  0.18331781  1
  Se  Se234  1  0.58127195  0.75266321  0.69676101  1
  Se  Se235  1  0.90587957  0.07466238  0.21122412  1
  Se  Se236  1  0.90843971  0.08857889  0.68329804  1
  Se  Se237  1  0.90532057  0.41977867  0.19961795  1
  Se  Se238  1  0.91369422  0.42518298  0.69081908  1
  Se  Se239  1  0.91755251  0.74641595  0.19883897  1
  Se  Se240  1  0.90166730  0.76748191  0.68460722  1
  Se  Se241  1  0.05835031  0.26793703  0.21133824  1
  Se  Se242  1  0.08633746  0.24156583  0.69239858  1
  Se  Se243  1  0.08650321  0.58276190  0.19705511  1
  Se  Se244  1  0.09572682  0.56896454  0.68995087  1
  Se  Se245  1  0.09136985  0.91380998  0.20453665  1
  Se  Se246  1  0.08429564  0.91797280  0.68076245  1
  Se  Se247  1  0.42187421  0.25240052  0.19193030  1
  Se  Se248  1  0.42045911  0.24168776  0.68931401  1
  Se  Se249  1  0.42793401  0.58486342  0.19586882  1
  Se  Se250  1  0.42440350  0.57445179  0.68798329  1
  Se  Se251  1  0.41979061  0.91459132  0.19188632  1
  Se  Se252  1  0.42382528  0.91138727  0.69185027  1
  Se  Se253  1  0.75525542  0.22755195  0.20955281  1
  Se  Se254  1  0.75307786  0.24501753  0.68813198  1
  Se  Se255  1  0.74892051  0.58109770  0.18968554  1
  Se  Se256  1  0.74550791  0.58867409  0.69156547  1
  Se  Se257  1  0.74408744  0.90466319  0.18977116  1
  Se  Se258  1  0.74380192  0.92444106  0.69744128  1
