# generated using pymatgen
data_In86Cu29Se144
_symmetry_space_group_name_H-M   'P 1'
_cell_length_a   17.58670837
_cell_length_b   17.58673618
_cell_length_c   23.44503078
_cell_angle_alpha   90.00826062
_cell_angle_beta   90.00731783
_cell_angle_gamma   90.00248821
_symmetry_Int_Tables_number   1
_chemical_formula_structural   In86Cu29Se144
_chemical_formula_sum   'In86 Cu29 Se144'
_cell_volume   7251.37908089
_cell_formula_units_Z   1
loop_
 _symmetry_equiv_pos_site_id
 _symmetry_equiv_pos_as_xyz
  1  'x, y, z'
loop_
 _atom_site_type_symbol
 _atom_site_label
 _atom_site_symmetry_multiplicity
 _atom_site_fract_x
 _atom_site_fract_y
 _atom_site_fract_z
 _atom_site_occupancy
  In  In0  1  0.01374965  0.16309177  0.12801389  1
  In  In1  1  -0.00823516  0.16206954  0.62117440  1
  In  In2  1  -0.01010965  0.50587171  0.13103529  1
  In  In3  1  -0.00120182  0.50520499  0.62215225  1
  In  In4  1  0.00193497  0.81793658  0.12545480  1
  In  In5  1  -0.00132178  0.83019099  0.62495508  1
  In  In6  1  0.31728626  0.17011685  0.12779382  1
  In  In7  1  0.30892152  0.12989049  0.59193735  1
  In  In8  1  0.34880517  0.49729457  0.12679377  1
  In  In9  1  0.32585446  0.50928617  0.62032162  1
  In  In10  1  0.32532961  0.84354066  0.13351120  1
  In  In11  1  0.32777736  0.85751448  0.61880345  1
  In  In12  1  0.68066233  0.16763616  0.12952262  1
  In  In13  1  0.67073090  0.16332669  0.61923544  1
  In  In14  1  0.66698308  0.50309992  0.12756066  1
  In  In15  1  0.66944685  0.48871107  0.62464469  1
  In  In16  1  0.65921949  0.82847499  0.12874464  1
  In  In17  1  0.70653116  0.85163145  0.60716744  1
  In  In18  1  0.17898483  -0.01115200  0.39189162  1
  In  In19  1  0.16627491  -0.00298962  0.87008962  1
  In  In20  1  0.15747439  0.34276894  0.38253429  1
  In  In21  1  0.15633038  0.31893812  0.87747512  1
  In  In22  1  0.15866623  0.66907286  0.37081862  1
  In  In23  1  0.17123346  0.68297615  0.87643383  1
  In  In24  1  0.49560627  0.01278631  0.38497475  1
  In  In25  1  0.50234157  0.00239233  0.86206688  1
  In  In26  1  0.50539396  0.31762022  0.37414970  1
  In  In27  1  0.51507012  0.33599463  0.87519829  1
  In  In28  1  0.50002407  0.66912823  0.36668841  1
  In  In29  1  0.50111536  0.66636241  0.88083789  1
  In  In30  1  0.81996823  0.00064855  0.39801536  1
  In  In31  1  0.83851780  -0.00290944  0.85135925  1
  In  In32  1  0.83602272  0.33695864  0.37538109  1
  In  In33  1  0.82936176  0.35080627  0.87227984  1
  In  In34  1  0.83260900  0.66279614  0.37897115  1
  In  In35  1  0.83404565  0.65018234  0.86799332  1
  In  In36  1  -0.00864486  0.17279398  0.38594434  1
  In  In37  1  0.01003251  0.15758393  0.86995880  1
  In  In38  1  -0.00211419  0.50208114  0.37351279  1
  In  In39  1  -0.01765373  0.49556857  0.87293354  1
  In  In40  1  0.00235486  0.82705852  0.37967466  1
  In  In41  1  0.00809272  0.84221906  0.86025268  1
  In  In42  1  0.33828980  0.15746438  0.38614619  1
  In  In43  1  0.32728087  0.15249085  0.87002037  1
  In  In44  1  0.31718048  0.50485369  0.37337417  1
  In  In45  1  0.33537011  0.51550342  0.88192607  1
  In  In46  1  0.32630557  0.82812952  0.36986672  1
  In  In47  1  0.32591784  0.83518486  0.87477556  1
  In  In48  1  0.66171570  0.17184896  0.38331986  1
  In  In49  1  0.66969764  0.17250112  0.86166370  1
  In  In50  1  0.68493735  0.51360108  0.37042022  1
  In  In51  1  0.68590476  0.49278422  0.88811808  1
  In  In52  1  0.67592870  0.82636919  0.38533452  1
  In  In53  1  0.66094441  0.83338756  0.86901946  1
  In  In54  1  0.17325476  0.00736083  0.12142065  1
  In  In55  1  0.16553083  -0.00175942  0.61949038  1
  In  In56  1  0.16721878  0.31638613  0.12760579  1
  In  In57  1  0.15697187  0.32531462  0.61704827  1
  In  In58  1  0.15637638  0.67454794  0.13104538  1
  In  In59  1  0.15338946  0.66113046  0.61715217  1
  In  In60  1  0.49434545  -0.01411040  0.12729401  1
  In  In61  1  0.48836727  0.01565683  0.62660010  1
  In  In62  1  0.49948340  0.34926391  0.12654602  1
  In  In63  1  0.51595446  0.32286794  0.62710470  1
  In  In64  1  0.51254443  0.65260267  0.14093360  1
  In  In65  1  0.50081039  0.67070434  0.62499403  1
  In  In66  1  0.83161939  -0.00181061  0.12518459  1
  In  In67  1  0.83449007  0.00137162  0.62753481  1
  In  In68  1  0.82131937  0.34733504  0.13803841  1
  In  In69  1  0.82794127  0.33084035  0.61881870  1
  In  In70  1  0.84182610  0.65800118  0.13178490  1
  In  In71  1  0.84116120  0.67660466  0.61475039  1
  In  In72  1  0.33622106  0.32589863  0.74815678  1
  In  In73  1  0.50133213  0.49588024  0.50006900  1
  In  In74  1  0.33255762  0.67538623  0.75402218  1
  In  In75  1  0.49900048  0.82744255  -0.00124151  1
  In  In76  1  0.49936816  0.83418189  0.49860907  1
  In  In77  1  0.16462758  0.50102476  0.00428991  1
  In  In78  1  0.00184932  -0.00120728  0.26332552  1
  In  In79  1  0.67213008  0.67180620  0.74458530  1
  In  In80  1  0.33343070  0.33185818  0.25015077  1
  In  In81  1  -0.00545041  0.32424010  0.74246428  1
  In  In82  1  0.83526476  0.82414741  -0.00240110  1
  In  In83  1  0.66092108  -0.00116468  0.26722853  1
  In  In84  1  0.84779619  0.17510587  -0.01032645  1
  In  In85  1  0.49355087  0.17253685  -0.00106260  1
  Cu  Cu86  1  -0.00246001  -0.00046068  0.50491652  1
  Cu  Cu87  1  0.16836889  0.16349064  0.25541829  1
  Cu  Cu88  1  0.82921564  0.16948341  0.74094889  1
  Cu  Cu89  1  0.67176116  0.33234529  0.49857742  1
  Cu  Cu90  1  0.66528731  0.34422842  0.00426593  1
  Cu  Cu91  1  0.84053754  0.17553495  0.25580356  1
  Cu  Cu92  1  0.16222557  0.50463783  0.25171790  1
  Cu  Cu93  1  0.67165376  0.00328011  -0.01048269  1
  Cu  Cu94  1  -0.00076216  0.66745985  0.49608895  1
  Cu  Cu95  1  0.50309540  0.16160713  0.25614586  1
  Cu  Cu96  1  -0.00062167  0.34173689  0.49997581  1
  Cu  Cu97  1  0.32960085  0.33164634  0.00462207  1
  Cu  Cu98  1  0.50579628  0.84565204  0.74101620  1
  Cu  Cu99  1  0.34229908  0.66990838  0.00773680  1
  Cu  Cu100  1  0.50484188  0.49740193  0.25213502  1
  Cu  Cu101  1  0.83082325  0.82872977  0.25692119  1
  Cu  Cu102  1  0.49292497  0.83033958  0.25162380  1
  Cu  Cu103  1  0.16279261  0.83662834  0.25533346  1
  Cu  Cu104  1  0.83492892  0.49965893  0.25374968  1
  Cu  Cu105  1  0.49984387  0.16861774  0.74335625  1
  Cu  Cu106  1  0.32148677  0.66989362  0.49593962  1
  Cu  Cu107  1  0.50576205  0.49881533  0.75338179  1
  Cu  Cu108  1  0.15831819  0.49789544  0.74430017  1
  Cu  Cu109  1  0.32377004  0.00012691  -0.00074853  1
  Cu  Cu110  1  0.33616412  0.33404729  0.49425851  1
  Cu  Cu111  1  -0.00505114  0.32991454  0.00083600  1
  Cu  Cu112  1  0.01093664  -0.00922559  -0.00539285  1
  Cu  Cu113  1  0.00240157  0.66760615  0.00072556  1
  Cu  Cu114  1  0.17019596  0.83810298  0.74479445  1
  Se  Se115  1  0.08233400  0.08096131  0.05206899  1
  Se  Se116  1  0.08165569  0.08672899  0.55322807  1
  Se  Se117  1  0.07713619  0.40746459  0.06305608  1
  Se  Se118  1  0.08413828  0.42221677  0.55453632  1
  Se  Se119  1  0.08799784  0.75138548  0.05040580  1
  Se  Se120  1  0.08131416  0.75283063  0.54996505  1
  Se  Se121  1  0.40864240  0.07651182  0.05995923  1
  Se  Se122  1  0.42981557  0.08540900  0.54022228  1
  Se  Se123  1  0.41760355  0.41623885  0.04957738  1
  Se  Se124  1  0.41194389  0.40871958  0.56318029  1
  Se  Se125  1  0.41747301  0.74881880  0.07160090  1
  Se  Se126  1  0.40255821  0.74408073  0.55903435  1
  Se  Se127  1  0.75168636  0.08157145  0.05027534  1
  Se  Se128  1  0.76641200  0.09139601  0.55509277  1
  Se  Se129  1  0.75352666  0.42122481  0.05778495  1
  Se  Se130  1  0.75245374  0.42001595  0.54870545  1
  Se  Se131  1  0.74661128  0.74318676  0.06401340  1
  Se  Se132  1  0.74093454  0.73664558  0.54616440  1
  Se  Se133  1  0.24448457  0.24429783  0.04956129  1
  Se  Se134  1  0.25140899  0.25476992  0.55003133  1
  Se  Se135  1  0.25717531  0.58878838  0.06417252  1
  Se  Se136  1  0.24224620  0.58189747  0.54885611  1
  Se  Se137  1  0.24717340  0.91342079  0.05482985  1
  Se  Se138  1  0.24195901  0.91767632  0.54398720  1
  Se  Se139  1  0.59158880  0.25384197  0.06121569  1
  Se  Se140  1  0.58657128  0.24761291  0.54882759  1
  Se  Se141  1  0.57720329  0.58067269  0.06054141  1
  Se  Se142  1  0.58832480  0.58724572  0.55973845  1
  Se  Se143  1  0.59433123  0.92575543  0.05334341  1
  Se  Se144  1  0.58023742  0.91778450  0.56740703  1
  Se  Se145  1  0.91820759  0.25459716  0.06875570  1
  Se  Se146  1  0.91921068  0.25449752  0.55317469  1
  Se  Se147  1  0.91911800  0.58479922  0.05371181  1
  Se  Se148  1  0.91751463  0.58242371  0.54933747  1
  Se  Se149  1  0.92527894  0.92086537  0.05815939  1
  Se  Se150  1  0.91493458  0.91510105  0.55750836  1
  Se  Se151  1  0.08250836  0.25318271  0.45053926  1
  Se  Se152  1  0.07374868  0.24244487  0.94870864  1
  Se  Se153  1  0.08347968  0.58360612  0.44250529  1
  Se  Se154  1  0.08055815  0.58683010  0.93725459  1
  Se  Se155  1  0.07714346  0.91514001  0.44919334  1
  Se  Se156  1  0.08958114  0.90706523  0.93963519  1
  Se  Se157  1  0.42279406  0.24821512  0.44826389  1
  Se  Se158  1  0.40544328  0.25851931  0.93437420  1
  Se  Se159  1  0.40976323  0.58934457  0.44138186  1
  Se  Se160  1  0.42254485  0.58574516  0.95333034  1
  Se  Se161  1  0.40354423  0.92006663  0.44223251  1
  Se  Se162  1  0.41501775  0.92821783  0.94107775  1
  Se  Se163  1  0.75653587  0.25015990  0.44495841  1
  Se  Se164  1  0.73947355  0.25835366  0.94213893  1
  Se  Se165  1  0.75349554  0.58137050  0.45143125  1
  Se  Se166  1  0.75765842  0.59041457  0.94913380  1
  Se  Se167  1  0.73933917  0.91162165  0.46038045  1
  Se  Se168  1  0.75337416  0.92194575  0.93459397  1
  Se  Se169  1  0.24008775  0.09490895  0.45287141  1
  Se  Se170  1  0.24330485  0.08280458  0.94381199  1
  Se  Se171  1  0.25013429  0.42078604  0.44810215  1
  Se  Se172  1  0.25149788  0.41053844  0.93927186  1
  Se  Se173  1  0.24126256  0.75269156  0.44095502  1
  Se  Se174  1  0.26028870  0.74910232  0.95000472  1
  Se  Se175  1  0.60872246  0.06088911  0.44316939  1
  Se  Se176  1  0.58702775  0.08571478  0.93710788  1
  Se  Se177  1  0.59130064  0.41173305  0.43649496  1
  Se  Se178  1  0.58087564  0.42335008  0.94866284  1
  Se  Se179  1  0.58483783  0.73339675  0.44601352  1
  Se  Se180  1  0.60005770  0.74149901  0.94681278  1
  Se  Se181  1  0.91367056  0.08568655  0.45441725  1
  Se  Se182  1  0.92116722  0.06484364  0.93684508  1
  Se  Se183  1  0.91532991  0.42229990  0.44503849  1
  Se  Se184  1  0.91295920  0.41560807  0.95015809  1
  Se  Se185  1  0.91209916  0.75219117  0.44679707  1
  Se  Se186  1  0.92839427  0.74532770  0.93364659  1
  Se  Se187  1  0.24743499  0.24724769  0.31554427  1
  Se  Se188  1  0.23763159  0.23942133  0.80378946  1
  Se  Se189  1  0.24709322  0.58964595  0.30070755  1
  Se  Se190  1  0.23979626  0.57594230  0.80654423  1
  Se  Se191  1  0.24587567  0.92197691  0.30624934  1
  Se  Se192  1  0.25553872  0.91708217  0.80092360  1
  Se  Se193  1  0.59099188  0.24581602  0.30178192  1
  Se  Se194  1  0.58019925  0.25433226  0.79777861  1
  Se  Se195  1  0.58652575  0.58278059  0.30453114  1
  Se  Se196  1  0.58282951  0.58452045  0.80969064  1
  Se  Se197  1  0.57002889  0.90384287  0.32004506  1
  Se  Se198  1  0.59169615  0.92253520  0.79799200  1
  Se  Se199  1  0.92590945  0.25555426  0.30796151  1
  Se  Se200  1  0.90513972  0.24246372  0.81223097  1
  Se  Se201  1  0.91622823  0.58725566  0.30522139  1
  Se  Se202  1  0.92331040  0.58134708  0.79759800  1
  Se  Se203  1  0.90024507  0.91636274  0.31819370  1
  Se  Se204  1  0.91684878  0.90752578  0.78946048  1
  Se  Se205  1  0.09115244  0.08845220  0.32138562  1
  Se  Se206  1  0.07786078  0.07057259  0.79989742  1
  Se  Se207  1  0.08357110  0.41763998  0.30500853  1
  Se  Se208  1  0.08549105  0.41533990  0.80794844  1
  Se  Se209  1  0.07468706  0.75202140  0.30114055  1
  Se  Se210  1  0.09221236  0.74914277  0.79859818  1
  Se  Se211  1  0.41547014  0.08391294  0.30792646  1
  Se  Se212  1  0.41646811  0.08593193  0.79804487  1
  Se  Se213  1  0.42191163  0.42045999  0.31404788  1
  Se  Se214  1  0.41725834  0.42560108  0.81189295  1
  Se  Se215  1  0.40815399  0.74454670  0.30112940  1
  Se  Se216  1  0.43292108  0.76439154  0.80802181  1
  Se  Se217  1  0.76257761  0.08916643  0.31377488  1
  Se  Se218  1  0.74599205  0.08429749  0.79476440  1
  Se  Se219  1  0.74996791  0.41440401  0.30408362  1
  Se  Se220  1  0.74009812  0.41892431  0.80308118  1
  Se  Se221  1  0.74636458  0.74630494  0.30909358  1
  Se  Se222  1  0.76153239  0.75816249  0.80845500  1
  Se  Se223  1  0.24971418  0.08126058  0.19982778  1
  Se  Se224  1  0.25771011  0.07697600  0.68532743  1
  Se  Se225  1  0.24175933  0.42304642  0.18962540  1
  Se  Se226  1  0.24348017  0.41939447  0.68915509  1
  Se  Se227  1  0.24448086  0.75381084  0.19810424  1
  Se  Se228  1  0.24786090  0.75426127  0.68393124  1
  Se  Se229  1  0.58066846  0.08265038  0.19051514  1
  Se  Se230  1  0.58577665  0.08579892  0.69186542  1
  Se  Se231  1  0.58798774  0.41470140  0.19863155  1
  Se  Se232  1  0.58345587  0.41585624  0.69690986  1
  Se  Se233  1  0.58561044  0.75116857  0.20400775  1
  Se  Se234  1  0.58495788  0.76394317  0.68385619  1
  Se  Se235  1  0.91142455  0.08644018  0.19561242  1
  Se  Se236  1  0.91909652  0.08449230  0.69786118  1
  Se  Se237  1  0.92115295  0.41479395  0.20207274  1
  Se  Se238  1  0.90796459  0.42148977  0.69039329  1
  Se  Se239  1  0.91502459  0.75237699  0.19921444  1
  Se  Se240  1  0.91783470  0.74511788  0.69298205  1
  Se  Se241  1  0.08421710  0.24679744  0.20310082  1
  Se  Se242  1  0.09246223  0.23490436  0.69229468  1
  Se  Se243  1  0.07790223  0.58614898  0.19706488  1
  Se  Se244  1  0.07901443  0.58615857  0.69487162  1
  Se  Se245  1  0.08373921  0.91599790  0.19116657  1
  Se  Se246  1  0.08423003  0.91691321  0.69088106  1
  Se  Se247  1  0.42624586  0.24087086  0.18981743  1
  Se  Se248  1  0.41482379  0.23883997  0.68090738  1
  Se  Se249  1  0.41369836  0.57951073  0.20424172  1
  Se  Se250  1  0.42206158  0.57757767  0.69548254  1
  Se  Se251  1  0.41265595  0.92119034  0.20397144  1
  Se  Se252  1  0.41246644  0.92368648  0.69444277  1
  Se  Se253  1  0.74920036  0.25069915  0.20332972  1
  Se  Se254  1  0.74523336  0.25379183  0.69077724  1
  Se  Se255  1  0.75097588  0.58260563  0.19870509  1
  Se  Se256  1  0.75761561  0.58079451  0.68442828  1
  Se  Se257  1  0.75181328  0.91353888  0.19811813  1
  Se  Se258  1  0.75415394  0.91648853  0.69719633  1
