# generated using pymatgen
data_In86Cu29Se144
_symmetry_space_group_name_H-M   'P 1'
_cell_length_a   17.58328259
_cell_length_b   17.58456842
_cell_length_c   23.44669069
_cell_angle_alpha   90.03214876
_cell_angle_beta   89.96277750
_cell_angle_gamma   90.01292138
_symmetry_Int_Tables_number   1
_chemical_formula_structural   In86Cu29Se144
_chemical_formula_sum   'In86 Cu29 Se144'
_cell_volume   7249.58344614
_cell_formula_units_Z   1
loop_
 _symmetry_equiv_pos_site_id
 _symmetry_equiv_pos_as_xyz
  1  'x, y, z'
loop_
 _atom_site_type_symbol
 _atom_site_label
 _atom_site_symmetry_multiplicity
 _atom_site_fract_x
 _atom_site_fract_y
 _atom_site_fract_z
 _atom_site_occupancy
  In  In0  1  0.00858703  0.17012424  0.12186884  1
  In  In1  1  0.01182594  0.14434522  0.63279439  1
  In  In2  1  -0.00694609  0.50920236  0.13434741  1
  In  In3  1  0.01456371  0.50843567  0.61567368  1
  In  In4  1  -0.01263547  0.82972596  0.12771078  1
  In  In5  1  0.04020386  0.81295617  0.65792891  1
  In  In6  1  0.31903390  0.16697726  0.12638092  1
  In  In7  1  0.33422574  0.17056969  0.62455022  1
  In  In8  1  0.34139886  0.49972945  0.12675884  1
  In  In9  1  0.33386037  0.49908354  0.62313840  1
  In  In10  1  0.34093617  0.82420757  0.12650299  1
  In  In11  1  0.31473319  0.85167410  0.64887852  1
  In  In12  1  0.67562114  0.14707633  0.13842338  1
  In  In13  1  0.66162594  0.17614329  0.62115384  1
  In  In14  1  0.66483619  0.50178194  0.13537239  1
  In  In15  1  0.66007042  0.51604350  0.62406213  1
  In  In16  1  0.66482082  0.83646809  0.12659605  1
  In  In17  1  0.64996937  0.82372329  0.62750237  1
  In  In18  1  0.17898194  -0.01261503  0.38356657  1
  In  In19  1  0.17861460  0.00543746  0.86236982  1
  In  In20  1  0.16041630  0.33862458  0.38217066  1
  In  In21  1  0.17452549  0.31878219  0.87609413  1
  In  In22  1  0.16459161  0.66405456  0.38092916  1
  In  In23  1  0.17740634  0.68688834  0.85466135  1
  In  In24  1  0.49682336  0.00413395  0.36593308  1
  In  In25  1  0.48106973  0.00067460  0.87167004  1
  In  In26  1  0.50343378  0.32809234  0.37873524  1
  In  In27  1  0.49698467  0.33077316  0.87053978  1
  In  In28  1  0.49266677  0.66142845  0.37230759  1
  In  In29  1  0.51608344  0.68273021  0.85986525  1
  In  In30  1  0.83032912  0.00507302  0.36856726  1
  In  In31  1  0.83931360  -0.00798421  0.88679553  1
  In  In32  1  0.83143373  0.32787834  0.36525161  1
  In  In33  1  0.82573929  0.33200288  0.88384807  1
  In  In34  1  0.83618494  0.67178521  0.36399133  1
  In  In35  1  0.84525849  0.68012717  0.86819848  1
  In  In36  1  -0.00141601  0.17197215  0.37484489  1
  In  In37  1  0.00843296  0.15904193  0.88360692  1
  In  In38  1  0.01440176  0.50735925  0.37475348  1
  In  In39  1  -0.00182822  0.51441562  0.87189239  1
  In  In40  1  0.01100569  0.83462853  0.37594206  1
  In  In41  1  -0.00450944  0.83055020  0.86973854  1
  In  In42  1  0.34194634  0.15446995  0.37973858  1
  In  In43  1  0.33332988  0.15454817  0.86442131  1
  In  In44  1  0.32421223  0.51141257  0.38657665  1
  In  In45  1  0.33598370  0.50021811  0.86718046  1
  In  In46  1  0.32788519  0.82440434  0.37115315  1
  In  In47  1  0.34665473  0.84671674  0.85646618  1
  In  In48  1  0.64547423  0.15779622  0.35607506  1
  In  In49  1  0.66823355  0.17413166  0.88164509  1
  In  In50  1  0.65996647  0.49307348  0.36838647  1
  In  In51  1  0.65387734  0.50254210  0.87636499  1
  In  In52  1  0.66898926  0.83178267  0.35972105  1
  In  In53  1  0.67544817  0.83037630  0.88384113  1
  In  In54  1  0.16455173  0.01239059  0.12509879  1
  In  In55  1  0.16884299  0.00117295  0.62227421  1
  In  In56  1  0.16865743  0.31509107  0.12615159  1
  In  In57  1  0.18125443  0.34554865  0.61359509  1
  In  In58  1  0.16951636  0.66421216  0.13356869  1
  In  In59  1  0.17098676  0.66905423  0.62643256  1
  In  In60  1  0.50798205  -0.00657833  0.13222036  1
  In  In61  1  0.47887667  0.00012025  0.63171841  1
  In  In62  1  0.49732060  0.33846594  0.12990545  1
  In  In63  1  0.47990883  0.31699286  0.60929063  1
  In  In64  1  0.49204153  0.67189877  0.13019546  1
  In  In65  1  0.50120835  0.66928694  0.62939172  1
  In  In66  1  0.82105054  -0.01494651  0.11713099  1
  In  In67  1  0.84466975  0.00452708  0.62460181  1
  In  In68  1  0.84227344  0.32732922  0.13065655  1
  In  In69  1  0.83093575  0.33561424  0.62174975  1
  In  In70  1  0.81783717  0.68818885  0.14404332  1
  In  In71  1  0.83310968  0.67335475  0.62814818  1
  In  In72  1  0.16349516  0.50056793  -0.00734972  1
  In  In73  1  0.83426839  0.16852819  0.49188013  1
  In  In74  1  0.83737469  0.50630843  0.00142808  1
  In  In75  1  0.00285623  0.33891198  0.74729058  1
  In  In76  1  0.33344860  0.33169963  0.25184623  1
  In  In77  1  0.84106851  0.83726071  0.49341985  1
  In  In78  1  0.83442136  0.50114938  0.50024312  1
  In  In79  1  0.49864187  0.49605957  0.00662822  1
  In  In80  1  0.66261218  -0.00231528  0.74988610  1
  In  In81  1  -0.00305309  -0.00517485  0.24770991  1
  In  In82  1  0.16763676  0.83734047  -0.01056994  1
  In  In83  1  0.49176912  0.83124221  0.50521306  1
  In  In84  1  0.49755072  0.16229899  0.00212725  1
  In  In85  1  0.66154921  0.33881197  0.75550808  1
  Cu  Cu86  1  0.49813944  0.49795145  0.74470986  1
  Cu  Cu87  1  -0.00129496  0.67646153  -0.00226924  1
  Cu  Cu88  1  0.83080966  0.16535113  0.24652168  1
  Cu  Cu89  1  0.16479480  0.49951018  0.25956364  1
  Cu  Cu90  1  0.66426497  -0.00395134  0.00701631  1
  Cu  Cu91  1  0.49701600  0.50496469  0.25297495  1
  Cu  Cu92  1  0.32641154  0.66934124  0.50512403  1
  Cu  Cu93  1  0.00652031  0.33206066  0.00660587  1
  Cu  Cu94  1  0.67140054  0.67410410  0.00036058  1
  Cu  Cu95  1  0.33297798  0.33389368  0.49740274  1
  Cu  Cu96  1  0.17356502  0.83008554  0.25484417  1
  Cu  Cu97  1  0.65698019  0.00706674  0.49311813  1
  Cu  Cu98  1  0.32857373  -0.00181010  -0.00660649  1
  Cu  Cu99  1  0.17399093  0.16822587  0.74692716  1
  Cu  Cu100  1  0.83421031  0.51310189  0.74788151  1
  Cu  Cu101  1  -0.00064152  0.00572978  0.00320056  1
  Cu  Cu102  1  0.34275023  0.66453339  -0.00307909  1
  Cu  Cu103  1  0.65359650  0.33392829  0.49154302  1
  Cu  Cu104  1  -0.00102472  0.32683266  0.49962112  1
  Cu  Cu105  1  0.83667210  0.16664902  0.75651902  1
  Cu  Cu106  1  0.01363475  -0.00858522  0.50524972  1
  Cu  Cu107  1  0.16838358  0.49812204  0.74160524  1
  Cu  Cu108  1  0.83630755  0.49557066  0.25184841  1
  Cu  Cu109  1  0.67223653  0.32253604  0.00874206  1
  Cu  Cu110  1  0.33107745  0.00212381  0.50457656  1
  Cu  Cu111  1  0.49909114  0.83406311  0.24845865  1
  Cu  Cu112  1  0.16441853  0.16358264  0.25168897  1
  Cu  Cu113  1  0.82954158  0.83864613  0.75498560  1
  Cu  Cu114  1  0.66202447  0.66548528  0.49656207  1
  Se  Se115  1  0.08860055  0.08815948  0.04995120  1
  Se  Se116  1  0.09016178  0.08791985  0.55015849  1
  Se  Se117  1  0.07997295  0.41891003  0.06453655  1
  Se  Se118  1  0.08222322  0.41425230  0.54871714  1
  Se  Se119  1  0.08667098  0.74787328  0.05864663  1
  Se  Se120  1  0.08421351  0.75576705  0.56333449  1
  Se  Se121  1  0.40709081  0.07203188  0.06084809  1
  Se  Se122  1  0.41779261  0.08497841  0.55451870  1
  Se  Se123  1  0.40189554  0.40017208  0.05472225  1
  Se  Se124  1  0.41622652  0.42179231  0.54850796  1
  Se  Se125  1  0.42191819  0.74972941  0.05160586  1
  Se  Se126  1  0.40010875  0.75103568  0.56873811  1
  Se  Se127  1  0.74835284  0.08449534  0.05422340  1
  Se  Se128  1  0.74424249  0.07829931  0.55552078  1
  Se  Se129  1  0.74645440  0.41596275  0.06163823  1
  Se  Se130  1  0.73557959  0.40957474  0.55452841  1
  Se  Se131  1  0.75291392  0.75332865  0.05800361  1
  Se  Se132  1  0.74203815  0.74982121  0.55335722  1
  Se  Se133  1  0.25039482  0.24823280  0.05142186  1
  Se  Se134  1  0.25119767  0.24714253  0.55041122  1
  Se  Se135  1  0.25780771  0.58817246  0.05548665  1
  Se  Se136  1  0.24610578  0.58010582  0.55612486  1
  Se  Se137  1  0.25208333  0.92017016  0.05904255  1
  Se  Se138  1  0.25494496  0.91332735  0.55876331  1
  Se  Se139  1  0.58670434  0.24800949  0.06690195  1
  Se  Se140  1  0.57922800  0.24425014  0.54627686  1
  Se  Se141  1  0.59267124  0.59035539  0.05935995  1
  Se  Se142  1  0.57598245  0.58898480  0.55177350  1
  Se  Se143  1  0.57724004  0.91271269  0.05531445  1
  Se  Se144  1  0.58579338  0.92687334  0.55950976  1
  Se  Se145  1  0.91808183  0.24992055  0.05530479  1
  Se  Se146  1  0.92355157  0.24714429  0.56322566  1
  Se  Se147  1  0.92057485  0.59991843  0.06136751  1
  Se  Se148  1  0.92181529  0.59744454  0.55509757  1
  Se  Se149  1  0.92075218  0.91526031  0.05296398  1
  Se  Se150  1  0.92837739  0.91435324  0.56241867  1
  Se  Se151  1  0.08311918  0.24362482  0.44719941  1
  Se  Se152  1  0.08654768  0.25111701  0.94853846  1
  Se  Se153  1  0.08964804  0.57688372  0.45160641  1
  Se  Se154  1  0.08391903  0.60462300  0.93632551  1
  Se  Se155  1  0.09276982  0.90616512  0.45073361  1
  Se  Se156  1  0.07610496  0.93039289  0.93537914  1
  Se  Se157  1  0.41590756  0.24903734  0.44539262  1
  Se  Se158  1  0.41080116  0.24897532  0.93843553  1
  Se  Se159  1  0.41550927  0.59193223  0.45126555  1
  Se  Se160  1  0.42240794  0.58442746  0.93727526  1
  Se  Se161  1  0.40947129  0.92231652  0.44067477  1
  Se  Se162  1  0.41191911  0.91168317  0.94340077  1
  Se  Se163  1  0.73707210  0.25147811  0.43453698  1
  Se  Se164  1  0.75625167  0.24277728  0.95456008  1
  Se  Se165  1  0.74609400  0.58941290  0.43723832  1
  Se  Se166  1  0.74577385  0.59087705  0.93810741  1
  Se  Se167  1  0.73924846  0.92436504  0.43875903  1
  Se  Se168  1  0.75191899  0.91455418  0.95476793  1
  Se  Se169  1  0.24886394  0.08461847  0.44897996  1
  Se  Se170  1  0.24951228  0.08390594  0.94022030  1
  Se  Se171  1  0.24566803  0.41867975  0.44988179  1
  Se  Se172  1  0.26035526  0.41097723  0.94134668  1
  Se  Se173  1  0.24870524  0.75264371  0.44704300  1
  Se  Se174  1  0.26228417  0.74487737  0.93758957  1
  Se  Se175  1  0.57560294  0.08739068  0.43847872  1
  Se  Se176  1  0.58697411  0.07131793  0.94028424  1
  Se  Se177  1  0.57514596  0.42647443  0.44442231  1
  Se  Se178  1  0.59153814  0.40073563  0.94705353  1
  Se  Se179  1  0.58709005  0.75304492  0.43835631  1
  Se  Se180  1  0.58102695  0.74874299  0.94618544  1
  Se  Se181  1  0.92810928  0.06686082  0.44336605  1
  Se  Se182  1  0.91337776  0.08879023  0.95059136  1
  Se  Se183  1  0.91831514  0.40603489  0.43939071  1
  Se  Se184  1  0.93102318  0.41322680  0.94275093  1
  Se  Se185  1  0.92685541  0.73841801  0.44016163  1
  Se  Se186  1  0.91354765  0.75916946  0.94664702  1
  Se  Se187  1  0.24338257  0.24429828  0.31380161  1
  Se  Se188  1  0.25665923  0.25159392  0.80031188  1
  Se  Se189  1  0.24978559  0.58496591  0.30854305  1
  Se  Se190  1  0.24800212  0.57870701  0.80075438  1
  Se  Se191  1  0.25484601  0.91903247  0.30357949  1
  Se  Se192  1  0.23772974  0.90391540  0.79716840  1
  Se  Se193  1  0.58838978  0.26973844  0.30026368  1
  Se  Se194  1  0.57604820  0.23453979  0.80498007  1
  Se  Se195  1  0.58409395  0.58786234  0.30392852  1
  Se  Se196  1  0.58538378  0.57862791  0.79861428  1
  Se  Se197  1  0.58191178  0.91965340  0.30020372  1
  Se  Se198  1  0.58090895  0.91126492  0.81619930  1
  Se  Se199  1  0.91820634  0.24417689  0.30001328  1
  Se  Se200  1  0.91431148  0.25238537  0.81311274  1
  Se  Se201  1  0.91972623  0.57649530  0.30671398  1
  Se  Se202  1  0.92244837  0.59302814  0.79861373  1
  Se  Se203  1  0.90876988  0.90439363  0.30837174  1
  Se  Se204  1  0.91296970  0.92269358  0.80653135  1
  Se  Se205  1  0.08741289  0.07927068  0.31238675  1
  Se  Se206  1  0.08615386  0.09304763  0.80359298  1
  Se  Se207  1  0.08064845  0.41035724  0.30551661  1
  Se  Se208  1  0.09281125  0.42436085  0.81188854  1
  Se  Se209  1  0.08820105  0.74875570  0.30701268  1
  Se  Se210  1  0.07441293  0.75438028  0.79594224  1
  Se  Se211  1  0.41160188  0.08565598  0.29921939  1
  Se  Se212  1  0.41418929  0.07597910  0.79355558  1
  Se  Se213  1  0.41488316  0.42641998  0.31440394  1
  Se  Se214  1  0.41945065  0.41395748  0.80117239  1
  Se  Se215  1  0.41710926  0.74926335  0.30298950  1
  Se  Se216  1  0.39533976  0.72459325  0.80782661  1
  Se  Se217  1  0.74743295  0.08104071  0.29834463  1
  Se  Se218  1  0.75299863  0.08664124  0.81343011  1
  Se  Se219  1  0.74775958  0.41390214  0.30127355  1
  Se  Se220  1  0.76094155  0.42984810  0.81063217  1
  Se  Se221  1  0.75093000  0.74729852  0.29569851  1
  Se  Se222  1  0.74653509  0.75198612  0.80530380  1
  Se  Se223  1  0.24902279  0.08052623  0.20030012  1
  Se  Se224  1  0.25376190  0.08243628  0.69222176  1
  Se  Se225  1  0.24054323  0.42264241  0.19157553  1
  Se  Se226  1  0.25433498  0.41289779  0.69454864  1
  Se  Se227  1  0.25568355  0.74758731  0.19760305  1
  Se  Se228  1  0.24448177  0.74713742  0.70350903  1
  Se  Se229  1  0.57446100  0.08585273  0.20181569  1
  Se  Se230  1  0.57809487  0.09095214  0.68923458  1
  Se  Se231  1  0.57762615  0.41885107  0.19977811  1
  Se  Se232  1  0.57775543  0.41671918  0.68404771  1
  Se  Se233  1  0.58253442  0.74979606  0.19491682  1
  Se  Se234  1  0.58235639  0.74579415  0.70317714  1
  Se  Se235  1  0.91153458  0.08452555  0.18469796  1
  Se  Se236  1  0.91573883  0.08166103  0.70275238  1
  Se  Se237  1  0.92140130  0.41317816  0.19876480  1
  Se  Se238  1  0.91000608  0.42953074  0.68705230  1
  Se  Se239  1  0.93475121  0.73516684  0.20035185  1
  Se  Se240  1  0.91137198  0.75780161  0.69721101  1
  Se  Se241  1  0.08146127  0.24822741  0.19998096  1
  Se  Se242  1  0.09321610  0.25066092  0.68715823  1
  Se  Se243  1  0.08542858  0.58317843  0.20080544  1
  Se  Se244  1  0.08239360  0.58307883  0.69457993  1
  Se  Se245  1  0.09385938  0.90635502  0.18962301  1
  Se  Se246  1  0.06293939  0.94981681  0.69046321  1
  Se  Se247  1  0.42071510  0.23949088  0.19255524  1
  Se  Se248  1  0.41676210  0.25335831  0.69395032  1
  Se  Se249  1  0.41186616  0.58494444  0.19858713  1
  Se  Se250  1  0.41518371  0.58220441  0.69284816  1
  Se  Se251  1  0.41320509  0.91518061  0.19524571  1
  Se  Se252  1  0.44241410  0.88899440  0.69649682  1
  Se  Se253  1  0.74810274  0.25249005  0.19552723  1
  Se  Se254  1  0.75782027  0.24562156  0.69580258  1
  Se  Se255  1  0.75130865  0.58102908  0.20168899  1
  Se  Se256  1  0.74702317  0.58975296  0.69380696  1
  Se  Se257  1  0.75091687  0.91477519  0.19595448  1
  Se  Se258  1  0.75352567  0.91103554  0.68558463  1
