# generated using pymatgen
data_In86Cu29Se144
_symmetry_space_group_name_H-M   'P 1'
_cell_length_a   17.59490791
_cell_length_b   17.58736803
_cell_length_c   23.45888894
_cell_angle_alpha   89.98956209
_cell_angle_beta   90.01144740
_cell_angle_gamma   89.99536749
_symmetry_Int_Tables_number   1
_chemical_formula_structural   In86Cu29Se144
_chemical_formula_sum   'In86 Cu29 Se144'
_cell_volume   7259.30881320
_cell_formula_units_Z   1
loop_
 _symmetry_equiv_pos_site_id
 _symmetry_equiv_pos_as_xyz
  1  'x, y, z'
loop_
 _atom_site_type_symbol
 _atom_site_label
 _atom_site_symmetry_multiplicity
 _atom_site_fract_x
 _atom_site_fract_y
 _atom_site_fract_z
 _atom_site_occupancy
  In  In0  1  0.00142789  0.17012814  0.12264221  1
  In  In1  1  0.00061095  0.16701528  0.62340271  1
  In  In2  1  0.00989283  0.48654209  0.12862818  1
  In  In3  1  0.00516121  0.49268408  0.63650959  1
  In  In4  1  -0.00393517  0.84678682  0.13665973  1
  In  In5  1  -0.00692600  0.84513901  0.62662974  1
  In  In6  1  0.34568153  0.17256795  0.11760959  1
  In  In7  1  0.32554817  0.16335798  0.62101945  1
  In  In8  1  0.32328266  0.49373747  0.11535523  1
  In  In9  1  0.33336799  0.48692495  0.62664358  1
  In  In10  1  0.33126500  0.82350221  0.11988167  1
  In  In11  1  0.34763308  0.84101784  0.63173968  1
  In  In12  1  0.66767092  0.17194269  0.13109126  1
  In  In13  1  0.66719344  0.16964147  0.61627399  1
  In  In14  1  0.65409805  0.48810702  0.12032610  1
  In  In15  1  0.67313455  0.51252672  0.62479672  1
  In  In16  1  0.67346000  0.84421277  0.12399824  1
  In  In17  1  0.67066341  0.82241632  0.62542809  1
  In  In18  1  0.17208742  0.01510366  0.37401860  1
  In  In19  1  0.17161626  0.00919498  0.87166694  1
  In  In20  1  0.15049454  0.31420906  0.35964636  1
  In  In21  1  0.14742799  0.34282011  0.89442544  1
  In  In22  1  0.14639350  0.66417037  0.37037910  1
  In  In23  1  0.15123291  0.66011510  0.87047384  1
  In  In24  1  0.51818352  0.00475537  0.36834484  1
  In  In25  1  0.47893374  0.01688796  0.89663100  1
  In  In26  1  0.49768571  0.32848229  0.37192514  1
  In  In27  1  0.49881149  0.33614615  0.88674960  1
  In  In28  1  0.48993545  0.66411110  0.37548843  1
  In  In29  1  0.51183460  0.66066348  0.88500496  1
  In  In30  1  0.83223280  0.00625962  0.37580882  1
  In  In31  1  0.84595817  -0.00062920  0.87330818  1
  In  In32  1  0.83002910  0.32036996  0.36118800  1
  In  In33  1  0.84414585  0.31835719  0.88088815  1
  In  In34  1  0.84624971  0.66248477  0.37650053  1
  In  In35  1  0.83334862  0.66868190  0.86738684  1
  In  In36  1  0.00152427  0.17221769  0.37250628  1
  In  In37  1  0.00497076  0.16693750  0.87489315  1
  In  In38  1  -0.00815185  0.49155675  0.36465613  1
  In  In39  1  0.00009641  0.49804680  0.87322725  1
  In  In40  1  -0.00930612  0.82288003  0.37140442  1
  In  In41  1  -0.00010675  0.83643044  0.86525895  1
  In  In42  1  0.31942451  0.17556531  0.37909436  1
  In  In43  1  0.32933025  0.16427392  0.88422294  1
  In  In44  1  0.34665620  0.49387113  0.37804945  1
  In  In45  1  0.32976635  0.49847530  0.87930635  1
  In  In46  1  0.33400374  0.83808229  0.37577136  1
  In  In47  1  0.33380986  0.85143991  0.87973190  1
  In  In48  1  0.66897868  0.16441818  0.37023898  1
  In  In49  1  0.66577935  0.16698613  0.88425430  1
  In  In50  1  0.66513637  0.48148680  0.37166205  1
  In  In51  1  0.65865112  0.50459299  0.87862022  1
  In  In52  1  0.67193166  0.85412922  0.37085429  1
  In  In53  1  0.66234512  0.82394313  0.87605053  1
  In  In54  1  0.14784249  0.00281497  0.12266914  1
  In  In55  1  0.16047807  0.01202728  0.63317326  1
  In  In56  1  0.16851465  0.33653499  0.12413256  1
  In  In57  1  0.16305051  0.32354206  0.62472323  1
  In  In58  1  0.16533897  0.66052520  0.12197179  1
  In  In59  1  0.14839973  0.65807325  0.63025013  1
  In  In60  1  0.50638449  0.01662787  0.11195123  1
  In  In61  1  0.49027919  0.00296885  0.62958902  1
  In  In62  1  0.49883084  0.33280670  0.12736807  1
  In  In63  1  0.50097482  0.33466235  0.61710213  1
  In  In64  1  0.50008347  0.65578393  0.10633005  1
  In  In65  1  0.51268662  0.67163400  0.62726746  1
  In  In66  1  0.82298421  0.02386116  0.14472030  1
  In  In67  1  0.84673681  0.01846553  0.61133611  1
  In  In68  1  0.85583255  0.30235753  0.14956753  1
  In  In69  1  0.84463995  0.32724280  0.62073709  1
  In  In70  1  0.83777495  0.67835849  0.12405821  1
  In  In71  1  0.83035048  0.66962104  0.62811579  1
  In  In72  1  0.83085991  0.48969490  0.49508299  1
  In  In73  1  0.66869226  0.66608130  0.24228883  1
  In  In74  1  0.16574010  0.83491408  -0.00231315  1
  In  In75  1  0.51081647  0.83917142  0.50209975  1
  In  In76  1  0.32348764  0.32984938  0.75017783  1
  In  In77  1  0.66944576  -0.00793311  0.75149342  1
  In  In78  1  0.32441601  0.66128113  0.23860702  1
  In  In79  1  0.32908915  0.00153465  0.24757782  1
  In  In80  1  0.16816008  0.48988559  0.50670582  1
  In  In81  1  0.83044964  0.49075612  0.00038921  1
  In  In82  1  0.82765187  0.83942078  0.00358425  1
  In  In83  1  0.32907873  0.67211651  0.75847951  1
  In  In84  1  0.67240825  0.34056909  0.75470279  1
  In  In85  1  0.16996377  0.83976013  0.49823512  1
  Cu  Cu86  1  0.66650690  0.00654630  0.00831578  1
  Cu  Cu87  1  0.83581778  0.50056649  0.25106394  1
  Cu  Cu88  1  0.66985315  0.33006874  0.00750366  1
  Cu  Cu89  1  0.00057927  0.00557572  0.49913914  1
  Cu  Cu90  1  0.83591430  0.83654771  0.25114217  1
  Cu  Cu91  1  0.16561925  0.17149069  0.24727428  1
  Cu  Cu92  1  0.16766210  0.83464883  0.75346459  1
  Cu  Cu93  1  0.50306661  0.84045625  0.75467142  1
  Cu  Cu94  1  0.49978967  0.49152355  0.24831512  1
  Cu  Cu95  1  0.50098676  0.50791695  0.75402721  1
  Cu  Cu96  1  0.49517291  0.16486676  0.75626054  1
  Cu  Cu97  1  0.33725011  0.33330367  0.49693673  1
  Cu  Cu98  1  0.84501195  0.16466765  0.74909342  1
  Cu  Cu99  1  0.83649941  0.83435852  0.74638520  1
  Cu  Cu100  1  -0.00094004  0.66400728  -0.00273762  1
  Cu  Cu101  1  0.33758963  0.00935688  0.50258397  1
  Cu  Cu102  1  -0.00767089  0.66376071  0.49992919  1
  Cu  Cu103  1  0.33471442  0.66373280  -0.00474099  1
  Cu  Cu104  1  -0.00754941  0.01105506  0.00059585  1
  Cu  Cu105  1  0.33656506  0.33297210  0.00340383  1
  Cu  Cu106  1  0.66451955  0.66549867  0.50219168  1
  Cu  Cu107  1  0.67273647  0.00778636  0.49460721  1
  Cu  Cu108  1  0.33477653  0.66068213  0.49739710  1
  Cu  Cu109  1  0.83643095  0.50373159  0.74955843  1
  Cu  Cu110  1  0.50087959  0.16758938  0.24707356  1
  Cu  Cu111  1  0.65935550  0.32852393  0.49130801  1
  Cu  Cu112  1  0.49749019  0.83452272  0.24185909  1
  Cu  Cu113  1  0.17040929  0.49991381  0.24400717  1
  Cu  Cu114  1  0.16411836  0.16292763  0.75125405  1
  Se  Se115  1  0.08403515  0.09073213  0.04836056  1
  Se  Se116  1  0.08684726  0.08365471  0.55449999  1
  Se  Se117  1  0.09470355  0.42470045  0.05335775  1
  Se  Se118  1  0.06763654  0.40386043  0.55742439  1
  Se  Se119  1  0.07063237  0.75077778  0.05962064  1
  Se  Se120  1  0.07757025  0.74555519  0.55514809  1
  Se  Se121  1  0.40706247  0.07792558  0.04650380  1
  Se  Se122  1  0.42283374  0.08936382  0.55629198  1
  Se  Se123  1  0.42147176  0.41787827  0.05489118  1
  Se  Se124  1  0.41612930  0.41978426  0.55146419  1
  Se  Se125  1  0.41472035  0.74872069  0.04850058  1
  Se  Se126  1  0.41274096  0.74625893  0.55647813  1
  Se  Se127  1  0.75210645  0.08804465  0.06078724  1
  Se  Se128  1  0.75400930  0.09428285  0.54714608  1
  Se  Se129  1  0.75578085  0.40026413  0.06957672  1
  Se  Se130  1  0.73730654  0.40475185  0.55870681  1
  Se  Se131  1  0.73765734  0.74047281  0.05483390  1
  Se  Se132  1  0.75169746  0.74716572  0.55234015  1
  Se  Se133  1  0.25125575  0.25154851  0.05577025  1
  Se  Se134  1  0.25221637  0.25491336  0.55355167  1
  Se  Se135  1  0.24715410  0.58617528  0.04930875  1
  Se  Se136  1  0.25439704  0.59127149  0.56307136  1
  Se  Se137  1  0.25059164  0.92339004  0.06061425  1
  Se  Se138  1  0.26077018  0.92460542  0.56219665  1
  Se  Se139  1  0.58260049  0.24840753  0.05929010  1
  Se  Se140  1  0.57840451  0.24765096  0.54974375  1
  Se  Se141  1  0.59151217  0.57568234  0.04658870  1
  Se  Se142  1  0.58143581  0.58291613  0.55482497  1
  Se  Se143  1  0.58483574  0.91561443  0.05422129  1
  Se  Se144  1  0.59712168  0.93130247  0.56346307  1
  Se  Se145  1  0.91380164  0.25221024  0.05727180  1
  Se  Se146  1  0.90935229  0.23592728  0.55227688  1
  Se  Se147  1  0.92073027  0.58605203  0.05989186  1
  Se  Se148  1  0.91800815  0.57801760  0.56044748  1
  Se  Se149  1  0.91612635  0.92961583  0.06247549  1
  Se  Se150  1  0.91744820  0.91745680  0.54873443  1
  Se  Se151  1  0.09082084  0.24548293  0.44346367  1
  Se  Se152  1  0.10231844  0.22349393  0.94749244  1
  Se  Se153  1  0.07267615  0.57826233  0.44477094  1
  Se  Se154  1  0.08137763  0.57931150  0.94618636  1
  Se  Se155  1  0.07844735  0.92400763  0.43708784  1
  Se  Se156  1  0.06997872  0.92436755  0.94146267  1
  Se  Se157  1  0.41689889  0.24641715  0.44369452  1
  Se  Se158  1  0.41737958  0.24815467  0.94954551  1
  Se  Se159  1  0.42250615  0.57869416  0.44961228  1
  Se  Se160  1  0.41858600  0.57748174  0.94493606  1
  Se  Se161  1  0.41645685  0.92733939  0.44208157  1
  Se  Se162  1  0.42097678  0.90776000  0.95607020  1
  Se  Se163  1  0.74865256  0.25227160  0.43896969  1
  Se  Se164  1  0.75107979  0.24998041  0.94939149  1
  Se  Se165  1  0.74032201  0.58531768  0.43745035  1
  Se  Se166  1  0.74961447  0.59189597  0.94254004  1
  Se  Se167  1  0.75409682  0.91745091  0.44798913  1
  Se  Se168  1  0.74104897  0.92991509  0.93974562  1
  Se  Se169  1  0.24805163  0.08700077  0.45128331  1
  Se  Se170  1  0.25635572  0.06836884  0.94873955  1
  Se  Se171  1  0.25029965  0.40723416  0.43682999  1
  Se  Se172  1  0.25238834  0.41603942  0.94993826  1
  Se  Se173  1  0.25400877  0.73882317  0.43847869  1
  Se  Se174  1  0.25172950  0.74188138  0.93423910  1
  Se  Se175  1  0.58322205  0.08713121  0.44466827  1
  Se  Se176  1  0.58229655  0.08996323  0.95432448  1
  Se  Se177  1  0.57576087  0.41649132  0.44370983  1
  Se  Se178  1  0.59085590  0.41474749  0.95019688  1
  Se  Se179  1  0.59145243  0.74674985  0.43565115  1
  Se  Se180  1  0.58215313  0.75507693  0.95089115  1
  Se  Se181  1  0.91912505  0.08751008  0.44273033  1
  Se  Se182  1  0.91066481  0.09109091  0.94362393  1
  Se  Se183  1  0.92124017  0.40181254  0.43682187  1
  Se  Se184  1  0.92981640  0.40432114  0.94816796  1
  Se  Se185  1  0.91179101  0.75141169  0.44968699  1
  Se  Se186  1  0.92068074  0.75009751  0.94131046  1
  Se  Se187  1  0.25615249  0.25186771  0.29688707  1
  Se  Se188  1  0.23866643  0.24493764  0.81470334  1
  Se  Se189  1  0.24598535  0.57611398  0.31254731  1
  Se  Se190  1  0.24023896  0.57049942  0.80534806  1
  Se  Se191  1  0.24064030  0.90905111  0.30808455  1
  Se  Se192  1  0.25066116  0.91900916  0.80398031  1
  Se  Se193  1  0.58334662  0.24959415  0.30314774  1
  Se  Se194  1  0.57706680  0.24839188  0.81075469  1
  Se  Se195  1  0.57618818  0.57974789  0.30562329  1
  Se  Se196  1  0.58704222  0.58912724  0.80456699  1
  Se  Se197  1  0.58235865  0.91462146  0.29536757  1
  Se  Se198  1  0.57417621  0.92313615  0.81922572  1
  Se  Se199  1  0.92260899  0.24721175  0.29677001  1
  Se  Se200  1  0.92353902  0.25077956  0.80322121  1
  Se  Se201  1  0.91967154  0.58794326  0.29939901  1
  Se  Se202  1  0.92018874  0.58475251  0.80484870  1
  Se  Se203  1  0.91531546  0.91825867  0.30851152  1
  Se  Se204  1  0.91814768  0.92104058  0.79751305  1
  Se  Se205  1  0.08682557  0.08733429  0.30326623  1
  Se  Se206  1  0.07877696  0.07842218  0.80256617  1
  Se  Se207  1  0.08512224  0.41868976  0.29881813  1
  Se  Se208  1  0.07823962  0.40439497  0.81012493  1
  Se  Se209  1  0.08205676  0.75380032  0.30136432  1
  Se  Se210  1  0.08128685  0.74905350  0.79986255  1
  Se  Se211  1  0.41895257  0.08947013  0.30976832  1
  Se  Se212  1  0.41316013  0.08516961  0.81156996  1
  Se  Se213  1  0.41370915  0.41212339  0.30180841  1
  Se  Se214  1  0.42263324  0.41980489  0.80746805  1
  Se  Se215  1  0.41770469  0.75544998  0.30133598  1
  Se  Se216  1  0.42448446  0.75768202  0.81522541  1
  Se  Se217  1  0.73713865  0.06744519  0.30464411  1
  Se  Se218  1  0.75487483  0.09256846  0.80791209  1
  Se  Se219  1  0.74976198  0.41489160  0.29840904  1
  Se  Se220  1  0.76323027  0.42550051  0.81738499  1
  Se  Se221  1  0.75456849  0.75204854  0.30953690  1
  Se  Se222  1  0.75106181  0.75709077  0.80260341  1
  Se  Se223  1  0.24428946  0.09175144  0.18528815  1
  Se  Se224  1  0.25579765  0.08488141  0.69926075  1
  Se  Se225  1  0.25628372  0.41649958  0.19472159  1
  Se  Se226  1  0.23319203  0.42447190  0.69413316  1
  Se  Se227  1  0.23348227  0.76169657  0.19205666  1
  Se  Se228  1  0.24382425  0.75653537  0.68727909  1
  Se  Se229  1  0.58061827  0.08089680  0.19397279  1
  Se  Se230  1  0.58171306  0.09270714  0.69494119  1
  Se  Se231  1  0.58706799  0.40942333  0.19882314  1
  Se  Se232  1  0.57766532  0.42471992  0.69226883  1
  Se  Se233  1  0.57344099  0.75026846  0.18227995  1
  Se  Se234  1  0.58391713  0.75617699  0.70052226  1
  Se  Se235  1  0.94876042  0.06308560  0.19047548  1
  Se  Se236  1  0.92258155  0.07888977  0.69418150  1
  Se  Se237  1  0.92190968  0.41625960  0.20083443  1
  Se  Se238  1  0.90972801  0.41244267  0.69632278  1
  Se  Se239  1  0.91700028  0.75129457  0.19828576  1
  Se  Se240  1  0.91987666  0.75052979  0.69284785  1
  Se  Se241  1  0.08353231  0.25483922  0.19260260  1
  Se  Se242  1  0.08239315  0.24653284  0.69652399  1
  Se  Se243  1  0.08434603  0.58351423  0.19420398  1
  Se  Se244  1  0.07744082  0.58164359  0.70489546  1
  Se  Se245  1  0.08294797  0.92615047  0.20176905  1
  Se  Se246  1  0.08585824  0.91535219  0.69497503  1
  Se  Se247  1  0.41475925  0.24998085  0.19629415  1
  Se  Se248  1  0.42299138  0.24722080  0.69186799  1
  Se  Se249  1  0.42430558  0.57501318  0.18650114  1
  Se  Se250  1  0.41780934  0.58263478  0.69182814  1
  Se  Se251  1  0.41841368  0.91576024  0.18339219  1
  Se  Se252  1  0.41705222  0.92450797  0.70589575  1
  Se  Se253  1  0.75320958  0.23538804  0.20848927  1
  Se  Se254  1  0.75389494  0.24245439  0.69457466  1
  Se  Se255  1  0.75794308  0.57414884  0.18448688  1
  Se  Se256  1  0.74952212  0.58724135  0.69972065  1
  Se  Se257  1  0.74880581  0.91780548  0.19995053  1
  Se  Se258  1  0.76160500  0.91723771  0.68357502  1
