# generated using pymatgen
data_In86Cu29Se144
_symmetry_space_group_name_H-M   'P 1'
_cell_length_a   17.59653639
_cell_length_b   17.59150567
_cell_length_c   23.45612949
_cell_angle_alpha   90.00413487
_cell_angle_beta   90.01490776
_cell_angle_gamma   89.99979792
_symmetry_Int_Tables_number   1
_chemical_formula_structural   In86Cu29Se144
_chemical_formula_sum   'In86 Cu29 Se144'
_cell_volume   7260.83452377
_cell_formula_units_Z   1
loop_
 _symmetry_equiv_pos_site_id
 _symmetry_equiv_pos_as_xyz
  1  'x, y, z'
loop_
 _atom_site_type_symbol
 _atom_site_label
 _atom_site_symmetry_multiplicity
 _atom_site_fract_x
 _atom_site_fract_y
 _atom_site_fract_z
 _atom_site_occupancy
  In  In0  1  0.01717136  0.14837897  0.13528813  1
  In  In1  1  -0.00784377  0.17339428  0.62773837  1
  In  In2  1  0.00629798  0.50082009  0.12129035  1
  In  In3  1  0.00515627  0.49167201  0.62946091  1
  In  In4  1  0.00396155  0.83470702  0.12108055  1
  In  In5  1  0.01468947  0.83296114  0.62585566  1
  In  In6  1  0.32130432  0.15512541  0.12016575  1
  In  In7  1  0.34156515  0.15500873  0.61625659  1
  In  In8  1  0.33346313  0.51133196  0.11666514  1
  In  In9  1  0.32649399  0.49437408  0.61350391  1
  In  In10  1  0.33352758  0.83237352  0.12591145  1
  In  In11  1  0.32776781  0.83885381  0.61168480  1
  In  In12  1  0.66077127  0.17809000  0.12390174  1
  In  In13  1  0.66139779  0.15707800  0.62137271  1
  In  In14  1  0.66746335  0.50154575  0.11807589  1
  In  In15  1  0.65978869  0.50775896  0.62849956  1
  In  In16  1  0.66267428  0.83031760  0.11607856  1
  In  In17  1  0.66937872  0.84586751  0.62916712  1
  In  In18  1  0.15950847  -0.00844386  0.36877873  1
  In  In19  1  0.15495180  0.00768618  0.88906633  1
  In  In20  1  0.17007567  0.35077380  0.37448087  1
  In  In21  1  0.14689814  0.34537098  0.88054920  1
  In  In22  1  0.17041179  0.66741916  0.36852073  1
  In  In23  1  0.16623701  0.67096490  0.88950788  1
  In  In24  1  0.48308010  0.01012141  0.38450826  1
  In  In25  1  0.50519721  -0.01010207  0.88156928  1
  In  In26  1  0.48425518  0.33588421  0.39310439  1
  In  In27  1  0.49162608  0.33877690  0.88191898  1
  In  In28  1  0.48234151  0.68311896  0.37902856  1
  In  In29  1  0.48943232  0.67118737  0.88723480  1
  In  In30  1  0.84864066  0.00069597  0.37610742  1
  In  In31  1  0.83475810  -0.00907637  0.86589155  1
  In  In32  1  0.83387557  0.32441534  0.37720179  1
  In  In33  1  0.84704537  0.33753671  0.87149991  1
  In  In34  1  0.84004566  0.65767336  0.37078892  1
  In  In35  1  0.83429921  0.66978532  0.88451814  1
  In  In36  1  -0.00345571  0.16080439  0.37124292  1
  In  In37  1  0.00115425  0.16728976  0.87144032  1
  In  In38  1  0.01015262  0.51047081  0.36458725  1
  In  In39  1  0.00346792  0.49563949  0.87853240  1
  In  In40  1  0.01081098  0.83803602  0.36400378  1
  In  In41  1  -0.00796911  0.85057502  0.89700107  1
  In  In42  1  0.34342972  0.16913431  0.37693459  1
  In  In43  1  0.32940916  0.16674767  0.88290169  1
  In  In44  1  0.32117636  0.50662192  0.38256933  1
  In  In45  1  0.32292594  0.50956734  0.88948845  1
  In  In46  1  0.33076939  0.83455218  0.36787715  1
  In  In47  1  0.31708269  0.83273412  0.89514448  1
  In  In48  1  0.66017283  0.17161096  0.38348483  1
  In  In49  1  0.67206895  0.14945191  0.87302951  1
  In  In50  1  0.66322688  0.48794127  0.37480281  1
  In  In51  1  0.66177577  0.50408411  0.88045761  1
  In  In52  1  0.65532002  0.82561281  0.37356968  1
  In  In53  1  0.66573798  0.83858987  0.87734281  1
  In  In54  1  0.16459561  -0.00146295  0.12366762  1
  In  In55  1  0.17294568  -0.01067743  0.62342744  1
  In  In56  1  0.15617248  0.32322174  0.12033039  1
  In  In57  1  0.15465228  0.33555391  0.62710064  1
  In  In58  1  0.17109153  0.66531699  0.12105903  1
  In  In59  1  0.16857619  0.67541423  0.61617696  1
  In  In60  1  0.48526089  -0.01304926  0.11839988  1
  In  In61  1  0.50584773  0.00490730  0.61700773  1
  In  In62  1  0.49871499  0.33421011  0.12046227  1
  In  In63  1  0.49484602  0.33232956  0.61669077  1
  In  In64  1  0.48595559  0.66275166  0.11709303  1
  In  In65  1  0.49043392  0.66192827  0.61866260  1
  In  In66  1  0.85478283  0.00003744  0.11754661  1
  In  In67  1  0.82210893  0.00480476  0.63430609  1
  In  In68  1  0.84132259  0.34640305  0.11870994  1
  In  In69  1  0.85275778  0.33377245  0.63029634  1
  In  In70  1  0.84748324  0.68075715  0.11273545  1
  In  In71  1  0.83864846  0.66574026  0.62945370  1
  In  In72  1  0.00172835  0.67228437  0.75410903  1
  In  In73  1  0.83335165  0.83516725  0.50522822  1
  In  In74  1  0.33138656  0.33432718  0.25241273  1
  In  In75  1  0.66939461  0.33038187  0.25672297  1
  In  In76  1  0.66969194  0.32885769  0.75843921  1
  In  In77  1  0.83529146  0.16771738  -0.00751264  1
  In  In78  1  0.32766016  0.66767527  0.76283226  1
  In  In79  1  0.32423177  0.33063085  0.74314082  1
  In  In80  1  0.66908417  0.66612991  0.24853927  1
  In  In81  1  0.17324631  0.17089939  0.49879990  1
  In  In82  1  0.67083653  0.00054798  0.24926726  1
  In  In83  1  0.67031534  0.66982777  0.75688720  1
  In  In84  1  0.83293224  0.49793122  0.50813292  1
  In  In85  1  0.33225243  -0.00187646  0.74493159  1
  Cu  Cu86  1  0.15649289  0.16905751  0.75353019  1
  Cu  Cu87  1  0.33035085  0.33099940  0.00322797  1
  Cu  Cu88  1  0.50464762  0.15534503  0.74895374  1
  Cu  Cu89  1  0.00191949  0.33830754  0.50248329  1
  Cu  Cu90  1  0.49790176  0.50708788  0.24823645  1
  Cu  Cu91  1  0.16749437  0.50187598  0.24548776  1
  Cu  Cu92  1  0.65605979  0.66169339  0.50115297  1
  Cu  Cu93  1  0.33078306  0.66853692  0.49429299  1
  Cu  Cu94  1  0.01179317  0.67076495  0.49319346  1
  Cu  Cu95  1  0.49612904  0.15992030  0.25230539  1
  Cu  Cu96  1  0.16495837  0.83701415  0.75280572  1
  Cu  Cu97  1  0.66412407  0.32777824  0.50236358  1
  Cu  Cu98  1  0.00090588  0.33120644  -0.00111210  1
  Cu  Cu99  1  0.66464875  0.66776871  -0.00089441  1
  Cu  Cu100  1  0.33341762  0.00443139  0.00562662  1
  Cu  Cu101  1  0.83590333  0.16218108  0.75065357  1
  Cu  Cu102  1  0.66700053  0.00475388  -0.00295592  1
  Cu  Cu103  1  0.16660822  0.83006942  0.24334983  1
  Cu  Cu104  1  0.66105394  0.33554599  -0.00135717  1
  Cu  Cu105  1  0.66826633  -0.00159293  0.50222477  1
  Cu  Cu106  1  0.00074577  0.66238812  0.00492169  1
  Cu  Cu107  1  0.84923471  0.50504020  0.24116046  1
  Cu  Cu108  1  0.16235574  0.16216441  0.24674419  1
  Cu  Cu109  1  0.50429662  0.83503421  0.75324873  1
  Cu  Cu110  1  0.84331058  0.83501454  0.24175740  1
  Cu  Cu111  1  0.48999467  0.83542396  0.24856092  1
  Cu  Cu112  1  0.00068642  0.00532669  0.49677310  1
  Cu  Cu113  1  0.49103276  0.49684906  0.75133695  1
  Cu  Cu114  1  0.84281771  0.16870600  0.25153637  1
  Se  Se115  1  0.08231909  0.08043940  0.05349502  1
  Se  Se116  1  0.08041381  0.08335739  0.55993489  1
  Se  Se117  1  0.08626720  0.41557613  0.05104880  1
  Se  Se118  1  0.08621561  0.42246681  0.55241391  1
  Se  Se119  1  0.08605675  0.74845928  0.05359724  1
  Se  Se120  1  0.08804842  0.75974718  0.54731462  1
  Se  Se121  1  0.42132223  0.08966497  0.05410287  1
  Se  Se122  1  0.40512374  0.06135421  0.54885718  1
  Se  Se123  1  0.41358310  0.41638816  0.05539651  1
  Se  Se124  1  0.42438363  0.42521060  0.55190220  1
  Se  Se125  1  0.43671654  0.77525020  0.05845128  1
  Se  Se126  1  0.41359540  0.74923885  0.55124933  1
  Se  Se127  1  0.74603644  0.08246471  0.06097260  1
  Se  Se128  1  0.75336239  0.08083260  0.55441821  1
  Se  Se129  1  0.74818219  0.41558738  0.05095828  1
  Se  Se130  1  0.74162763  0.40628003  0.56670719  1
  Se  Se131  1  0.75021050  0.75270951  0.04902695  1
  Se  Se132  1  0.74118093  0.73808188  0.56063447  1
  Se  Se133  1  0.24572299  0.24584621  0.05379737  1
  Se  Se134  1  0.25783196  0.25994622  0.56399416  1
  Se  Se135  1  0.25414498  0.59227740  0.04559811  1
  Se  Se136  1  0.24766580  0.58703198  0.55030624  1
  Se  Se137  1  0.25149409  0.91678220  0.05634994  1
  Se  Se138  1  0.24676045  0.92159845  0.54505857  1
  Se  Se139  1  0.57913932  0.25036785  0.05056641  1
  Se  Se140  1  0.58026002  0.24388197  0.55504915  1
  Se  Se141  1  0.58188819  0.58571820  0.05462893  1
  Se  Se142  1  0.57640482  0.57603672  0.55430859  1
  Se  Se143  1  0.58460269  0.92169940  0.05206241  1
  Se  Se144  1  0.58661417  0.91191759  0.55352030  1
  Se  Se145  1  0.92399704  0.24786823  0.06020520  1
  Se  Se146  1  0.91720029  0.25315400  0.55156743  1
  Se  Se147  1  0.91396543  0.57566521  0.05276423  1
  Se  Se148  1  0.93072808  0.59437816  0.55665654  1
  Se  Se149  1  0.91794956  0.90860261  0.04840879  1
  Se  Se150  1  0.92418692  0.92592973  0.56197242  1
  Se  Se151  1  0.07869344  0.25816309  0.43893252  1
  Se  Se152  1  0.08109145  0.24439839  0.94557370  1
  Se  Se153  1  0.08936509  0.58249859  0.44029065  1
  Se  Se154  1  0.08144748  0.57956046  0.94905880  1
  Se  Se155  1  0.07724410  0.91733098  0.44348462  1
  Se  Se156  1  0.12057587  0.88417594  0.94313403  1
  Se  Se157  1  0.41830010  0.23692610  0.45592895  1
  Se  Se158  1  0.41496147  0.24968482  0.94854591  1
  Se  Se159  1  0.41761869  0.58340670  0.44472035  1
  Se  Se160  1  0.43193451  0.56583875  0.94861879  1
  Se  Se161  1  0.43292615  0.89259452  0.43590947  1
  Se  Se162  1  0.41207240  0.91911961  0.94944417  1
  Se  Se163  1  0.75125450  0.24955232  0.44885638  1
  Se  Se164  1  0.74147835  0.25949612  0.93492504  1
  Se  Se165  1  0.74324130  0.58743491  0.44233510  1
  Se  Se166  1  0.74822834  0.58345029  0.94772751  1
  Se  Se167  1  0.74441241  0.91967466  0.43715069  1
  Se  Se168  1  0.75117204  0.92332340  0.94307904  1
  Se  Se169  1  0.25114424  0.07619511  0.43599047  1
  Se  Se170  1  0.24765374  0.08592078  0.95195551  1
  Se  Se171  1  0.26379606  0.40271617  0.44761146  1
  Se  Se172  1  0.24581803  0.41078459  0.94757720  1
  Se  Se173  1  0.24884013  0.75142558  0.43899327  1
  Se  Se174  1  0.27985146  0.71286857  0.95347883  1
  Se  Se175  1  0.58338891  0.08003350  0.44756248  1
  Se  Se176  1  0.58111351  0.08652680  0.94561491  1
  Se  Se177  1  0.58506543  0.41516226  0.44942775  1
  Se  Se178  1  0.57816622  0.42086107  0.94712006  1
  Se  Se179  1  0.57922283  0.75003152  0.44810010  1
  Se  Se180  1  0.58417645  0.75374902  0.94504951  1
  Se  Se181  1  0.91483724  0.09019739  0.44854825  1
  Se  Se182  1  0.92322751  0.07233712  0.93942578  1
  Se  Se183  1  0.92203530  0.41888511  0.43977864  1
  Se  Se184  1  0.91577513  0.41647150  0.94877858  1
  Se  Se185  1  0.92060458  0.74737771  0.43927570  1
  Se  Se186  1  0.91728637  0.74893269  0.95422986  1
  Se  Se187  1  0.24020585  0.24176238  0.31031022  1
  Se  Se188  1  0.24066879  0.24627551  0.81184844  1
  Se  Se189  1  0.25340331  0.57956853  0.30142439  1
  Se  Se190  1  0.23235017  0.57536750  0.81258715  1
  Se  Se191  1  0.24638797  0.91571360  0.29895615  1
  Se  Se192  1  0.24794171  0.91462908  0.81324158  1
  Se  Se193  1  0.56753866  0.24770959  0.31196506  1
  Se  Se194  1  0.57225043  0.24102178  0.81301007  1
  Se  Se195  1  0.57850810  0.58165616  0.31247313  1
  Se  Se196  1  0.56880161  0.58169000  0.80881199  1
  Se  Se197  1  0.57454105  0.91455215  0.30644977  1
  Se  Se198  1  0.58597870  0.92001910  0.80459390  1
  Se  Se199  1  0.92118680  0.25554101  0.30504279  1
  Se  Se200  1  0.91739655  0.24822520  0.80186676  1
  Se  Se201  1  0.92526616  0.59237726  0.29637461  1
  Se  Se202  1  0.91119238  0.58276603  0.81225482  1
  Se  Se203  1  0.91824060  0.91931611  0.30124617  1
  Se  Se204  1  0.93627051  0.91601295  0.80880592  1
  Se  Se205  1  0.07889747  0.07987134  0.30237947  1
  Se  Se206  1  0.08364625  0.07700045  0.80658019  1
  Se  Se207  1  0.08546884  0.41724322  0.29875681  1
  Se  Se208  1  0.07212456  0.41381531  0.80200870  1
  Se  Se209  1  0.08424545  0.74565469  0.29817996  1
  Se  Se210  1  0.09007778  0.75821940  0.81678771  1
  Se  Se211  1  0.40958886  0.07952231  0.30337040  1
  Se  Se212  1  0.41814728  0.08479324  0.81060428  1
  Se  Se213  1  0.42375480  0.42315629  0.31116467  1
  Se  Se214  1  0.40734956  0.42099822  0.80988788  1
  Se  Se215  1  0.40852664  0.74533976  0.29659138  1
  Se  Se216  1  0.41787013  0.76606287  0.81482777  1
  Se  Se217  1  0.75471522  0.09481589  0.31136683  1
  Se  Se218  1  0.75076403  0.07658018  0.79874082  1
  Se  Se219  1  0.76679321  0.42913873  0.30449586  1
  Se  Se220  1  0.75513196  0.42887000  0.80987385  1
  Se  Se221  1  0.76140470  0.76091355  0.30636760  1
  Se  Se222  1  0.76344984  0.76078094  0.81003877  1
  Se  Se223  1  0.24805752  0.07920130  0.19665831  1
  Se  Se224  1  0.24071680  0.09585519  0.69083801  1
  Se  Se225  1  0.24664763  0.41951035  0.18530839  1
  Se  Se226  1  0.23770974  0.43073493  0.69244799  1
  Se  Se227  1  0.25217530  0.74636984  0.19321475  1
  Se  Se228  1  0.24836200  0.75947093  0.69332824  1
  Se  Se229  1  0.57710076  0.08659245  0.18892144  1
  Se  Se230  1  0.58670154  0.07400167  0.69493284  1
  Se  Se231  1  0.58075739  0.42285434  0.19480926  1
  Se  Se232  1  0.57469561  0.41635777  0.69601654  1
  Se  Se233  1  0.57679558  0.75638969  0.19197707  1
  Se  Se234  1  0.57476761  0.74848447  0.69128104  1
  Se  Se235  1  0.91751835  0.07808452  0.19886715  1
  Se  Se236  1  0.91992747  0.08112102  0.69565106  1
  Se  Se237  1  0.92683981  0.41353977  0.19268194  1
  Se  Se238  1  0.91415382  0.42722959  0.69960532  1
  Se  Se239  1  0.92413501  0.74746197  0.19226556  1
  Se  Se240  1  0.91207543  0.76354451  0.69250459  1
  Se  Se241  1  0.08044721  0.25207507  0.19931956  1
  Se  Se242  1  0.07729804  0.25317809  0.69760225  1
  Se  Se243  1  0.08559947  0.58520269  0.19100741  1
  Se  Se244  1  0.09174846  0.58854630  0.68942005  1
  Se  Se245  1  0.08217559  0.91634652  0.19379444  1
  Se  Se246  1  0.08620971  0.92139610  0.69746333  1
  Se  Se247  1  0.41929326  0.24359005  0.19082716  1
  Se  Se248  1  0.42415305  0.23762593  0.69201712  1
  Se  Se249  1  0.41278380  0.58502896  0.19394957  1
  Se  Se250  1  0.41027026  0.57840438  0.69372937  1
  Se  Se251  1  0.40802414  0.92255876  0.19850815  1
  Se  Se252  1  0.42298555  0.90619508  0.68767833  1
  Se  Se253  1  0.76124316  0.24714753  0.19158150  1
  Se  Se254  1  0.75409622  0.24374917  0.69037215  1
  Se  Se255  1  0.76072329  0.58196217  0.18576915  1
  Se  Se256  1  0.75889219  0.57455728  0.69676948  1
  Se  Se257  1  0.75669532  0.91166281  0.18538210  1
  Se  Se258  1  0.75741509  0.90733979  0.70133367  1
