# generated using pymatgen
data_In86Cu29Se144
_symmetry_space_group_name_H-M   'P 1'
_cell_length_a   17.57227249
_cell_length_b   17.57434217
_cell_length_c   23.42044326
_cell_angle_alpha   90.00046812
_cell_angle_beta   90.00028339
_cell_angle_gamma   89.99508338
_symmetry_Int_Tables_number   1
_chemical_formula_structural   In86Cu29Se144
_chemical_formula_sum   'In86 Cu29 Se144'
_cell_volume   7232.72771130
_cell_formula_units_Z   1
loop_
 _symmetry_equiv_pos_site_id
 _symmetry_equiv_pos_as_xyz
  1  'x, y, z'
loop_
 _atom_site_type_symbol
 _atom_site_label
 _atom_site_symmetry_multiplicity
 _atom_site_fract_x
 _atom_site_fract_y
 _atom_site_fract_z
 _atom_site_occupancy
  In  In0  1  0.00662000  0.15403445  0.13037808  1
  In  In1  1  0.01635029  0.16866091  0.63087339  1
  In  In2  1  0.00586559  0.51027519  0.11925427  1
  In  In3  1  -0.01070416  0.49344895  0.62899612  1
  In  In4  1  0.00139233  0.82972082  0.12312290  1
  In  In5  1  -0.00049703  0.82775964  0.61439148  1
  In  In6  1  0.33046395  0.14518608  0.11333969  1
  In  In7  1  0.32694724  0.15468188  0.62334106  1
  In  In8  1  0.34611543  0.51283814  0.12614154  1
  In  In9  1  0.34297733  0.49149071  0.62351747  1
  In  In10  1  0.33029735  0.83928025  0.12393383  1
  In  In11  1  0.34304458  0.84257040  0.61836428  1
  In  In12  1  0.65534841  0.17371855  0.12835214  1
  In  In13  1  0.65837936  0.17915851  0.61950177  1
  In  In14  1  0.66405204  0.50080900  0.13124160  1
  In  In15  1  0.66726925  0.50866351  0.62223443  1
  In  In16  1  0.66745059  0.83114882  0.13362583  1
  In  In17  1  0.66654217  0.83099905  0.61297893  1
  In  In18  1  0.14941655  -0.00930079  0.35529726  1
  In  In19  1  0.18317952  -0.01309747  0.89345995  1
  In  In20  1  0.17259239  0.32464217  0.37327355  1
  In  In21  1  0.15964774  0.33665948  0.89133285  1
  In  In22  1  0.18067923  0.68674183  0.35942114  1
  In  In23  1  0.16472052  0.66723959  0.88760875  1
  In  In24  1  0.49582257  0.00170810  0.36929037  1
  In  In25  1  0.48415582  0.00902744  0.89674453  1
  In  In26  1  0.50684767  0.32613983  0.37233384  1
  In  In27  1  0.50264539  0.33504992  0.89111322  1
  In  In28  1  0.50632683  0.66462986  0.36375609  1
  In  In29  1  0.50351160  0.66831641  0.88922912  1
  In  In30  1  0.81891836  -0.01677806  0.36150205  1
  In  In31  1  0.82497358  -0.00632439  0.88059569  1
  In  In32  1  0.82249921  0.35202487  0.37049721  1
  In  In33  1  0.84327810  0.33790139  0.87912677  1
  In  In34  1  0.84119169  0.66338762  0.35865509  1
  In  In35  1  0.82739670  0.67059321  0.88355141  1
  In  In36  1  0.00951964  0.15399809  0.36889094  1
  In  In37  1  -0.00088072  0.17996524  0.88002420  1
  In  In38  1  -0.01379111  0.51036361  0.36651211  1
  In  In39  1  0.00021934  0.49765555  0.88707760  1
  In  In40  1  -0.00189274  0.83095153  0.36774030  1
  In  In41  1  -0.00335567  0.83658091  0.88054546  1
  In  In42  1  0.34434672  0.16653023  0.36871284  1
  In  In43  1  0.34087570  0.15227963  0.88892557  1
  In  In44  1  0.34543308  0.51929474  0.35868172  1
  In  In45  1  0.33517394  0.49778230  0.89137973  1
  In  In46  1  0.33239234  0.83707760  0.37079660  1
  In  In47  1  0.32841207  0.84369989  0.88929265  1
  In  In48  1  0.65038031  0.15155390  0.36077221  1
  In  In49  1  0.66267116  0.16310365  0.88387544  1
  In  In50  1  0.65265547  0.48378968  0.34169068  1
  In  In51  1  0.67131438  0.49480056  0.89777358  1
  In  In52  1  0.66316548  0.83414176  0.37075497  1
  In  In53  1  0.66525037  0.83125555  0.88615163  1
  In  In54  1  0.17906244  -0.00425323  0.12260846  1
  In  In55  1  0.17620317  0.00260739  0.62535829  1
  In  In56  1  0.16100171  0.33058249  0.11747610  1
  In  In57  1  0.16503050  0.32027477  0.63197804  1
  In  In58  1  0.16798738  0.66791172  0.12615961  1
  In  In59  1  0.15712873  0.67343813  0.62034993  1
  In  In60  1  0.49552071  -0.00110717  0.12304159  1
  In  In61  1  0.49219948  -0.00730493  0.61693399  1
  In  In62  1  0.52295958  0.34155935  0.11176738  1
  In  In63  1  0.50588247  0.33556002  0.61387791  1
  In  In64  1  0.49486186  0.66531610  0.14044878  1
  In  In65  1  0.50832002  0.67079682  0.61256202  1
  In  In66  1  0.84643434  -0.01193500  0.13328937  1
  In  In67  1  0.84086205  -0.00978934  0.61973238  1
  In  In68  1  0.80967695  0.34021485  0.12383170  1
  In  In69  1  0.84189705  0.34799784  0.62892510  1
  In  In70  1  0.82652360  0.65999323  0.13503734  1
  In  In71  1  0.82725219  0.66587943  0.62252628  1
  In  In72  1  0.17406113  0.16068590  0.50105953  1
  In  In73  1  0.82555691  0.51118680  0.49625324  1
  In  In74  1  0.00342829  0.00170114  0.75919032  1
  In  In75  1  0.33952360  0.32716808  0.23871015  1
  In  In76  1  0.33353954  0.32949423  0.75605257  1
  In  In77  1  0.66928009  0.66714057  0.74859073  1
  In  In78  1  0.33460964  0.67180720  0.75323617  1
  In  In79  1  0.66930460  0.33323032  0.76526744  1
  In  In80  1  0.82396043  0.15956327  0.49598524  1
  In  In81  1  0.66220621  -0.00559497  0.74683317  1
  In  In82  1  0.17562482  0.50954813  0.49592327  1
  In  In83  1  -0.00873541  0.33271240  0.24865551  1
  In  In84  1  0.83069729  0.16785277  0.00277968  1
  In  In85  1  -0.00272126  0.66553556  0.75258156  1
  Cu  Cu86  1  0.66312436  0.67105821  0.01564224  1
  Cu  Cu87  1  0.33684344  0.66717796  0.01095240  1
  Cu  Cu88  1  -0.00449459  0.66905991  0.00628126  1
  Cu  Cu89  1  0.34623431  0.34480418  0.49262979  1
  Cu  Cu90  1  -0.00808765  0.33625179  0.00701063  1
  Cu  Cu91  1  0.83223183  0.16652934  0.24553238  1
  Cu  Cu92  1  0.16132042  0.50039999  0.24490178  1
  Cu  Cu93  1  0.33371961  0.33018032  0.00859121  1
  Cu  Cu94  1  0.65817194  0.33305913  0.48813224  1
  Cu  Cu95  1  0.49424227  0.84435692  0.75179319  1
  Cu  Cu96  1  0.65930367  -0.00415758  0.48920406  1
  Cu  Cu97  1  0.33195050  -0.00002570  0.49541424  1
  Cu  Cu98  1  0.49600661  0.83793404  0.25030079  1
  Cu  Cu99  1  0.17381451  0.84225828  0.75461426  1
  Cu  Cu100  1  0.83656181  0.17011795  0.75296839  1
  Cu  Cu101  1  0.66738396  0.66328958  0.48879410  1
  Cu  Cu102  1  0.50660562  0.50386849  0.75337723  1
  Cu  Cu103  1  0.00659359  0.67514887  0.48816871  1
  Cu  Cu104  1  0.16490926  0.83295890  0.24198794  1
  Cu  Cu105  1  0.34103788  0.67194428  0.48806439  1
  Cu  Cu106  1  0.16110983  0.49371373  0.76388985  1
  Cu  Cu107  1  -0.00419826  -0.01394680  0.49108402  1
  Cu  Cu108  1  0.16642916  0.16815199  0.75841535  1
  Cu  Cu109  1  0.00481417  -0.00505157  0.00709018  1
  Cu  Cu110  1  0.67130398  -0.00760810  0.01080025  1
  Cu  Cu111  1  0.48653592  0.15782632  0.75357943  1
  Cu  Cu112  1  0.49760354  0.16484551  0.24040887  1
  Cu  Cu113  1  -0.00125227  0.33225803  0.50680710  1
  Cu  Cu114  1  0.83837995  0.83602383  0.24606239  1
  Se  Se115  1  0.08732958  0.08144231  0.05654927  1
  Se  Se116  1  0.07136655  0.07031472  0.55443393  1
  Se  Se117  1  0.08334431  0.42093790  0.05174588  1
  Se  Se118  1  0.08598249  0.41396640  0.55967925  1
  Se  Se119  1  0.08659813  0.74932976  0.05410180  1
  Se  Se120  1  0.08983886  0.75606596  0.54429444  1
  Se  Se121  1  0.42258284  0.07606388  0.04514860  1
  Se  Se122  1  0.41274009  0.08441099  0.55127833  1
  Se  Se123  1  0.41597871  0.41703643  0.05850463  1
  Se  Se124  1  0.42805081  0.42724474  0.54789442  1
  Se  Se125  1  0.41984194  0.74789249  0.06548850  1
  Se  Se126  1  0.41910678  0.75310385  0.55043490  1
  Se  Se127  1  0.75149472  0.07692813  0.06789404  1
  Se  Se128  1  0.73439312  0.07019014  0.56055981  1
  Se  Se129  1  0.73993808  0.42518559  0.05276770  1
  Se  Se130  1  0.74168894  0.40641252  0.55361772  1
  Se  Se131  1  0.75365733  0.75135969  0.06464516  1
  Se  Se132  1  0.75026924  0.74208155  0.54854992  1
  Se  Se133  1  0.24732587  0.24392285  0.05497999  1
  Se  Se134  1  0.26254465  0.26469738  0.55485461  1
  Se  Se135  1  0.24983372  0.58062398  0.05834984  1
  Se  Se136  1  0.26628405  0.59747347  0.56045339  1
  Se  Se137  1  0.25081301  0.91298832  0.04828530  1
  Se  Se138  1  0.24884404  0.91924336  0.55304824  1
  Se  Se139  1  0.58765649  0.24175554  0.04594117  1
  Se  Se140  1  0.57813811  0.24715038  0.54265070  1
  Se  Se141  1  0.57767764  0.58813362  0.06667052  1
  Se  Se142  1  0.58741381  0.58010631  0.54736803  1
  Se  Se143  1  0.58517303  0.91075025  0.06138869  1
  Se  Se144  1  0.57931907  0.91380867  0.54929257  1
  Se  Se145  1  0.91852933  0.25354271  0.06890262  1
  Se  Se146  1  0.91852587  0.24755165  0.56198494  1
  Se  Se147  1  0.90915359  0.58716088  0.05812446  1
  Se  Se148  1  0.93137886  0.59355654  0.55383548  1
  Se  Se149  1  0.91503480  0.91243930  0.05362618  1
  Se  Se150  1  0.91105609  0.90628904  0.54641580  1
  Se  Se151  1  0.07621854  0.25268087  0.44499422  1
  Se  Se152  1  0.07697158  0.24940104  0.95765974  1
  Se  Se153  1  0.08481614  0.59056724  0.42976509  1
  Se  Se154  1  0.08041159  0.58483765  0.95344225  1
  Se  Se155  1  0.08596964  0.91284727  0.43659180  1
  Se  Se156  1  0.08394066  0.90888780  0.95109342  1
  Se  Se157  1  0.41842483  0.24970177  0.44171771  1
  Se  Se158  1  0.41630849  0.24825176  0.95222471  1
  Se  Se159  1  0.42317574  0.58502668  0.43790772  1
  Se  Se160  1  0.41954519  0.58382849  0.95475223  1
  Se  Se161  1  0.41616904  0.91843611  0.44074677  1
  Se  Se162  1  0.42874682  0.90118410  0.95685776  1
  Se  Se163  1  0.74155553  0.25101174  0.43156060  1
  Se  Se164  1  0.74236904  0.26164060  0.94369139  1
  Se  Se165  1  0.73950892  0.58158445  0.42359800  1
  Se  Se166  1  0.74764603  0.59303489  0.95640151  1
  Se  Se167  1  0.74927459  0.91328295  0.44349138  1
  Se  Se168  1  0.75308509  0.91175764  0.95358521  1
  Se  Se169  1  0.25149523  0.07550017  0.43101039  1
  Se  Se170  1  0.24227152  0.09112852  0.95610598  1
  Se  Se171  1  0.26188651  0.41826536  0.43220563  1
  Se  Se172  1  0.24916235  0.41647234  0.95648683  1
  Se  Se173  1  0.25010671  0.75354091  0.44277022  1
  Se  Se174  1  0.25388667  0.74645310  0.95191430  1
  Se  Se175  1  0.57688229  0.08489940  0.44222146  1
  Se  Se176  1  0.59175732  0.07693685  0.95396712  1
  Se  Se177  1  0.58768005  0.42432570  0.43146979  1
  Se  Se178  1  0.56920322  0.42937000  0.95714714  1
  Se  Se179  1  0.58140125  0.74807452  0.43878567  1
  Se  Se180  1  0.58306105  0.75326203  0.95732412  1
  Se  Se181  1  0.91628009  0.07276704  0.43517303  1
  Se  Se182  1  0.92445165  0.07504918  0.94385398  1
  Se  Se183  1  0.92296586  0.41393783  0.44465087  1
  Se  Se184  1  0.90915937  0.42124830  0.95563185  1
  Se  Se185  1  0.91296914  0.74597614  0.43507523  1
  Se  Se186  1  0.91602904  0.75202622  0.94797239  1
  Se  Se187  1  0.24543734  0.23956232  0.30039253  1
  Se  Se188  1  0.24604212  0.24622292  0.82099653  1
  Se  Se189  1  0.24683091  0.58568990  0.29486096  1
  Se  Se190  1  0.24701777  0.57713957  0.81464630  1
  Se  Se191  1  0.24933772  0.91456875  0.29759543  1
  Se  Se192  1  0.25679327  0.92097828  0.81029318  1
  Se  Se193  1  0.58088464  0.24874715  0.29514225  1
  Se  Se194  1  0.56771641  0.23932219  0.81237957  1
  Se  Se195  1  0.60446056  0.60512531  0.29132770  1
  Se  Se196  1  0.58443391  0.57995001  0.81608982  1
  Se  Se197  1  0.58277346  0.92043731  0.30236070  1
  Se  Se198  1  0.57646793  0.91575856  0.81642551  1
  Se  Se199  1  0.90558448  0.24225789  0.31536003  1
  Se  Se200  1  0.91713252  0.25390222  0.80631354  1
  Se  Se201  1  0.91043768  0.57355008  0.28741735  1
  Se  Se202  1  0.91089153  0.57950678  0.81552376  1
  Se  Se203  1  0.92331001  0.92146893  0.29845345  1
  Se  Se204  1  0.90483014  0.90954073  0.80644630  1
  Se  Se205  1  0.08543328  0.09007792  0.28992078  1
  Se  Se206  1  0.09206584  0.08658176  0.82171603  1
  Se  Se207  1  0.08873423  0.42039530  0.31045054  1
  Se  Se208  1  0.07872149  0.41186236  0.81612492  1
  Se  Se209  1  0.07851416  0.74992783  0.29542007  1
  Se  Se210  1  0.09263560  0.75740756  0.80972739  1
  Se  Se211  1  0.41545275  0.08249923  0.29554952  1
  Se  Se212  1  0.41261697  0.07334473  0.81114176  1
  Se  Se213  1  0.42522065  0.41669023  0.30177964  1
  Se  Se214  1  0.42378104  0.42471722  0.81253196  1
  Se  Se215  1  0.41461362  0.75119810  0.30353922  1
  Se  Se216  1  0.42477412  0.75731704  0.81489863  1
  Se  Se217  1  0.74775521  0.08050698  0.29779831  1
  Se  Se218  1  0.75345759  0.09013920  0.80839704  1
  Se  Se219  1  0.75991435  0.41733378  0.28588898  1
  Se  Se220  1  0.75673695  0.43232582  0.81512250  1
  Se  Se221  1  0.75442988  0.75781258  0.30263361  1
  Se  Se222  1  0.75377834  0.76059820  0.80851500  1
  Se  Se223  1  0.25811408  0.07813763  0.19454031  1
  Se  Se224  1  0.24573487  0.08681918  0.70028479  1
  Se  Se225  1  0.24284561  0.42133983  0.18638014  1
  Se  Se226  1  0.24346173  0.42437531  0.69602064  1
  Se  Se227  1  0.25350940  0.74947994  0.19419464  1
  Se  Se228  1  0.24406551  0.75836290  0.69009563  1
  Se  Se229  1  0.58384158  0.07716671  0.19335759  1
  Se  Se230  1  0.57483808  0.09224544  0.68960721  1
  Se  Se231  1  0.58719521  0.40744251  0.19695956  1
  Se  Se232  1  0.58250609  0.41883487  0.69341835  1
  Se  Se233  1  0.58207873  0.75267297  0.20355955  1
  Se  Se234  1  0.57440285  0.76084529  0.69250933  1
  Se  Se235  1  0.91989869  0.08143442  0.20079407  1
  Se  Se236  1  0.91186519  0.08772477  0.69209467  1
  Se  Se237  1  0.91209646  0.42136662  0.18281494  1
  Se  Se238  1  0.92292824  0.41311463  0.70497972  1
  Se  Se239  1  0.91804084  0.74929860  0.19355611  1
  Se  Se240  1  0.91063429  0.75679545  0.69012785  1
  Se  Se241  1  0.09102525  0.24690045  0.19589513  1
  Se  Se242  1  0.08171895  0.25249720  0.70780603  1
  Se  Se243  1  0.08003261  0.58806118  0.19566692  1
  Se  Se244  1  0.09276305  0.57426816  0.69402276  1
  Se  Se245  1  0.08370226  0.91814669  0.18862604  1
  Se  Se246  1  0.08612179  0.91145075  0.69145966  1
  Se  Se247  1  0.42585185  0.24263685  0.17387949  1
  Se  Se248  1  0.42213701  0.24690806  0.68811419  1
  Se  Se249  1  0.41360767  0.57981363  0.20888456  1
  Se  Se250  1  0.42686259  0.58183914  0.69129644  1
  Se  Se251  1  0.41309041  0.92011601  0.19600763  1
  Se  Se252  1  0.41160483  0.92484041  0.69569991  1
  Se  Se253  1  0.74628483  0.24933165  0.19667278  1
  Se  Se254  1  0.75297883  0.24775344  0.69297491  1
  Se  Se255  1  0.72551446  0.59917312  0.20321728  1
  Se  Se256  1  0.76385195  0.56932386  0.69555941  1
  Se  Se257  1  0.74863539  0.92105729  0.19966750  1
  Se  Se258  1  0.75516831  0.90557035  0.68896766  1
