# generated using pymatgen
data_In86Cu29Se144
_symmetry_space_group_name_H-M   'P 1'
_cell_length_a   17.61009938
_cell_length_b   17.59303342
_cell_length_c   23.47023499
_cell_angle_alpha   89.98924244
_cell_angle_beta   90.00484387
_cell_angle_gamma   89.97981178
_symmetry_Int_Tables_number   1
_chemical_formula_structural   In86Cu29Se144
_chemical_formula_sum   'In86 Cu29 Se144'
_cell_volume   7271.43181899
_cell_formula_units_Z   1
loop_
 _symmetry_equiv_pos_site_id
 _symmetry_equiv_pos_as_xyz
  1  'x, y, z'
loop_
 _atom_site_type_symbol
 _atom_site_label
 _atom_site_symmetry_multiplicity
 _atom_site_fract_x
 _atom_site_fract_y
 _atom_site_fract_z
 _atom_site_occupancy
  In  In0  1  0.00875762  0.15156051  0.12361009  1
  In  In1  1  0.00953708  0.16590592  0.62776216  1
  In  In2  1  -0.00214692  0.52488921  0.12799901  1
  In  In3  1  -0.00681992  0.50608390  0.63218607  1
  In  In4  1  -0.00010444  0.83121866  0.12575785  1
  In  In5  1  -0.00713746  0.82140766  0.61526352  1
  In  In6  1  0.31849491  0.15623655  0.10786316  1
  In  In7  1  0.33751842  0.16215320  0.63785411  1
  In  In8  1  0.33203218  0.49980649  0.12152537  1
  In  In9  1  0.32806861  0.50318310  0.63904020  1
  In  In10  1  0.33787043  0.83728664  0.11210288  1
  In  In11  1  0.33364921  0.83611722  0.62861573  1
  In  In12  1  0.67112509  0.15945940  0.12867015  1
  In  In13  1  0.66523185  0.16761473  0.63030878  1
  In  In14  1  0.67528793  0.49153206  0.12594674  1
  In  In15  1  0.66470032  0.51034496  0.63097149  1
  In  In16  1  0.67383310  0.83315733  0.13187440  1
  In  In17  1  0.66536207  0.83605040  0.62579209  1
  In  In18  1  0.12750600  -0.04486526  0.33096437  1
  In  In19  1  0.18506043  -0.01869020  0.89551365  1
  In  In20  1  0.16615451  0.31735931  0.37839854  1
  In  In21  1  0.16040847  0.32799559  0.87257275  1
  In  In22  1  0.16902759  0.68675611  0.37133796  1
  In  In23  1  0.18017051  0.68907951  0.87492073  1
  In  In24  1  0.48472315  -0.00472082  0.36657817  1
  In  In25  1  0.48897334  -0.01611819  0.87090187  1
  In  In26  1  0.49754452  0.32250371  0.37677704  1
  In  In27  1  0.50259419  0.33513388  0.86680258  1
  In  In28  1  0.52010677  0.67602099  0.37097227  1
  In  In29  1  0.50132626  0.67761096  0.87382744  1
  In  In30  1  0.80169225  -0.04196090  0.33941927  1
  In  In31  1  0.82092992  -0.00872582  0.86941313  1
  In  In32  1  0.82889527  0.34629876  0.37692186  1
  In  In33  1  0.84365632  0.34071611  0.87026566  1
  In  In34  1  0.83619383  0.67879012  0.36449377  1
  In  In35  1  0.82769143  0.66866308  0.87578820  1
  In  In36  1  0.00998915  0.15293584  0.38018331  1
  In  In37  1  0.00489147  0.17474955  0.87472374  1
  In  In38  1  -0.01552680  0.50640078  0.37777881  1
  In  In39  1  -0.00424156  0.49876090  0.87480035  1
  In  In40  1  -0.00678856  0.82736325  0.37012685  1
  In  In41  1  -0.00490719  0.82709617  0.87323820  1
  In  In42  1  0.34054000  0.15311421  0.37766749  1
  In  In43  1  0.31969683  0.15222966  0.87166363  1
  In  In44  1  0.33234005  0.49711543  0.38134871  1
  In  In45  1  0.33830477  0.50826268  0.86590772  1
  In  In46  1  0.32497831  0.84641927  0.38115857  1
  In  In47  1  0.33542387  0.83392218  0.87936570  1
  In  In48  1  0.66649558  0.16742554  0.36936089  1
  In  In49  1  0.66076504  0.15932161  0.86773577  1
  In  In50  1  0.67821225  0.50651481  0.36513170  1
  In  In51  1  0.68104798  0.51639679  0.86760274  1
  In  In52  1  0.65767614  0.82667327  0.37615484  1
  In  In53  1  0.66678019  0.82753805  0.87490085  1
  In  In54  1  0.16760003  -0.01217436  0.11515395  1
  In  In55  1  0.17401232  0.00113892  0.62593830  1
  In  In56  1  0.17854404  0.33473189  0.11875277  1
  In  In57  1  0.15999918  0.33948312  0.64121367  1
  In  In58  1  0.15674844  0.67631132  0.12720510  1
  In  In59  1  0.15939336  0.68004663  0.63287599  1
  In  In60  1  0.50716721  -0.00836692  0.12912529  1
  In  In61  1  0.51030869  -0.01328941  0.63149415  1
  In  In62  1  0.50770666  0.33995820  0.12002211  1
  In  In63  1  0.49932044  0.33582999  0.63530034  1
  In  In64  1  0.50567192  0.69303285  0.11829039  1
  In  In65  1  0.49880565  0.67267343  0.62917273  1
  In  In66  1  0.85597105  -0.02469844  0.14805532  1
  In  In67  1  0.83596262  -0.02209281  0.62611145  1
  In  In68  1  0.82298928  0.33223158  0.12264396  1
  In  In69  1  0.83316344  0.33525904  0.63289515  1
  In  In70  1  0.83560416  0.66845719  0.12370916  1
  In  In71  1  0.81181617  0.70822033  0.65750035  1
  In  In72  1  0.50367671  0.50852055  0.50823648  1
  In  In73  1  -0.00080509  0.33032101  0.25652892  1
  In  In74  1  0.16061413  0.50784368  0.51875515  1
  In  In75  1  0.16807351  0.15681761  0.49840001  1
  In  In76  1  0.83715720  0.51348036  0.49956401  1
  In  In77  1  0.00031422  0.00034613  0.75775471  1
  In  In78  1  0.83757878  0.15568910  0.50274898  1
  In  In79  1  0.83409375  0.15727633  0.00120933  1
  In  In80  1  0.50082620  0.15978210  -0.00068800  1
  In  In81  1  0.50407191  0.50886949  -0.01358032  1
  In  In82  1  0.50005042  0.15832556  0.50435933  1
  In  In83  1  0.34618162  0.32750188  0.24017999  1
  In  In84  1  0.33906002  0.67161629  0.23626159  1
  In  In85  1  0.16084333  0.50755311  0.00350210  1
  Cu  Cu86  1  0.83677747  0.50056110  0.75280215  1
  Cu  Cu87  1  0.32953811  -0.00984576  0.50053225  1
  Cu  Cu88  1  0.49981402  0.83264183  0.24754966  1
  Cu  Cu89  1  0.50118697  0.50004391  0.74974750  1
  Cu  Cu90  1  0.33087664  0.33317499  -0.01008487  1
  Cu  Cu91  1  0.16732620  0.16567231  0.75382437  1
  Cu  Cu92  1  0.66928768  0.66821093  -0.00010883  1
  Cu  Cu93  1  0.16443960  0.50623278  0.25675354  1
  Cu  Cu94  1  -0.00807083  0.67171560  -0.00211162  1
  Cu  Cu95  1  0.82935992  0.17145690  0.24905783  1
  Cu  Cu96  1  0.34124560  0.67962505  0.50112384  1
  Cu  Cu97  1  0.49844079  0.17156293  0.75338672  1
  Cu  Cu98  1  0.67078410  -0.01306506  0.00325998  1
  Cu  Cu99  1  -0.00412189  -0.01445281  0.48805473  1
  Cu  Cu100  1  0.16937208  0.84205152  0.75346733  1
  Cu  Cu101  1  0.49880523  0.83488913  0.75240475  1
  Cu  Cu102  1  0.67892351  0.33572690  -0.00524398  1
  Cu  Cu103  1  0.32101025  0.33307309  0.51133184  1
  Cu  Cu104  1  0.17635016  0.16069444  0.24080795  1
  Cu  Cu105  1  0.51044085  0.49890111  0.24727474  1
  Cu  Cu106  1  0.83122181  0.16878790  0.75132042  1
  Cu  Cu107  1  0.66519679  0.34328885  0.49843016  1
  Cu  Cu108  1  -0.00444158  -0.00367061  0.00490503  1
  Cu  Cu109  1  0.83217082  0.49988954  0.24774038  1
  Cu  Cu110  1  -0.00228193  0.33560930  -0.00338216  1
  Cu  Cu111  1  0.50364516  0.16823020  0.24799459  1
  Cu  Cu112  1  0.16589806  0.50047780  0.75852403  1
  Cu  Cu113  1  0.00447704  0.67150697  0.49865963  1
  Cu  Cu114  1  0.66863859  -0.01016550  0.49513624  1
  Se  Se115  1  0.08637282  0.07996713  0.04828369  1
  Se  Se116  1  0.06981280  0.06620574  0.55374428  1
  Se  Se117  1  0.07096061  0.41500804  0.06471098  1
  Se  Se118  1  0.07128855  0.40609669  0.56475635  1
  Se  Se119  1  0.07886318  0.75039714  0.05153878  1
  Se  Se120  1  0.09213809  0.75246442  0.55012269  1
  Se  Se121  1  0.41344798  0.06483023  0.05370237  1
  Se  Se122  1  0.40697502  0.07132062  0.56194721  1
  Se  Se123  1  0.41212115  0.41189494  0.04916821  1
  Se  Se124  1  0.40757455  0.41418590  0.56302115  1
  Se  Se125  1  0.41339491  0.74576168  0.04568561  1
  Se  Se126  1  0.42188021  0.75798636  0.55895630  1
  Se  Se127  1  0.75134020  0.06634216  0.06375798  1
  Se  Se128  1  0.73935460  0.07316485  0.56000151  1
  Se  Se129  1  0.75730641  0.42039861  0.04916767  1
  Se  Se130  1  0.74662678  0.41856280  0.55905691  1
  Se  Se131  1  0.74916408  0.75082100  0.05709836  1
  Se  Se132  1  0.76008032  0.75733515  0.56320382  1
  Se  Se133  1  0.24660369  0.25252823  0.04345736  1
  Se  Se134  1  0.24700885  0.24738799  0.56858612  1
  Se  Se135  1  0.25557346  0.59671812  0.05955781  1
  Se  Se136  1  0.26376912  0.59772911  0.56328259  1
  Se  Se137  1  0.23442741  0.89479436  0.04351630  1
  Se  Se138  1  0.24547974  0.91188356  0.55657203  1
  Se  Se139  1  0.59731546  0.25509169  0.05233202  1
  Se  Se140  1  0.58662368  0.26147126  0.55732609  1
  Se  Se141  1  0.58765023  0.58595849  0.05975288  1
  Se  Se142  1  0.59862431  0.60144432  0.55679730  1
  Se  Se143  1  0.58657759  0.90872168  0.05945742  1
  Se  Se144  1  0.58229536  0.91481076  0.55219329  1
  Se  Se145  1  0.92434049  0.25158677  0.06039436  1
  Se  Se146  1  0.92017535  0.25191532  0.56195287  1
  Se  Se147  1  0.91348046  0.58308728  0.05006148  1
  Se  Se148  1  0.92299270  0.59979315  0.56258296  1
  Se  Se149  1  0.91150827  0.91439682  0.05736800  1
  Se  Se150  1  0.91356020  0.90903232  0.54800486  1
  Se  Se151  1  0.07130447  0.25591772  0.45131113  1
  Se  Se152  1  0.08361485  0.25136463  0.94900184  1
  Se  Se153  1  0.08256439  0.58662326  0.44062995  1
  Se  Se154  1  0.07963134  0.59734285  0.93793154  1
  Se  Se155  1  0.08676940  0.91238940  0.43312000  1
  Se  Se156  1  0.07115042  0.91452589  0.94376338  1
  Se  Se157  1  0.40272226  0.25528527  0.45059148  1
  Se  Se158  1  0.41546247  0.25196441  0.93647446  1
  Se  Se159  1  0.41385842  0.59236002  0.44157376  1
  Se  Se160  1  0.40219029  0.59840749  0.94230706  1
  Se  Se161  1  0.42214067  0.91669220  0.44780333  1
  Se  Se162  1  0.42262912  0.91029800  0.94961820  1
  Se  Se163  1  0.74468116  0.25489135  0.44494943  1
  Se  Se164  1  0.75020884  0.24684507  0.93631619  1
  Se  Se165  1  0.74469112  0.59640159  0.43865816  1
  Se  Se166  1  0.75248163  0.58221520  0.94970117  1
  Se  Se167  1  0.75141457  0.91280143  0.43757473  1
  Se  Se168  1  0.75325579  0.90930865  0.94521436  1
  Se  Se169  1  0.25075718  0.06597594  0.43711909  1
  Se  Se170  1  0.25034501  0.08708914  0.95424081  1
  Se  Se171  1  0.24482772  0.41140429  0.44935171  1
  Se  Se172  1  0.25144038  0.42199982  0.93775888  1
  Se  Se173  1  0.25001318  0.75394506  0.44796107  1
  Se  Se174  1  0.23605082  0.77626298  0.95318706  1
  Se  Se175  1  0.58848471  0.07532121  0.43912682  1
  Se  Se176  1  0.59330161  0.06935649  0.94273532  1
  Se  Se177  1  0.58465946  0.41862550  0.43714829  1
  Se  Se178  1  0.59613134  0.41265214  0.93585868  1
  Se  Se179  1  0.57708957  0.75369865  0.45183940  1
  Se  Se180  1  0.58311964  0.75021910  0.94838442  1
  Se  Se181  1  0.91185102  0.06699548  0.43358990  1
  Se  Se182  1  0.92195054  0.07256724  0.93568761  1
  Se  Se183  1  0.92487155  0.40763667  0.45010984  1
  Se  Se184  1  0.91417811  0.42009627  0.94762015  1
  Se  Se185  1  0.91604937  0.74637881  0.44308920  1
  Se  Se186  1  0.90808098  0.75447479  0.94489263  1
  Se  Se187  1  0.25286908  0.24317124  0.30380859  1
  Se  Se188  1  0.25130685  0.25097235  0.80611079  1
  Se  Se189  1  0.25563855  0.58240685  0.30918139  1
  Se  Se190  1  0.24672111  0.59132983  0.80640822  1
  Se  Se191  1  0.26599159  0.92911897  0.30276741  1
  Se  Se192  1  0.25436231  0.92096562  0.80933235  1
  Se  Se193  1  0.58138792  0.25322633  0.30382459  1
  Se  Se194  1  0.58834801  0.25297696  0.80125545  1
  Se  Se195  1  0.58880463  0.58626798  0.29999937  1
  Se  Se196  1  0.57770618  0.58435239  0.80757704  1
  Se  Se197  1  0.57776971  0.91569940  0.30578863  1
  Se  Se198  1  0.58627906  0.91567395  0.80563659  1
  Se  Se199  1  0.90875723  0.24151033  0.31679698  1
  Se  Se200  1  0.91887914  0.24792771  0.80374863  1
  Se  Se201  1  0.91568744  0.58328780  0.30074458  1
  Se  Se202  1  0.91573985  0.58578915  0.80835704  1
  Se  Se203  1  0.93715342  0.93490626  0.30386668  1
  Se  Se204  1  0.90297410  0.90312707  0.80036805  1
  Se  Se205  1  0.08700681  0.09212530  0.29971579  1
  Se  Se206  1  0.09673584  0.08141479  0.81777256  1
  Se  Se207  1  0.09139772  0.42153479  0.31684835  1
  Se  Se208  1  0.07945467  0.41556762  0.80693979  1
  Se  Se209  1  0.08234218  0.75083950  0.30018978  1
  Se  Se210  1  0.08686234  0.75553559  0.80433707  1
  Se  Se211  1  0.41398086  0.08750167  0.29708383  1
  Se  Se212  1  0.41988288  0.08509122  0.80796780  1
  Se  Se213  1  0.42415960  0.42428607  0.30731155  1
  Se  Se214  1  0.41594553  0.41707189  0.80175729  1
  Se  Se215  1  0.41785937  0.75346467  0.30961408  1
  Se  Se216  1  0.41250679  0.75255015  0.80479450  1
  Se  Se217  1  0.74583256  0.08589654  0.29991324  1
  Se  Se218  1  0.74882898  0.08135800  0.80041771  1
  Se  Se219  1  0.74970751  0.41145609  0.29856829  1
  Se  Se220  1  0.75125396  0.41648478  0.80411267  1
  Se  Se221  1  0.74597620  0.75799414  0.30295137  1
  Se  Se222  1  0.73700922  0.73667804  0.80445811  1
  Se  Se223  1  0.25084274  0.07610520  0.18419815  1
  Se  Se224  1  0.24867974  0.07934816  0.70107049  1
  Se  Se225  1  0.24373027  0.42581458  0.19723528  1
  Se  Se226  1  0.25103170  0.41505543  0.70622891  1
  Se  Se227  1  0.24434478  0.76719018  0.18982654  1
  Se  Se228  1  0.25062002  0.75480014  0.69965161  1
  Se  Se229  1  0.58445220  0.08143174  0.19612820  1
  Se  Se230  1  0.57627318  0.08894203  0.69505482  1
  Se  Se231  1  0.58842048  0.40991594  0.19473523  1
  Se  Se232  1  0.58767026  0.42004762  0.69690098  1
  Se  Se233  1  0.58695809  0.74777152  0.19931654  1
  Se  Se234  1  0.58307196  0.75313299  0.69752213  1
  Se  Se235  1  0.91756708  0.09298790  0.19717218  1
  Se  Se236  1  0.91052138  0.08635655  0.69000488  1
  Se  Se237  1  0.91612019  0.41842131  0.18975255  1
  Se  Se238  1  0.91940367  0.41484215  0.70011466  1
  Se  Se239  1  0.92247495  0.74300685  0.19317122  1
  Se  Se240  1  0.94169233  0.74247268  0.69943647  1
  Se  Se241  1  0.09465652  0.25032012  0.18987821  1
  Se  Se242  1  0.07927265  0.24664050  0.70333225  1
  Se  Se243  1  0.08635652  0.58979645  0.20115624  1
  Se  Se244  1  0.09043455  0.57925288  0.69559882  1
  Se  Se245  1  0.07455895  0.92931152  0.18913684  1
  Se  Se246  1  0.08461714  0.91426119  0.69056857  1
  Se  Se247  1  0.42608733  0.23435535  0.17587554  1
  Se  Se248  1  0.41372703  0.25511577  0.70183514  1
  Se  Se249  1  0.43237359  0.57454337  0.18367205  1
  Se  Se250  1  0.41931611  0.58646199  0.69842510  1
  Se  Se251  1  0.41425678  0.91007017  0.19104431  1
  Se  Se252  1  0.41459866  0.91986580  0.69952408  1
  Se  Se253  1  0.74656095  0.25242771  0.19492477  1
  Se  Se254  1  0.74752069  0.25191485  0.69726118  1
  Se  Se255  1  0.75085748  0.58218516  0.19202681  1
  Se  Se256  1  0.75316364  0.58425235  0.70009404  1
  Se  Se257  1  0.74345909  0.92180325  0.20495223  1
  Se  Se258  1  0.73808114  0.92717294  0.69577267  1
