# generated using pymatgen
data_In86Cu29Se144
_symmetry_space_group_name_H-M   'P 1'
_cell_length_a   17.58961746
_cell_length_b   17.58327914
_cell_length_c   23.45016174
_cell_angle_alpha   90.01228711
_cell_angle_beta   89.97631121
_cell_angle_gamma   89.99326931
_symmetry_Int_Tables_number   1
_chemical_formula_structural   In86Cu29Se144
_chemical_formula_sum   'In86 Cu29 Se144'
_cell_volume   7252.73913925
_cell_formula_units_Z   1
loop_
 _symmetry_equiv_pos_site_id
 _symmetry_equiv_pos_as_xyz
  1  'x, y, z'
loop_
 _atom_site_type_symbol
 _atom_site_label
 _atom_site_symmetry_multiplicity
 _atom_site_fract_x
 _atom_site_fract_y
 _atom_site_fract_z
 _atom_site_occupancy
  In  In0  1  -0.00442508  0.16847000  0.12320266  1
  In  In1  1  -0.01768624  0.17036638  0.62775520  1
  In  In2  1  -0.00655536  0.49760943  0.12101404  1
  In  In3  1  0.00294045  0.50775095  0.62860652  1
  In  In4  1  -0.00961632  0.84075199  0.12994194  1
  In  In5  1  0.00455045  0.82516693  0.62808179  1
  In  In6  1  0.33228032  0.18233352  0.12154116  1
  In  In7  1  0.34915798  0.18067028  0.62343440  1
  In  In8  1  0.33475749  0.50130541  0.11640166  1
  In  In9  1  0.34660256  0.47482997  0.63575892  1
  In  In10  1  0.33479711  0.81879730  0.12212978  1
  In  In11  1  0.32864620  0.84774582  0.62219310  1
  In  In12  1  0.67764183  0.16310504  0.12980745  1
  In  In13  1  0.67171503  0.17905796  0.62254881  1
  In  In14  1  0.67347731  0.49861868  0.12398190  1
  In  In15  1  0.64945409  0.48368691  0.60573339  1
  In  In16  1  0.67169344  0.83353247  0.12447195  1
  In  In17  1  0.66944379  0.82544694  0.62418219  1
  In  In18  1  0.14567141  -0.00063061  0.37552638  1
  In  In19  1  0.15926552  0.02544929  0.87731334  1
  In  In20  1  0.16403079  0.34243972  0.37383676  1
  In  In21  1  0.17423394  0.32494932  0.88066905  1
  In  In22  1  0.16835138  0.67198496  0.37667383  1
  In  In23  1  0.14547343  0.66486898  0.87856767  1
  In  In24  1  0.51695186  0.00248036  0.37370403  1
  In  In25  1  0.49430892  0.00002864  0.87785768  1
  In  In26  1  0.51003203  0.32507698  0.38568813  1
  In  In27  1  0.51996204  0.34651634  0.84513639  1
  In  In28  1  0.50819688  0.65682724  0.37908616  1
  In  In29  1  0.51218152  0.65573816  0.88420413  1
  In  In30  1  0.83665431  0.00476756  0.36751641  1
  In  In31  1  0.84061521  -0.00762042  0.88195108  1
  In  In32  1  0.83063339  0.33571693  0.37209744  1
  In  In33  1  0.82082935  0.33966085  0.88962644  1
  In  In34  1  0.81952700  0.64845339  0.35851015  1
  In  In35  1  0.84461598  0.66011100  0.88872129  1
  In  In36  1  -0.01349804  0.16037932  0.36859120  1
  In  In37  1  0.00724312  0.15900767  0.87846106  1
  In  In38  1  -0.01114637  0.48892428  0.36176238  1
  In  In39  1  -0.00616526  0.51390184  0.88709311  1
  In  In40  1  -0.00115532  0.83204374  0.36955326  1
  In  In41  1  -0.01231301  0.82472631  0.87195127  1
  In  In42  1  0.34462072  0.18127356  0.37971107  1
  In  In43  1  0.32797437  0.17554833  0.86854462  1
  In  In44  1  0.33668709  0.50867301  0.38071803  1
  In  In45  1  0.34693106  0.48066316  0.87812702  1
  In  In46  1  0.32818444  0.81784956  0.38191194  1
  In  In47  1  0.33910097  0.84526063  0.87781687  1
  In  In48  1  0.67035341  0.17128235  0.37454713  1
  In  In49  1  0.66526509  0.19974216  0.87918399  1
  In  In50  1  0.67486646  0.50316437  0.37303591  1
  In  In51  1  0.66837041  0.48884446  0.87998416  1
  In  In52  1  0.67226316  0.83676505  0.36419931  1
  In  In53  1  0.67453893  0.82394888  0.88811447  1
  In  In54  1  0.14711510  -0.00175403  0.12410943  1
  In  In55  1  0.16725619  -0.01042095  0.62292214  1
  In  In56  1  0.15739960  0.32107950  0.11351974  1
  In  In57  1  0.16586675  0.33575754  0.63141657  1
  In  In58  1  0.15966247  0.65238224  0.11791644  1
  In  In59  1  0.14968868  0.66261741  0.62785191  1
  In  In60  1  0.52197118  0.00506149  0.12574985  1
  In  In61  1  0.48583942  0.00608305  0.62462997  1
  In  In62  1  0.50845605  0.34733119  0.12201397  1
  In  In63  1  0.50776683  0.34315174  0.62593142  1
  In  In64  1  0.51098344  0.67193583  0.11752981  1
  In  In65  1  0.50707173  0.63951855  0.62759082  1
  In  In66  1  0.83450191  0.00272866  0.12495733  1
  In  In67  1  0.82850588  0.01404700  0.62596328  1
  In  In68  1  0.83048785  0.33789448  0.12225141  1
  In  In69  1  0.82533176  0.32681209  0.61922447  1
  In  In70  1  0.83569818  0.66179718  0.12311761  1
  In  In71  1  0.83954723  0.66276711  0.62486807  1
  In  In72  1  0.32627196  0.66467661  0.74942445  1
  In  In73  1  0.83214959  0.82841879  0.49211895  1
  In  In74  1  0.33519763  0.66445779  0.25422498  1
  In  In75  1  0.50098258  0.17020323  -0.00301756  1
  In  In76  1  0.67701435  0.65483607  0.75491821  1
  In  In77  1  0.16739057  0.83456666  -0.00044693  1
  In  In78  1  0.32980335  -0.00260368  0.24985762  1
  In  In79  1  0.33406552  0.33810518  0.25571229  1
  In  In80  1  0.00311156  0.32944049  0.75687425  1
  In  In81  1  0.16493543  0.16586005  0.50756911  1
  In  In82  1  0.49588365  0.83734405  0.49945996  1
  In  In83  1  0.17015310  0.50319136  0.50549089  1
  In  In84  1  0.66770797  0.00599549  0.75118954  1
  In  In85  1  0.32576500  0.00923020  0.75336925  1
  Cu  Cu86  1  -0.00864209  0.32980309  0.49545422  1
  Cu  Cu87  1  -0.00053507  0.00517557  0.00177237  1
  Cu  Cu88  1  0.15416351  0.83915957  0.75089084  1
  Cu  Cu89  1  0.83349103  0.83205830  0.24396137  1
  Cu  Cu90  1  0.33782042  0.66135167  -0.00305504  1
  Cu  Cu91  1  0.15657933  0.49237725  0.24140180  1
  Cu  Cu92  1  0.51206656  0.50275833  0.24997119  1
  Cu  Cu93  1  0.67022994  -0.00216587  0.00233597  1
  Cu  Cu94  1  0.51129905  0.17157790  0.25318252  1
  Cu  Cu95  1  0.83380993  0.17248532  0.24780374  1
  Cu  Cu96  1  0.33261839  0.33519683  -0.00376250  1
  Cu  Cu97  1  -0.00042511  0.66364021  0.50072394  1
  Cu  Cu98  1  -0.00294005  0.33566821  0.00032642  1
  Cu  Cu99  1  0.83346636  0.49861732  0.24244881  1
  Cu  Cu100  1  0.66220078  0.01336300  0.50081465  1
  Cu  Cu101  1  0.16090507  0.50573001  0.75569219  1
  Cu  Cu102  1  0.50843503  0.83585174  0.24552736  1
  Cu  Cu103  1  0.66386521  0.66393214  0.00679682  1
  Cu  Cu104  1  0.50502211  0.82593758  0.75621472  1
  Cu  Cu105  1  0.33384595  0.66504915  0.50833222  1
  Cu  Cu106  1  0.32832523  0.00753474  0.50107589  1
  Cu  Cu107  1  0.84498023  0.83391023  0.75254081  1
  Cu  Cu108  1  0.67138381  0.33653920  0.49643363  1
  Cu  Cu109  1  0.15574680  0.16325473  0.24656489  1
  Cu  Cu110  1  0.83473496  0.49432285  0.75738648  1
  Cu  Cu111  1  0.15656474  0.82994556  0.25147597  1
  Cu  Cu112  1  0.33741583  0.00048281  -0.00286929  1
  Cu  Cu113  1  -0.00743063  -0.00784324  0.49453272  1
  Cu  Cu114  1  0.83267142  0.16713340  0.75381310  1
  Se  Se115  1  0.08474364  0.08948546  0.05232787  1
  Se  Se116  1  0.06827254  0.07359552  0.55924124  1
  Se  Se117  1  0.08371994  0.41869049  0.05220682  1
  Se  Se118  1  0.07273789  0.40700709  0.55749320  1
  Se  Se119  1  0.07582557  0.75078699  0.06028774  1
  Se  Se120  1  0.08281734  0.74787919  0.55253145  1
  Se  Se121  1  0.41430203  0.07860892  0.06294811  1
  Se  Se122  1  0.41560351  0.08865323  0.55037054  1
  Se  Se123  1  0.41739252  0.41454435  0.05164295  1
  Se  Se124  1  0.43138503  0.43073933  0.55465304  1
  Se  Se125  1  0.41835558  0.74746468  0.04995694  1
  Se  Se126  1  0.41574601  0.74541723  0.56812709  1
  Se  Se127  1  0.75133022  0.08386686  0.05432345  1
  Se  Se128  1  0.75088586  0.09112540  0.55323434  1
  Se  Se129  1  0.76393774  0.43160730  0.05195279  1
  Se  Se130  1  0.75852941  0.41894397  0.54853746  1
  Se  Se131  1  0.75094126  0.74786825  0.05564177  1
  Se  Se132  1  0.74393078  0.73806560  0.55407390  1
  Se  Se133  1  0.24968128  0.24691986  0.04524431  1
  Se  Se134  1  0.25477526  0.26453957  0.55706327  1
  Se  Se135  1  0.25006461  0.58214235  0.04878269  1
  Se  Se136  1  0.25890695  0.58541962  0.57309238  1
  Se  Se137  1  0.25738180  0.92520013  0.06236212  1
  Se  Se138  1  0.24656980  0.91663199  0.54647418  1
  Se  Se139  1  0.59175659  0.25246855  0.06053891  1
  Se  Se140  1  0.58665615  0.25712014  0.55371032  1
  Se  Se141  1  0.58076344  0.57379331  0.05410872  1
  Se  Se142  1  0.59163264  0.59429399  0.54697546  1
  Se  Se143  1  0.58499463  0.91447403  0.05366323  1
  Se  Se144  1  0.58958375  0.92673964  0.56191704  1
  Se  Se145  1  0.91433206  0.25159440  0.05435560  1
  Se  Se146  1  0.91111178  0.24536788  0.55017984  1
  Se  Se147  1  0.90279108  0.56993803  0.05207990  1
  Se  Se148  1  0.91937119  0.57917389  0.55459356  1
  Se  Se149  1  0.91774962  0.92028358  0.05457623  1
  Se  Se150  1  0.91370506  0.91707354  0.56045960  1
  Se  Se151  1  0.07830712  0.25133930  0.43932256  1
  Se  Se152  1  0.08036763  0.25099216  0.94677737  1
  Se  Se153  1  0.07766166  0.58033695  0.43844200  1
  Se  Se154  1  0.07998505  0.58974705  0.95724892  1
  Se  Se155  1  0.07871616  0.90803160  0.44615454  1
  Se  Se156  1  0.07905507  0.92472213  0.93874353  1
  Se  Se157  1  0.41385802  0.25999801  0.45364807  1
  Se  Se158  1  0.41613996  0.25959493  0.93473860  1
  Se  Se159  1  0.41758760  0.58868534  0.45069497  1
  Se  Se160  1  0.41994716  0.57476372  0.94529657  1
  Se  Se161  1  0.40723921  0.92817504  0.43617333  1
  Se  Se162  1  0.42417561  0.91461459  0.95181967  1
  Se  Se163  1  0.75439055  0.25082791  0.44446085  1
  Se  Se164  1  0.75929652  0.23828231  0.95589128  1
  Se  Se165  1  0.75862420  0.58247921  0.44346469  1
  Se  Se166  1  0.74114764  0.58520027  0.94425417  1
  Se  Se167  1  0.73967703  0.92786061  0.44188270  1
  Se  Se168  1  0.75532061  0.91342999  0.95130786  1
  Se  Se169  1  0.24953020  0.08183469  0.43519701  1
  Se  Se170  1  0.25986438  0.08701622  0.94376789  1
  Se  Se171  1  0.25854761  0.41043257  0.44500127  1
  Se  Se172  1  0.24653497  0.42012835  0.94652312  1
  Se  Se173  1  0.24678203  0.74340423  0.45482268  1
  Se  Se174  1  0.25788131  0.74436471  0.93744165  1
  Se  Se175  1  0.57973617  0.09393955  0.44528707  1
  Se  Se176  1  0.59478112  0.07902769  0.93804062  1
  Se  Se177  1  0.58926749  0.42245221  0.44367694  1
  Se  Se178  1  0.57779963  0.39972106  0.93679889  1
  Se  Se179  1  0.59154072  0.75483277  0.44042172  1
  Se  Se180  1  0.58067926  0.74933190  0.95238281  1
  Se  Se181  1  0.91284332  0.08079454  0.44448410  1
  Se  Se182  1  0.91586131  0.08654953  0.94728780  1
  Se  Se183  1  0.91589436  0.41882184  0.44194220  1
  Se  Se184  1  0.91367961  0.42144873  0.95009073  1
  Se  Se185  1  0.91913715  0.73508477  0.43478772  1
  Se  Se186  1  0.91260862  0.76023754  0.95145805  1
  Se  Se187  1  0.24034375  0.23876942  0.30776369  1
  Se  Se188  1  0.23541091  0.24395691  0.80110291  1
  Se  Se189  1  0.23817487  0.56880829  0.30576741  1
  Se  Se190  1  0.24474877  0.57944527  0.81803742  1
  Se  Se191  1  0.24241266  0.90491154  0.31178339  1
  Se  Se192  1  0.23731695  0.91404964  0.81203857  1
  Se  Se193  1  0.58851638  0.25900216  0.30648193  1
  Se  Se194  1  0.58203980  0.23256000  0.79422420  1
  Se  Se195  1  0.59060142  0.58937106  0.30365741  1
  Se  Se196  1  0.57717496  0.56916852  0.80696754  1
  Se  Se197  1  0.58807161  0.92257559  0.29852402  1
  Se  Se198  1  0.58510624  0.90742643  0.81338769  1
  Se  Se199  1  0.91717718  0.25518452  0.30229622  1
  Se  Se200  1  0.90764288  0.24805612  0.81748856  1
  Se  Se201  1  0.92062931  0.58326491  0.29372462  1
  Se  Se202  1  0.91337073  0.58298878  0.80868440  1
  Se  Se203  1  0.91442827  0.91386254  0.30247035  1
  Se  Se204  1  0.92220302  0.92345853  0.80410406  1
  Se  Se205  1  0.07481418  0.07955840  0.30087261  1
  Se  Se206  1  0.08133373  0.08850949  0.79861221  1
  Se  Se207  1  0.08004650  0.40685488  0.29806162  1
  Se  Se208  1  0.08377660  0.42525811  0.81840987  1
  Se  Se209  1  0.08060485  0.74095238  0.30487070  1
  Se  Se210  1  0.07817087  0.74931529  0.80331752  1
  Se  Se211  1  0.42146291  0.09190491  0.30659923  1
  Se  Se212  1  0.42824616  0.09292681  0.80524631  1
  Se  Se213  1  0.42729454  0.42824428  0.31192269  1
  Se  Se214  1  0.40005933  0.39938449  0.79587564  1
  Se  Se215  1  0.42885879  0.75922241  0.30934231  1
  Se  Se216  1  0.42126400  0.74892968  0.81384283  1
  Se  Se217  1  0.75043380  0.08866548  0.30316961  1
  Se  Se218  1  0.75412377  0.08867004  0.81727380  1
  Se  Se219  1  0.75105356  0.41858067  0.30100683  1
  Se  Se220  1  0.75046196  0.41029331  0.80728861  1
  Se  Se221  1  0.74870610  0.74919733  0.29673074  1
  Se  Se222  1  0.76123748  0.75444534  0.81077884  1
  Se  Se223  1  0.24474125  0.09077890  0.18788253  1
  Se  Se224  1  0.24801180  0.09187057  0.68115359  1
  Se  Se225  1  0.24640425  0.41699997  0.18609942  1
  Se  Se226  1  0.24036512  0.42070535  0.70157834  1
  Se  Se227  1  0.23933487  0.75031157  0.19277061  1
  Se  Se228  1  0.23986155  0.76276324  0.69109607  1
  Se  Se229  1  0.59149158  0.08476242  0.20116975  1
  Se  Se230  1  0.57782232  0.08893917  0.68734892  1
  Se  Se231  1  0.59087220  0.41638356  0.19670862  1
  Se  Se232  1  0.59553367  0.42151345  0.69469904  1
  Se  Se233  1  0.58663450  0.74823714  0.19283596  1
  Se  Se234  1  0.57979416  0.74664435  0.69380328  1
  Se  Se235  1  0.91643081  0.08601287  0.19507911  1
  Se  Se236  1  0.91352684  0.08203212  0.70088123  1
  Se  Se237  1  0.91893053  0.41268897  0.19398198  1
  Se  Se238  1  0.91424480  0.41625015  0.69262150  1
  Se  Se239  1  0.91709302  0.74567025  0.19444399  1
  Se  Se240  1  0.91813670  0.74518238  0.69573126  1
  Se  Se241  1  0.08078080  0.25218399  0.19241048  1
  Se  Se242  1  0.08708404  0.23788756  0.69252210  1
  Se  Se243  1  0.07765746  0.58187148  0.19203457  1
  Se  Se244  1  0.07537812  0.58764087  0.70494009  1
  Se  Se245  1  0.07789442  0.91893729  0.20031153  1
  Se  Se246  1  0.07655088  0.92204146  0.69360744  1
  Se  Se247  1  0.42729542  0.24901991  0.19376391  1
  Se  Se248  1  0.41676170  0.26649624  0.69492836  1
  Se  Se249  1  0.42387920  0.57805875  0.19100951  1
  Se  Se250  1  0.42448048  0.56935039  0.70475089  1
  Se  Se251  1  0.42146473  0.91070744  0.18762496  1
  Se  Se252  1  0.42207201  0.90911770  0.69982594  1
  Se  Se253  1  0.75017539  0.25681227  0.19593101  1
  Se  Se254  1  0.75336702  0.25137369  0.69808177  1
  Se  Se255  1  0.74834871  0.58614470  0.19496343  1
  Se  Se256  1  0.75785621  0.56737339  0.68854351  1
  Se  Se257  1  0.75055707  0.91938909  0.19384553  1
  Se  Se258  1  0.75731425  0.90728869  0.69295432  1
