# generated using pymatgen
data_In86Cu29Se144
_symmetry_space_group_name_H-M   'P 1'
_cell_length_a   17.56999519
_cell_length_b   17.57250681
_cell_length_c   23.42950751
_cell_angle_alpha   89.99786963
_cell_angle_beta   89.98742229
_cell_angle_gamma   90.00272913
_symmetry_Int_Tables_number   1
_chemical_formula_structural   In86Cu29Se144
_chemical_formula_sum   'In86 Cu29 Se144'
_cell_volume   7233.83355005
_cell_formula_units_Z   1
loop_
 _symmetry_equiv_pos_site_id
 _symmetry_equiv_pos_as_xyz
  1  'x, y, z'
loop_
 _atom_site_type_symbol
 _atom_site_label
 _atom_site_symmetry_multiplicity
 _atom_site_fract_x
 _atom_site_fract_y
 _atom_site_fract_z
 _atom_site_occupancy
  In  In0  1  0.01179111  0.15438379  0.11475294  1
  In  In1  1  -0.00481188  0.15129934  0.62880302  1
  In  In2  1  0.00902062  0.50397813  0.11843169  1
  In  In3  1  0.00249900  0.51912189  0.63148380  1
  In  In4  1  -0.01616161  0.84140535  0.12440889  1
  In  In5  1  -0.00785052  0.83945773  0.63240256  1
  In  In6  1  0.33819136  0.16314855  0.12779493  1
  In  In7  1  0.33234417  0.15112162  0.60456865  1
  In  In8  1  0.31212214  0.49705375  0.12849328  1
  In  In9  1  0.33649425  0.49774106  0.62196307  1
  In  In10  1  0.34553147  0.83679066  0.13346183  1
  In  In11  1  0.35314384  0.84446691  0.60996575  1
  In  In12  1  0.65556887  0.17477329  0.13273626  1
  In  In13  1  0.66016565  0.17115674  0.62767537  1
  In  In14  1  0.67632088  0.49600605  0.13100838  1
  In  In15  1  0.66135670  0.49014987  0.61542582  1
  In  In16  1  0.67670422  0.82908199  0.13558053  1
  In  In17  1  0.67090266  0.84344221  0.60741063  1
  In  In18  1  0.20136560  -0.00316780  0.37567237  1
  In  In19  1  0.17630363  0.01037193  0.86673810  1
  In  In20  1  0.16862960  0.31407389  0.37615992  1
  In  In21  1  0.15306014  0.33227007  0.89281233  1
  In  In22  1  0.15968208  0.68221678  0.36422768  1
  In  In23  1  0.15004622  0.66673636  0.87173191  1
  In  In24  1  0.49921496  -0.00064627  0.38538912  1
  In  In25  1  0.50806757  0.01146915  0.86403575  1
  In  In26  1  0.50218127  0.33567367  0.37169755  1
  In  In27  1  0.49294847  0.31766763  0.87284217  1
  In  In28  1  0.50576071  0.65098018  0.38435996  1
  In  In29  1  0.50096191  0.66832449  0.87229440  1
  In  In30  1  0.81215948  -0.00496189  0.38037638  1
  In  In31  1  0.82471366  -0.00850694  0.87132578  1
  In  In32  1  0.83145401  0.34959031  0.37563685  1
  In  In33  1  0.83450790  0.34452610  0.87582536  1
  In  In34  1  0.83461280  0.67228903  0.37496570  1
  In  In35  1  0.84567979  0.65583186  0.88427444  1
  In  In36  1  0.01007128  0.16838418  0.37776239  1
  In  In37  1  0.01559137  0.16540982  0.87702190  1
  In  In38  1  -0.01512252  0.50559286  0.37660507  1
  In  In39  1  -0.00904581  0.49932215  0.88117945  1
  In  In40  1  0.00748307  0.82115987  0.37160479  1
  In  In41  1  -0.00715099  0.82436267  0.86781078  1
  In  In42  1  0.33678159  0.16598598  0.37870631  1
  In  In43  1  0.33849896  0.16710616  0.87928080  1
  In  In44  1  0.35060754  0.49864321  0.37568184  1
  In  In45  1  0.32882421  0.48519244  0.87640856  1
  In  In46  1  0.33613038  0.84868054  0.37855022  1
  In  In47  1  0.31954532  0.84173300  0.87178223  1
  In  In48  1  0.64176008  0.14956015  0.37180898  1
  In  In49  1  0.65885094  0.16051810  0.86875933  1
  In  In50  1  0.66806465  0.50389398  0.37113659  1
  In  In51  1  0.68397012  0.50200609  0.87611369  1
  In  In52  1  0.66986050  0.83551480  0.38224572  1
  In  In53  1  0.66657218  0.84840720  0.87405949  1
  In  In54  1  0.16676023  0.00946886  0.12252641  1
  In  In55  1  0.16302685  0.00586360  0.62742231  1
  In  In56  1  0.16934667  0.33551754  0.12173384  1
  In  In57  1  0.18274855  0.33293122  0.62692903  1
  In  In58  1  0.16386887  0.64968656  0.12654832  1
  In  In59  1  0.15420069  0.66256381  0.63357829  1
  In  In60  1  0.49121966  0.00592637  0.13515968  1
  In  In61  1  0.50313677  0.00356794  0.61918241  1
  In  In62  1  0.50856307  0.32321458  0.13284865  1
  In  In63  1  0.50470743  0.33637236  0.61761756  1
  In  In64  1  0.50566190  0.68034252  0.13360733  1
  In  In65  1  0.50794196  0.67463250  0.60554828  1
  In  In66  1  0.83776179  -0.00885813  0.12273269  1
  In  In67  1  0.83434370  -0.00849850  0.62817949  1
  In  In68  1  0.82037627  0.33218315  0.12521340  1
  In  In69  1  0.81644460  0.32922219  0.62463180  1
  In  In70  1  0.83444545  0.66977798  0.12801332  1
  In  In71  1  0.83918174  0.67569960  0.61880192  1
  In  In72  1  0.00120505  -0.00194242  0.24291679  1
  In  In73  1  0.16150976  0.83607110  -0.00176749  1
  In  In74  1  -0.00143606  0.33311256  0.76050268  1
  In  In75  1  0.50331127  0.83880095  0.00340814  1
  In  In76  1  0.67401620  0.67236761  0.74054548  1
  In  In77  1  0.33541806  0.66393938  0.25436660  1
  In  In78  1  0.16513834  0.50135015  0.50679680  1
  In  In79  1  0.83787540  0.16777033  -0.00067825  1
  In  In80  1  0.33060433  0.67580233  0.74207551  1
  In  In81  1  0.17004723  0.83725919  0.49541758  1
  In  In82  1  0.33383243  0.33111727  0.74531061  1
  In  In83  1  0.82731737  0.16518422  0.50118653  1
  In  In84  1  0.50408340  0.49246045  0.00956128  1
  In  In85  1  -0.00236277  0.33320554  0.24493741  1
  Cu  Cu86  1  0.33773759  0.33601875  0.49868626  1
  Cu  Cu87  1  0.00003362  0.33481581  0.49776679  1
  Cu  Cu88  1  0.67416488  0.66077467  0.49507815  1
  Cu  Cu89  1  0.82396280  0.16807069  0.25250659  1
  Cu  Cu90  1  0.16166047  0.49190247  0.24854598  1
  Cu  Cu91  1  0.49672363  0.16239750  0.25597969  1
  Cu  Cu92  1  0.66954769  0.33753404  0.49264205  1
  Cu  Cu93  1  0.33668022  0.00660705  -0.00083436  1
  Cu  Cu94  1  0.17952666  0.15963833  0.25086049  1
  Cu  Cu95  1  0.51059124  0.50024203  0.73950960  1
  Cu  Cu96  1  0.50339126  0.49815509  0.25267303  1
  Cu  Cu97  1  0.00129421  -0.00279561  0.50419239  1
  Cu  Cu98  1  0.49871967  0.16231190  0.74582682  1
  Cu  Cu99  1  0.32898074  0.65464713  0.00174027  1
  Cu  Cu100  1  0.17162649  0.16825362  0.74838518  1
  Cu  Cu101  1  0.83071849  0.82822530  0.74715503  1
  Cu  Cu102  1  0.83453748  0.49831683  0.75203479  1
  Cu  Cu103  1  0.32770300  0.32522070  0.00424681  1
  Cu  Cu104  1  0.66418347  0.00555125  -0.00207579  1
  Cu  Cu105  1  0.50684583  0.83951963  0.25963029  1
  Cu  Cu106  1  0.66282673  0.33255330  0.00445831  1
  Cu  Cu107  1  0.82584707  0.15836055  0.74922651  1
  Cu  Cu108  1  -0.00588071  0.66740359  -0.00032683  1
  Cu  Cu109  1  0.67913500  0.67140785  0.00504716  1
  Cu  Cu110  1  0.16490236  0.84334974  0.74749237  1
  Cu  Cu111  1  -0.00533613  0.66976582  0.49944076  1
  Cu  Cu112  1  0.49739112  0.84626389  0.74084762  1
  Cu  Cu113  1  0.82874903  0.51118938  0.25218351  1
  Cu  Cu114  1  0.82913310  0.83670154  0.25267102  1
  Se  Se115  1  0.08198445  0.06720747  0.04498300  1
  Se  Se116  1  0.08173583  0.08539455  0.55435133  1
  Se  Se117  1  0.08012318  0.40882334  0.05496285  1
  Se  Se118  1  0.07533692  0.40986803  0.56678037  1
  Se  Se119  1  0.07742590  0.74352058  0.06162188  1
  Se  Se120  1  0.07796298  0.74925435  0.55857165  1
  Se  Se121  1  0.42283674  0.08303685  0.05584795  1
  Se  Se122  1  0.44577813  0.10052197  0.54438411  1
  Se  Se123  1  0.40653242  0.40735465  0.06591954  1
  Se  Se124  1  0.41923134  0.42097452  0.55158835  1
  Se  Se125  1  0.40881134  0.74031513  0.05665205  1
  Se  Se126  1  0.40165799  0.73614867  0.54681602  1
  Se  Se127  1  0.74261655  0.08420929  0.06194912  1
  Se  Se128  1  0.74139548  0.07488869  0.56154390  1
  Se  Se129  1  0.74761208  0.41831609  0.05250577  1
  Se  Se130  1  0.75520937  0.41626347  0.54809908  1
  Se  Se131  1  0.75636874  0.75928203  0.05813712  1
  Se  Se132  1  0.75318154  0.74915517  0.54825112  1
  Se  Se133  1  0.24822040  0.24038716  0.05949257  1
  Se  Se134  1  0.25138811  0.25342819  0.55049620  1
  Se  Se135  1  0.24092186  0.57411644  0.05036208  1
  Se  Se136  1  0.25258088  0.59703203  0.56214835  1
  Se  Se137  1  0.26400205  0.91688270  0.05729919  1
  Se  Se138  1  0.25555684  0.93278926  0.55337580  1
  Se  Se139  1  0.57943597  0.24693349  0.05371599  1
  Se  Se140  1  0.59183874  0.25484478  0.55124123  1
  Se  Se141  1  0.58974004  0.59524948  0.06197803  1
  Se  Se142  1  0.58689560  0.57837131  0.54632012  1
  Se  Se143  1  0.59149830  0.92484730  0.06569056  1
  Se  Se144  1  0.55496706  0.89479424  0.55308354  1
  Se  Se145  1  0.92348676  0.25685643  0.06313329  1
  Se  Se146  1  0.92162272  0.25398824  0.56140323  1
  Se  Se147  1  0.91422830  0.58481680  0.05764654  1
  Se  Se148  1  0.91808997  0.58175597  0.55415784  1
  Se  Se149  1  0.92642956  0.92969056  0.04900967  1
  Se  Se150  1  0.91645760  0.91394424  0.55481160  1
  Se  Se151  1  0.08480937  0.24722187  0.45280003  1
  Se  Se152  1  0.08088571  0.23959388  0.95718662  1
  Se  Se153  1  0.08046366  0.59231128  0.44072303  1
  Se  Se154  1  0.07929534  0.58506728  0.94634734  1
  Se  Se155  1  0.08009079  0.92744924  0.43465647  1
  Se  Se156  1  0.08262681  0.91966959  0.92865942  1
  Se  Se157  1  0.42054640  0.25517293  0.44299356  1
  Se  Se158  1  0.41794841  0.24855652  0.95166991  1
  Se  Se159  1  0.41059399  0.58239087  0.45208842  1
  Se  Se160  1  0.41629546  0.58225003  0.94184798  1
  Se  Se161  1  0.41953076  0.91243343  0.45412751  1
  Se  Se162  1  0.41371502  0.92308763  0.93804165  1
  Se  Se163  1  0.74421173  0.25053412  0.43276536  1
  Se  Se164  1  0.74092091  0.25359184  0.93981331  1
  Se  Se165  1  0.75791589  0.57914058  0.44089724  1
  Se  Se166  1  0.75464055  0.58049394  0.95246314  1
  Se  Se167  1  0.74662766  0.91568137  0.45684218  1
  Se  Se168  1  0.74761559  0.91755405  0.95021079  1
  Se  Se169  1  0.24174608  0.09658946  0.44755236  1
  Se  Se170  1  0.24998250  0.08518139  0.94521196  1
  Se  Se171  1  0.25061763  0.41299180  0.44032285  1
  Se  Se172  1  0.24987765  0.41418522  0.95158931  1
  Se  Se173  1  0.25532157  0.74115973  0.43746132  1
  Se  Se174  1  0.25484621  0.74045423  0.94084455  1
  Se  Se175  1  0.57114080  0.09072237  0.45745758  1
  Se  Se176  1  0.57887631  0.08521550  0.94449408  1
  Se  Se177  1  0.58437865  0.42119779  0.44029521  1
  Se  Se178  1  0.58675882  0.41119430  0.93743992  1
  Se  Se179  1  0.58643316  0.74411319  0.44597526  1
  Se  Se180  1  0.59204808  0.74271287  0.94338173  1
  Se  Se181  1  0.92116211  0.07667472  0.44023422  1
  Se  Se182  1  0.91854133  0.07635618  0.93564604  1
  Se  Se183  1  0.91519722  0.42007598  0.45045705  1
  Se  Se184  1  0.92173368  0.40643226  0.94908300  1
  Se  Se185  1  0.91760394  0.75681702  0.44493745  1
  Se  Se186  1  0.91478567  0.75613517  0.94777573  1
  Se  Se187  1  0.25686968  0.24820950  0.30365841  1
  Se  Se188  1  0.24179909  0.25233544  0.81277344  1
  Se  Se189  1  0.24170534  0.57132662  0.31208684  1
  Se  Se190  1  0.25423297  0.58539563  0.81179644  1
  Se  Se191  1  0.23716934  0.89371801  0.30393336  1
  Se  Se192  1  0.25467266  0.92458815  0.79572886  1
  Se  Se193  1  0.58386891  0.25028026  0.30293398  1
  Se  Se194  1  0.57926240  0.24874694  0.80016645  1
  Se  Se195  1  0.58294549  0.58726225  0.30248964  1
  Se  Se196  1  0.58395154  0.58059162  0.80454562  1
  Se  Se197  1  0.58753192  0.92280507  0.31481111  1
  Se  Se198  1  0.58528396  0.91899576  0.79890827  1
  Se  Se199  1  0.91054816  0.24415944  0.31114590  1
  Se  Se200  1  0.90576642  0.23659983  0.81258549  1
  Se  Se201  1  0.91791204  0.59093783  0.30253934  1
  Se  Se202  1  0.91760504  0.58103645  0.80531058  1
  Se  Se203  1  0.91155384  0.91731082  0.31203242  1
  Se  Se204  1  0.91164577  0.91330505  0.80200186  1
  Se  Se205  1  0.09267645  0.08193170  0.30886346  1
  Se  Se206  1  0.08384088  0.08593549  0.79879285  1
  Se  Se207  1  0.08343827  0.41668340  0.31525531  1
  Se  Se208  1  0.09303831  0.42288609  0.81427935  1
  Se  Se209  1  0.07535345  0.74924620  0.29118078  1
  Se  Se210  1  0.08489428  0.75343319  0.79734570  1
  Se  Se211  1  0.41666204  0.07781344  0.31139101  1
  Se  Se212  1  0.41031896  0.08722583  0.80232555  1
  Se  Se213  1  0.41573007  0.41425252  0.29987196  1
  Se  Se214  1  0.42843119  0.42480749  0.80299899  1
  Se  Se215  1  0.42514893  0.75212444  0.31512052  1
  Se  Se216  1  0.42418314  0.76440264  0.80602030  1
  Se  Se217  1  0.74511091  0.08329109  0.30758243  1
  Se  Se218  1  0.74196473  0.07504970  0.80286516  1
  Se  Se219  1  0.74926035  0.41888284  0.30028149  1
  Se  Se220  1  0.74824906  0.41425711  0.80134059  1
  Se  Se221  1  0.74765322  0.75340094  0.30785302  1
  Se  Se222  1  0.75573684  0.75078532  0.81449298  1
  Se  Se223  1  0.25723796  0.07368411  0.19570246  1
  Se  Se224  1  0.25483287  0.09113801  0.68905852  1
  Se  Se225  1  0.24729475  0.40645199  0.20109019  1
  Se  Se226  1  0.24225979  0.43400137  0.69792745  1
  Se  Se227  1  0.24745550  0.74801826  0.18831417  1
  Se  Se228  1  0.24409187  0.76853965  0.68179373  1
  Se  Se229  1  0.58338858  0.08217459  0.20088583  1
  Se  Se230  1  0.58477593  0.07923003  0.69449389  1
  Se  Se231  1  0.58620691  0.41681677  0.19605626  1
  Se  Se232  1  0.58960817  0.40989632  0.69200105  1
  Se  Se233  1  0.58750634  0.75417171  0.20549804  1
  Se  Se234  1  0.57613983  0.75806776  0.68624604  1
  Se  Se235  1  0.90954867  0.09699076  0.18982742  1
  Se  Se236  1  0.91281119  0.07586412  0.69975128  1
  Se  Se237  1  0.90633555  0.42702277  0.19064814  1
  Se  Se238  1  0.91250818  0.41585876  0.69004666  1
  Se  Se239  1  0.91431793  0.75597688  0.19810873  1
  Se  Se240  1  0.91745655  0.74388115  0.69787826  1
  Se  Se241  1  0.08951470  0.23546112  0.19334457  1
  Se  Se242  1  0.08692022  0.24851765  0.69109747  1
  Se  Se243  1  0.07822062  0.57849996  0.19990616  1
  Se  Se244  1  0.08501224  0.58221124  0.70814370  1
  Se  Se245  1  0.09318419  0.90728589  0.18651982  1
  Se  Se246  1  0.07811631  0.92549291  0.69589762  1
  Se  Se247  1  0.41728014  0.24689540  0.19897178  1
  Se  Se248  1  0.41935557  0.24164662  0.68336815  1
  Se  Se249  1  0.42188790  0.57428655  0.18803895  1
  Se  Se250  1  0.42883124  0.58557117  0.68649990  1
  Se  Se251  1  0.41782629  0.91793318  0.20708168  1
  Se  Se252  1  0.41175621  0.92745036  0.68998136  1
  Se  Se253  1  0.74434242  0.25500296  0.19990449  1
  Se  Se254  1  0.74608592  0.24798603  0.69962399  1
  Se  Se255  1  0.74471239  0.59303260  0.19727304  1
  Se  Se256  1  0.75805622  0.57341492  0.68492445  1
  Se  Se257  1  0.75224186  0.92583834  0.19878801  1
  Se  Se258  1  0.74491402  0.90669450  0.69167652  1
