# generated using pymatgen
data_In86Cu29Se144
_symmetry_space_group_name_H-M   'P 1'
_cell_length_a   17.55249851
_cell_length_b   17.55762594
_cell_length_c   23.41099444
_cell_angle_alpha   90.00840165
_cell_angle_beta   90.00013352
_cell_angle_gamma   90.00227006
_symmetry_Int_Tables_number   1
_chemical_formula_structural   In86Cu29Se144
_chemical_formula_sum   'In86 Cu29 Se144'
_cell_volume   7214.80493610
_cell_formula_units_Z   1
loop_
 _symmetry_equiv_pos_site_id
 _symmetry_equiv_pos_as_xyz
  1  'x, y, z'
loop_
 _atom_site_type_symbol
 _atom_site_label
 _atom_site_symmetry_multiplicity
 _atom_site_fract_x
 _atom_site_fract_y
 _atom_site_fract_z
 _atom_site_occupancy
  In  In0  1  0.00286070  0.16781859  0.12370922  1
  In  In1  1  -0.00572959  0.16389483  0.63399664  1
  In  In2  1  0.00855066  0.51393319  0.11635145  1
  In  In3  1  -0.00660448  0.49683101  0.62241651  1
  In  In4  1  -0.01370131  0.81765296  0.11731481  1
  In  In5  1  0.00159248  0.83763694  0.62289408  1
  In  In6  1  0.32588931  0.15660483  0.12847415  1
  In  In7  1  0.32791826  0.16198361  0.61588443  1
  In  In8  1  0.33178311  0.49760724  0.11286374  1
  In  In9  1  0.33238277  0.49544029  0.62054599  1
  In  In10  1  0.33686519  0.83955291  0.11879585  1
  In  In11  1  0.31914725  0.84377568  0.62627001  1
  In  In12  1  0.65621321  0.15909407  0.12687966  1
  In  In13  1  0.67043195  0.16969605  0.63082841  1
  In  In14  1  0.67230067  0.50897020  0.11210599  1
  In  In15  1  0.66626960  0.49393951  0.62276583  1
  In  In16  1  0.67130225  0.84002504  0.12383892  1
  In  In17  1  0.69122579  0.83397693  0.62245205  1
  In  In18  1  0.16773313  -0.00904575  0.38784377  1
  In  In19  1  0.15735858  -0.00549659  0.87170233  1
  In  In20  1  0.15975201  0.34274297  0.38567684  1
  In  In21  1  0.16330828  0.34084096  0.86849521  1
  In  In22  1  0.14557127  0.68707715  0.39835600  1
  In  In23  1  0.16125685  0.67070171  0.87839388  1
  In  In24  1  0.51164848  0.00388475  0.37048177  1
  In  In25  1  0.51023084  -0.00467074  0.87897260  1
  In  In26  1  0.49739281  0.33520884  0.38414880  1
  In  In27  1  0.50573531  0.32857820  0.87428760  1
  In  In28  1  0.49306087  0.66518773  0.37164664  1
  In  In29  1  0.49955282  0.66806442  0.88332873  1
  In  In30  1  0.83798171  -0.00098631  0.39181072  1
  In  In31  1  0.83302082  -0.00635014  0.86596008  1
  In  In32  1  0.83658141  0.32432789  0.38640928  1
  In  In33  1  0.84183350  0.34282469  0.85569119  1
  In  In34  1  0.84469094  0.66006288  0.38679158  1
  In  In35  1  0.84318884  0.65935392  0.87690518  1
  In  In36  1  0.00373390  0.14866777  0.40622414  1
  In  In37  1  -0.00159435  0.16260450  0.84379237  1
  In  In38  1  -0.00833046  0.51560275  0.39364095  1
  In  In39  1  -0.00280848  0.50360772  0.86795084  1
  In  In40  1  0.00200489  0.83301714  0.39162749  1
  In  In41  1  0.00399130  0.82832302  0.87345988  1
  In  In42  1  0.34280618  0.16126818  0.38487886  1
  In  In43  1  0.33228407  0.17355541  0.87250996  1
  In  In44  1  0.33468178  0.50346677  0.38179185  1
  In  In45  1  0.31920690  0.49318094  0.88629507  1
  In  In46  1  0.32489486  0.83199358  0.36934402  1
  In  In47  1  0.33765658  0.83473949  0.88470838  1
  In  In48  1  0.67946408  0.14901771  0.38945144  1
  In  In49  1  0.68306584  0.17112985  0.84751059  1
  In  In50  1  0.67334310  0.49431556  0.38018224  1
  In  In51  1  0.67428448  0.49760127  0.87653213  1
  In  In52  1  0.67021007  0.84882929  0.37042640  1
  In  In53  1  0.66894266  0.84100639  0.88058588  1
  In  In54  1  0.18084348  -0.00144594  0.13137241  1
  In  In55  1  0.14960412  -0.00549208  0.61334183  1
  In  In56  1  0.16044379  0.33891987  0.11770513  1
  In  In57  1  0.14475937  0.31253066  0.62124207  1
  In  In58  1  0.15784005  0.66356007  0.12098276  1
  In  In59  1  0.13066784  0.64522684  0.59747948  1
  In  In60  1  0.51413215  -0.01875838  0.14490339  1
  In  In61  1  0.50093215  0.01628694  0.62273000  1
  In  In62  1  0.49274702  0.33903896  0.12130424  1
  In  In63  1  0.50796770  0.33803845  0.62175713  1
  In  In64  1  0.49840633  0.66461793  0.11530194  1
  In  In65  1  0.51333006  0.66293265  0.62083694  1
  In  In66  1  0.83396904  -0.02619734  0.13304944  1
  In  In67  1  0.83457415  -0.00037979  0.62897252  1
  In  In68  1  0.81946904  0.33866777  0.12286807  1
  In  In69  1  0.82814675  0.32967370  0.63159770  1
  In  In70  1  0.84347828  0.67709794  0.11985767  1
  In  In71  1  0.86440980  0.68959709  0.60091708  1
  In  In72  1  0.66857211  0.32723090  0.25621547  1
  In  In73  1  0.67315869  0.67587764  0.24236323  1
  In  In74  1  0.83466081  0.16608338  -0.01467657  1
  In  In75  1  0.50246003  0.82872843  0.49092702  1
  In  In76  1  0.68160014  0.66298630  0.74567181  1
  In  In77  1  0.32395972  0.67249087  0.75234396  1
  In  In78  1  0.50160635  0.16723333  -0.00739521  1
  In  In79  1  0.32603462  0.00291858  0.74731267  1
  In  In80  1  0.16554933  0.17336955  -0.00575083  1
  In  In81  1  0.32892602  0.67225709  0.25359490  1
  In  In82  1  0.32377079  0.33174140  0.75377795  1
  In  In83  1  -0.00202631  0.32960308  0.26013963  1
  In  In84  1  0.00122334  -0.01024199  0.26406440  1
  In  In85  1  0.33205466  0.33296603  0.23940693  1
  Cu  Cu86  1  0.15597366  0.83065686  0.25485250  1
  Cu  Cu87  1  0.15132128  0.49806886  0.74378004  1
  Cu  Cu88  1  0.33766198  0.66996968  0.49740207  1
  Cu  Cu89  1  0.33565395  0.33651114  0.50445121  1
  Cu  Cu90  1  0.50258023  0.50244691  0.24679834  1
  Cu  Cu91  1  0.67297392  0.00225759  0.00237789  1
  Cu  Cu92  1  0.33925189  -0.00324359  0.00433738  1
  Cu  Cu93  1  0.50082334  0.16797496  0.74437424  1
  Cu  Cu94  1  0.17486714  0.16604552  0.26051611  1
  Cu  Cu95  1  0.85073371  0.50478999  0.25234852  1
  Cu  Cu96  1  -0.00736673  0.33903686  -0.01186944  1
  Cu  Cu97  1  0.66305353  0.67162618  -0.00175241  1
  Cu  Cu98  1  -0.00207335  0.66476140  -0.00503859  1
  Cu  Cu99  1  0.66872926  0.32771462  0.50536163  1
  Cu  Cu100  1  0.66883018  0.34672102  -0.00764615  1
  Cu  Cu101  1  0.84419873  0.83467648  0.74605754  1
  Cu  Cu102  1  0.00054269  -0.01002375  -0.00404304  1
  Cu  Cu103  1  0.50517190  0.15264243  0.25842950  1
  Cu  Cu104  1  0.15921584  0.51859649  0.25171226  1
  Cu  Cu105  1  -0.00094421  0.33383581  0.51057309  1
  Cu  Cu106  1  0.15617069  0.82637725  0.74406527  1
  Cu  Cu107  1  0.32839529  0.00278316  0.50110801  1
  Cu  Cu108  1  0.83447886  0.50673136  0.74250940  1
  Cu  Cu109  1  0.67090130  0.65466583  0.50115808  1
  Cu  Cu110  1  0.32471233  0.66750160  0.00007794  1
  Cu  Cu111  1  0.66435661  -0.00090798  0.50449026  1
  Cu  Cu112  1  0.49981306  0.50111016  0.74809504  1
  Cu  Cu113  1  0.51340065  0.84340900  0.75397117  1
  Cu  Cu114  1  0.83365840  0.14834959  0.26122806  1
  Se  Se115  1  0.08034421  0.07539628  0.05540893  1
  Se  Se116  1  0.07943680  0.09743881  0.55675147  1
  Se  Se117  1  0.07681035  0.41635085  0.04838552  1
  Se  Se118  1  0.08828560  0.41919423  0.55730596  1
  Se  Se119  1  0.08127972  0.74877948  0.04948140  1
  Se  Se120  1  0.09371564  0.77028167  0.55003319  1
  Se  Se121  1  0.42174483  0.07845213  0.06198453  1
  Se  Se122  1  0.41795809  0.08532425  0.54827355  1
  Se  Se123  1  0.42185696  0.42027648  0.04909957  1
  Se  Se124  1  0.42316492  0.42014513  0.55389740  1
  Se  Se125  1  0.41274325  0.74967317  0.05135915  1
  Se  Se126  1  0.41327725  0.75065278  0.56286320  1
  Se  Se127  1  0.75530685  0.08272474  0.06182125  1
  Se  Se128  1  0.74582917  0.08122990  0.56115817  1
  Se  Se129  1  0.75732968  0.42399109  0.04595557  1
  Se  Se130  1  0.75319167  0.41358440  0.55588724  1
  Se  Se131  1  0.74660791  0.75081179  0.05557800  1
  Se  Se132  1  0.75095488  0.74931491  0.54471181  1
  Se  Se133  1  0.26220991  0.25588055  0.05823552  1
  Se  Se134  1  0.24812947  0.25327065  0.55370542  1
  Se  Se135  1  0.24218855  0.58246594  0.05234842  1
  Se  Se136  1  0.25699419  0.58908235  0.55580374  1
  Se  Se137  1  0.24541147  0.91855514  0.05223025  1
  Se  Se138  1  0.24436513  0.91630028  0.54885314  1
  Se  Se139  1  0.59472835  0.26000956  0.05410420  1
  Se  Se140  1  0.58303580  0.24446658  0.55738329  1
  Se  Se141  1  0.57869174  0.58160660  0.04619199  1
  Se  Se142  1  0.58202395  0.57403373  0.55034105  1
  Se  Se143  1  0.58517659  0.92505598  0.05714540  1
  Se  Se144  1  0.58439364  0.91410258  0.56202547  1
  Se  Se145  1  0.92013337  0.25746913  0.05482553  1
  Se  Se146  1  0.91507004  0.25087705  0.56283134  1
  Se  Se147  1  0.91216775  0.58356168  0.05013982  1
  Se  Se148  1  0.92671209  0.58115392  0.54487921  1
  Se  Se149  1  0.91254647  0.91366180  0.05116040  1
  Se  Se150  1  0.90002801  0.90508624  0.55990244  1
  Se  Se151  1  0.08522285  0.25366591  0.45458037  1
  Se  Se152  1  0.06560061  0.24845843  0.93047945  1
  Se  Se153  1  0.10621963  0.56576331  0.45138177  1
  Se  Se154  1  0.08079257  0.57892079  0.94180018  1
  Se  Se155  1  0.05761148  0.94395331  0.45093357  1
  Se  Se156  1  0.08897321  0.90892261  0.94527027  1
  Se  Se157  1  0.41971022  0.25010436  0.45274935  1
  Se  Se158  1  0.40420567  0.26254606  0.94469464  1
  Se  Se159  1  0.42305288  0.58531180  0.44783969  1
  Se  Se160  1  0.40718819  0.58517641  0.94382514  1
  Se  Se161  1  0.40938495  0.92354179  0.43851617  1
  Se  Se162  1  0.42574858  0.91843361  0.94893505  1
  Se  Se163  1  0.75415086  0.24229410  0.45442841  1
  Se  Se164  1  0.74301533  0.26054661  0.93026088  1
  Se  Se165  1  0.75729983  0.57261340  0.44938626  1
  Se  Se166  1  0.74781421  0.58886223  0.94405145  1
  Se  Se167  1  0.74537716  0.91275995  0.45239245  1
  Se  Se168  1  0.75812731  0.92292184  0.94590348  1
  Se  Se169  1  0.24547548  0.08872915  0.44888752  1
  Se  Se170  1  0.25969734  0.07523380  0.94036783  1
  Se  Se171  1  0.25377205  0.41955915  0.44950664  1
  Se  Se172  1  0.24046469  0.40239417  0.94887387  1
  Se  Se173  1  0.25525202  0.75910541  0.44956552  1
  Se  Se174  1  0.24542631  0.75372597  0.94608790  1
  Se  Se175  1  0.57766084  0.07987795  0.45204908  1
  Se  Se176  1  0.60601270  0.08920360  0.93603501  1
  Se  Se177  1  0.58894464  0.41332867  0.44815898  1
  Se  Se178  1  0.57728213  0.42274886  0.94073536  1
  Se  Se179  1  0.59696134  0.73705834  0.43576558  1
  Se  Se180  1  0.58117311  0.75837338  0.94626514  1
  Se  Se181  1  0.90202095  0.08523573  0.46750958  1
  Se  Se182  1  0.93318344  0.07809939  0.93212634  1
  Se  Se183  1  0.91694327  0.41319581  0.45129304  1
  Se  Se184  1  0.90856823  0.42131107  0.93566187  1
  Se  Se185  1  0.93464372  0.73262715  0.45606310  1
  Se  Se186  1  0.91563384  0.75286562  0.94418635  1
  Se  Se187  1  0.25029734  0.25657470  0.31506538  1
  Se  Se188  1  0.23137231  0.23344334  0.80342622  1
  Se  Se189  1  0.24100596  0.58740135  0.31790076  1
  Se  Se190  1  0.23888936  0.57039943  0.80633216  1
  Se  Se191  1  0.23735068  0.91709912  0.30619577  1
  Se  Se192  1  0.24640005  0.89918416  0.80423979  1
  Se  Se193  1  0.58010634  0.23916669  0.31851469  1
  Se  Se194  1  0.58122765  0.25527504  0.79756048  1
  Se  Se195  1  0.58586687  0.57817275  0.30620835  1
  Se  Se196  1  0.57882582  0.58501566  0.80678462  1
  Se  Se197  1  0.57680591  0.91054999  0.30099743  1
  Se  Se198  1  0.59642949  0.92565401  0.80570208  1
  Se  Se199  1  0.91681431  0.22920688  0.31905422  1
  Se  Se200  1  0.89793107  0.23963968  0.78922172  1
  Se  Se201  1  0.92676584  0.58728799  0.30974139  1
  Se  Se202  1  0.91756408  0.58937594  0.79748929  1
  Se  Se203  1  0.90582401  0.90299387  0.31813573  1
  Se  Se204  1  0.92753490  0.91532622  0.80303350  1
  Se  Se205  1  0.08571403  0.09261723  0.31756029  1
  Se  Se206  1  0.09360673  0.07356694  0.79431264  1
  Se  Se207  1  0.08461079  0.43061946  0.31118136  1
  Se  Se208  1  0.07308589  0.41190587  0.79926282  1
  Se  Se209  1  0.07701615  0.75217251  0.31403836  1
  Se  Se210  1  0.08060287  0.74067109  0.80188833  1
  Se  Se211  1  0.41049265  0.07837178  0.30845251  1
  Se  Se212  1  0.42481051  0.08832429  0.80847790  1
  Se  Se213  1  0.42092561  0.42116463  0.30527034  1
  Se  Se214  1  0.41672810  0.42528238  0.80916104  1
  Se  Se215  1  0.42866992  0.76435923  0.30212658  1
  Se  Se216  1  0.42705527  0.76030660  0.80714998  1
  Se  Se217  1  0.75078694  0.06686016  0.31434797  1
  Se  Se218  1  0.77378906  0.08580465  0.79035207  1
  Se  Se219  1  0.76819861  0.41918649  0.30797764  1
  Se  Se220  1  0.74687611  0.42691458  0.79608915  1
  Se  Se221  1  0.75737494  0.74679958  0.31715238  1
  Se  Se222  1  0.76070063  0.75825743  0.80951638  1
  Se  Se223  1  0.25345238  0.08064207  0.20629150  1
  Se  Se224  1  0.23733403  0.08618734  0.68507255  1
  Se  Se225  1  0.23522958  0.43227653  0.19147184  1
  Se  Se226  1  0.23798743  0.41875925  0.68780108  1
  Se  Se227  1  0.23923258  0.75780727  0.19036210  1
  Se  Se228  1  0.23433256  0.74593361  0.68284705  1
  Se  Se229  1  0.59537866  0.07633699  0.20537866  1
  Se  Se230  1  0.58613388  0.07986929  0.69818835  1
  Se  Se231  1  0.58597344  0.42096439  0.18959653  1
  Se  Se232  1  0.58347180  0.41840444  0.69647405  1
  Se  Se233  1  0.57044814  0.75525002  0.18759914  1
  Se  Se234  1  0.58541574  0.75778418  0.69143233  1
  Se  Se235  1  0.91899434  0.08174240  0.19387052  1
  Se  Se236  1  0.89764632  0.09340925  0.70313438  1
  Se  Se237  1  0.91783833  0.41731504  0.18788407  1
  Se  Se238  1  0.91777152  0.41533986  0.69608863  1
  Se  Se239  1  0.91076489  0.75408998  0.19800035  1
  Se  Se240  1  0.92259048  0.74767083  0.69236891  1
  Se  Se241  1  0.09604296  0.24368665  0.19606492  1
  Se  Se242  1  0.07641947  0.24810239  0.70390759  1
  Se  Se243  1  0.07259611  0.59492616  0.19660379  1
  Se  Se244  1  0.07495892  0.58746305  0.69021438  1
  Se  Se245  1  0.08195798  0.91076916  0.18831500  1
  Se  Se246  1  0.08087879  0.92090223  0.69549841  1
  Se  Se247  1  0.43179934  0.23523539  0.19247172  1
  Se  Se248  1  0.41437135  0.24628241  0.68897292  1
  Se  Se249  1  0.41571581  0.57899422  0.19066046  1
  Se  Se250  1  0.42013915  0.58448974  0.69184234  1
  Se  Se251  1  0.39462966  0.93031719  0.19406987  1
  Se  Se252  1  0.42490177  0.91299183  0.69151819  1
  Se  Se253  1  0.76130981  0.23497638  0.19674469  1
  Se  Se254  1  0.72982156  0.26767487  0.70061774  1
  Se  Se255  1  0.76100448  0.57375151  0.19051017  1
  Se  Se256  1  0.76694674  0.58828052  0.67400200  1
  Se  Se257  1  0.74395283  0.91109162  0.20429859  1
  Se  Se258  1  0.75125314  0.91601876  0.70113057  1
