# generated using pymatgen
data_In86Cu29Se144
_symmetry_space_group_name_H-M   'P 1'
_cell_length_a   17.56869695
_cell_length_b   17.56741627
_cell_length_c   23.42645313
_cell_angle_alpha   89.96791573
_cell_angle_beta   89.99147326
_cell_angle_gamma   89.98468366
_symmetry_Int_Tables_number   1
_chemical_formula_structural   In86Cu29Se144
_chemical_formula_sum   'In86 Cu29 Se144'
_cell_volume   7230.25966874
_cell_formula_units_Z   1
loop_
 _symmetry_equiv_pos_site_id
 _symmetry_equiv_pos_as_xyz
  1  'x, y, z'
loop_
 _atom_site_type_symbol
 _atom_site_label
 _atom_site_symmetry_multiplicity
 _atom_site_fract_x
 _atom_site_fract_y
 _atom_site_fract_z
 _atom_site_occupancy
  In  In0  1  -0.00473853  0.17537215  0.12931978  1
  In  In1  1  0.00826381  0.17441262  0.62755606  1
  In  In2  1  0.00112752  0.49018571  0.11447870  1
  In  In3  1  0.00616883  0.49303550  0.63268269  1
  In  In4  1  0.00694570  0.84258284  0.12534229  1
  In  In5  1  -0.01584007  0.83670154  0.62412892  1
  In  In6  1  0.33647042  0.16324186  0.13428874  1
  In  In7  1  0.34080022  0.15659437  0.63315317  1
  In  In8  1  0.31934794  0.48591385  0.11703955  1
  In  In9  1  0.32483866  0.49318997  0.62105113  1
  In  In10  1  0.34220601  0.84046567  0.12994819  1
  In  In11  1  0.35044533  0.83409912  0.62087843  1
  In  In12  1  0.66104922  0.16365991  0.11648447  1
  In  In13  1  0.65671746  0.17740832  0.63959911  1
  In  In14  1  0.65910002  0.49396709  0.10668401  1
  In  In15  1  0.65532454  0.49617636  0.62995891  1
  In  In16  1  0.66744499  0.85122892  0.12262624  1
  In  In17  1  0.67121715  0.84165790  0.62202659  1
  In  In18  1  0.18608446  0.01765453  0.34583261  1
  In  In19  1  0.17396641  -0.00622664  0.87332052  1
  In  In20  1  0.18469011  0.34980749  0.35549996  1
  In  In21  1  0.17355404  0.33820695  0.87450175  1
  In  In22  1  0.15557616  0.65819727  0.37725934  1
  In  In23  1  0.15280190  0.66023952  0.87281567  1
  In  In24  1  0.50400491  0.00124532  0.37807096  1
  In  In25  1  0.50017006  -0.00043765  0.87613038  1
  In  In26  1  0.48640925  0.34308763  0.38555775  1
  In  In27  1  0.49955942  0.32773513  0.87567907  1
  In  In28  1  0.50220354  0.66424208  0.38409704  1
  In  In29  1  0.51793820  0.66444220  0.89101366  1
  In  In30  1  0.82582850  0.00255296  0.37033149  1
  In  In31  1  0.82989419  0.01998072  0.87087357  1
  In  In32  1  0.83656986  0.32064301  0.37109241  1
  In  In33  1  0.83332198  0.32980288  0.86877920  1
  In  In34  1  0.84747684  0.67316482  0.37767612  1
  In  In35  1  0.82858096  0.65112978  0.87360459  1
  In  In36  1  0.01922195  0.17869048  0.35522948  1
  In  In37  1  -0.01882410  0.18108807  0.88350131  1
  In  In38  1  0.01178502  0.50079508  0.37256840  1
  In  In39  1  -0.00357583  0.49110663  0.87625991  1
  In  In40  1  -0.00785503  0.83390654  0.37751399  1
  In  In41  1  0.01028329  0.83242537  0.86895850  1
  In  In42  1  0.34228353  0.17662701  0.36966285  1
  In  In43  1  0.34249020  0.17349532  0.87200231  1
  In  In44  1  0.33425497  0.49837926  0.37706195  1
  In  In45  1  0.34625761  0.49105164  0.88189597  1
  In  In46  1  0.33913980  0.84611528  0.37312436  1
  In  In47  1  0.34100560  0.84612445  0.87183639  1
  In  In48  1  0.66623512  0.15392803  0.37643089  1
  In  In49  1  0.66589424  0.16019847  0.86925381  1
  In  In50  1  0.65800113  0.48570937  0.37589197  1
  In  In51  1  0.68211591  0.48946276  0.88667462  1
  In  In52  1  0.65838675  0.84372464  0.38532377  1
  In  In53  1  0.65248978  0.82745637  0.87426034  1
  In  In54  1  0.16085528  0.01327759  0.15011620  1
  In  In55  1  0.16902806  0.01758200  0.62418055  1
  In  In56  1  0.15329346  0.34660969  0.14430407  1
  In  In57  1  0.16196991  0.33997296  0.63129921  1
  In  In58  1  0.17437160  0.65703589  0.12295755  1
  In  In59  1  0.16788558  0.64880189  0.62283580  1
  In  In60  1  0.50088174  0.00917720  0.12653102  1
  In  In61  1  0.50014408  -0.00001142  0.62629397  1
  In  In62  1  0.48981304  0.32559631  0.11910908  1
  In  In63  1  0.49565167  0.32895754  0.62974430  1
  In  In64  1  0.49636768  0.66447644  0.11113551  1
  In  In65  1  0.49818339  0.66103944  0.61763868  1
  In  In66  1  0.81895906  0.00945588  0.12708333  1
  In  In67  1  0.82948106  -0.01573171  0.62806172  1
  In  In68  1  0.85029402  0.33904430  0.10631087  1
  In  In69  1  0.83193895  0.32912699  0.64347549  1
  In  In70  1  0.84132390  0.65770630  0.11906409  1
  In  In71  1  0.83335945  0.68921615  0.63404013  1
  In  In72  1  0.00066872  0.00763577  0.75253049  1
  In  In73  1  0.33077866  0.66791165  0.24954983  1
  In  In74  1  0.83161068  0.16163269  0.50312992  1
  In  In75  1  0.66536551  0.32307953  0.24226796  1
  In  In76  1  0.17229577  0.17489792  0.48640013  1
  In  In77  1  0.82585050  0.50782514  0.50521164  1
  In  In78  1  0.16542331  0.83534689  0.48932520  1
  In  In79  1  0.66682035  0.67049355  0.24434622  1
  In  In80  1  0.66925195  0.66596227  0.75468919  1
  In  In81  1  0.00211892  0.67127703  0.24739660  1
  In  In82  1  0.82226089  0.82619615  -0.00572362  1
  In  In83  1  0.16421909  0.17556296  0.00589345  1
  In  In84  1  0.33525558  0.66822705  0.74474952  1
  In  In85  1  0.17697252  0.83134722  0.00959878  1
  Cu  Cu86  1  0.65947941  0.00586944  -0.00145817  1
  Cu  Cu87  1  0.83806975  0.49067208  0.23811348  1
  Cu  Cu88  1  0.49125739  0.49574081  0.24914960  1
  Cu  Cu89  1  0.33203422  0.33193218  0.50187567  1
  Cu  Cu90  1  0.66601316  0.32491893  -0.00757785  1
  Cu  Cu91  1  0.50495548  0.16813451  0.24951081  1
  Cu  Cu92  1  -0.00398704  0.00048105  0.00279495  1
  Cu  Cu93  1  0.49602272  0.16183670  0.75321152  1
  Cu  Cu94  1  0.33653141  0.66011841  0.50049877  1
  Cu  Cu95  1  -0.00258807  0.65319557  -0.00450234  1
  Cu  Cu96  1  -0.00059308  0.34327741  0.50157646  1
  Cu  Cu97  1  0.33963204  0.00553230  0.00427773  1
  Cu  Cu98  1  0.33059383  0.66695194  -0.00183947  1
  Cu  Cu99  1  -0.00093561  0.66808365  0.50213922  1
  Cu  Cu100  1  0.50279504  0.48620476  0.75448230  1
  Cu  Cu101  1  0.82724102  0.84065420  0.25195018  1
  Cu  Cu102  1  0.83813734  0.49920460  0.75667466  1
  Cu  Cu103  1  0.66885069  0.66834220  0.50578313  1
  Cu  Cu104  1  0.50591280  0.84598071  0.25078488  1
  Cu  Cu105  1  0.16876818  0.17159545  0.75379518  1
  Cu  Cu106  1  0.33593111  0.33274860  0.00087061  1
  Cu  Cu107  1  -0.00542665  0.00192318  0.49127544  1
  Cu  Cu108  1  0.65487305  0.33092781  0.50758204  1
  Cu  Cu109  1  0.83986670  0.16659462  0.24463747  1
  Cu  Cu110  1  0.66306353  -0.00180485  0.50261316  1
  Cu  Cu111  1  0.34235115  -0.00374988  0.50033152  1
  Cu  Cu112  1  0.49989176  0.83578707  0.75037990  1
  Cu  Cu113  1  0.16853526  0.83534830  0.74864282  1
  Cu  Cu114  1  0.16672901  0.49837232  0.75174720  1
  Se  Se115  1  0.08254298  0.07264774  0.06242297  1
  Se  Se116  1  0.07593696  0.08455777  0.54880583  1
  Se  Se117  1  0.09454834  0.40848165  0.05553338  1
  Se  Se118  1  0.08629972  0.42061079  0.55613012  1
  Se  Se119  1  0.07330018  0.73803728  0.05721924  1
  Se  Se120  1  0.08278658  0.74961911  0.56012395  1
  Se  Se121  1  0.41847627  0.09333842  0.05721162  1
  Se  Se122  1  0.41748660  0.08409159  0.55596282  1
  Se  Se123  1  0.42026353  0.42116861  0.05152346  1
  Se  Se124  1  0.41631966  0.41306104  0.55768247  1
  Se  Se125  1  0.40654171  0.75451688  0.05362844  1
  Se  Se126  1  0.41995264  0.74763733  0.54867691  1
  Se  Se127  1  0.75033371  0.08586261  0.04788160  1
  Se  Se128  1  0.74012170  0.07864300  0.56569927  1
  Se  Se129  1  0.74902969  0.41064097  0.04536270  1
  Se  Se130  1  0.74647051  0.40517851  0.56353793  1
  Se  Se131  1  0.73970005  0.74226772  0.06344668  1
  Se  Se132  1  0.75291204  0.75326089  0.55502020  1
  Se  Se133  1  0.25714145  0.25860440  0.06662362  1
  Se  Se134  1  0.25241837  0.25101879  0.56312302  1
  Se  Se135  1  0.24750739  0.57968878  0.04766499  1
  Se  Se136  1  0.24842191  0.57705172  0.54825773  1
  Se  Se137  1  0.25271076  0.93467291  0.06688696  1
  Se  Se138  1  0.25195307  0.92275249  0.55778182  1
  Se  Se139  1  0.57979484  0.25049032  0.05095396  1
  Se  Se140  1  0.57719170  0.24300180  0.55999813  1
  Se  Se141  1  0.58263363  0.58665469  0.04495115  1
  Se  Se142  1  0.58725978  0.57846507  0.55352225  1
  Se  Se143  1  0.57803273  0.92323377  0.05380476  1
  Se  Se144  1  0.57849758  0.91409354  0.55518871  1
  Se  Se145  1  0.92141406  0.23788218  0.04705146  1
  Se  Se146  1  0.91970265  0.26169825  0.55955006  1
  Se  Se147  1  0.91213148  0.57165854  0.04794186  1
  Se  Se148  1  0.91954178  0.59098820  0.56620596  1
  Se  Se149  1  0.91240716  0.91637628  0.05692620  1
  Se  Se150  1  0.91520108  0.92188474  0.54937114  1
  Se  Se151  1  0.07645532  0.26761023  0.43676861  1
  Se  Se152  1  0.07598921  0.26478391  0.94509182  1
  Se  Se153  1  0.07967334  0.57996043  0.45170332  1
  Se  Se154  1  0.08561533  0.57255109  0.94522221  1
  Se  Se155  1  0.08456167  0.93300956  0.43093610  1
  Se  Se156  1  0.08087897  0.92029981  0.94741659  1
  Se  Se157  1  0.41561171  0.24580244  0.45095298  1
  Se  Se158  1  0.41812671  0.24693406  0.94915225  1
  Se  Se159  1  0.42004200  0.57551512  0.44723754  1
  Se  Se160  1  0.41880512  0.58520259  0.94790460  1
  Se  Se161  1  0.42472050  0.91237991  0.44757170  1
  Se  Se162  1  0.41685072  0.91828958  0.94902316  1
  Se  Se163  1  0.73947165  0.25745676  0.44521376  1
  Se  Se164  1  0.74964025  0.24450858  0.93770238  1
  Se  Se165  1  0.73999268  0.59197300  0.43485836  1
  Se  Se166  1  0.73524848  0.60024611  0.94771307  1
  Se  Se167  1  0.75340353  0.92285234  0.44749590  1
  Se  Se168  1  0.74151170  0.92722668  0.93687726  1
  Se  Se169  1  0.25992939  0.07212973  0.43786280  1
  Se  Se170  1  0.25363564  0.08115092  0.94430251  1
  Se  Se171  1  0.24932933  0.41167518  0.44324767  1
  Se  Se172  1  0.25271269  0.41666013  0.94809924  1
  Se  Se173  1  0.26043496  0.73985738  0.43585331  1
  Se  Se174  1  0.25357109  0.74671553  0.93432459  1
  Se  Se175  1  0.58217834  0.08549230  0.45078326  1
  Se  Se176  1  0.57778049  0.08918689  0.94350826  1
  Se  Se177  1  0.57811748  0.41934052  0.45314807  1
  Se  Se178  1  0.58095319  0.41323396  0.94455935  1
  Se  Se179  1  0.58415503  0.74958713  0.45013863  1
  Se  Se180  1  0.58090751  0.76384023  0.95619534  1
  Se  Se181  1  0.92371653  0.09202623  0.43202374  1
  Se  Se182  1  0.91383078  0.08271747  0.94929911  1
  Se  Se183  1  0.91196665  0.41662770  0.44106712  1
  Se  Se184  1  0.89694288  0.42426260  0.94037182  1
  Se  Se185  1  0.91557132  0.75528938  0.45345436  1
  Se  Se186  1  0.92644775  0.74429101  0.93845614  1
  Se  Se187  1  0.22745687  0.22390742  0.31073254  1
  Se  Se188  1  0.25448464  0.25388314  0.80570551  1
  Se  Se189  1  0.23934045  0.57590898  0.30611204  1
  Se  Se190  1  0.25178347  0.57803917  0.80993050  1
  Se  Se191  1  0.25535012  0.90682768  0.29731459  1
  Se  Se192  1  0.25360499  0.91763382  0.79945864  1
  Se  Se193  1  0.57748396  0.25007613  0.31542171  1
  Se  Se194  1  0.58009755  0.24745929  0.80393946  1
  Se  Se195  1  0.57672876  0.57588839  0.30486050  1
  Se  Se196  1  0.57984999  0.57307721  0.81250303  1
  Se  Se197  1  0.59124054  0.92306514  0.30676139  1
  Se  Se198  1  0.58323276  0.91820009  0.80405406  1
  Se  Se199  1  0.91975908  0.25552776  0.29549825  1
  Se  Se200  1  0.91692988  0.24773641  0.79968591  1
  Se  Se201  1  0.90771901  0.57540542  0.30358380  1
  Se  Se202  1  0.92317503  0.58405138  0.80544868  1
  Se  Se203  1  0.91386739  0.91708220  0.30671845  1
  Se  Se204  1  0.91239906  0.91574182  0.81148415  1
  Se  Se205  1  0.06212992  0.06102576  0.29926862  1
  Se  Se206  1  0.08845849  0.09446843  0.81802145  1
  Se  Se207  1  0.07216909  0.41032794  0.30089775  1
  Se  Se208  1  0.08422823  0.41441381  0.80564553  1
  Se  Se209  1  0.09150205  0.75915948  0.30963700  1
  Se  Se210  1  0.08691266  0.74854628  0.79821529  1
  Se  Se211  1  0.42445915  0.08514270  0.30753724  1
  Se  Se212  1  0.41227338  0.07697764  0.80590804  1
  Se  Se213  1  0.41206865  0.41328921  0.30533395  1
  Se  Se214  1  0.41266143  0.40821600  0.80519799  1
  Se  Se215  1  0.43147970  0.75332040  0.30673932  1
  Se  Se216  1  0.42758511  0.74758329  0.81117174  1
  Se  Se217  1  0.75083204  0.09052348  0.29959556  1
  Se  Se218  1  0.74971853  0.08693308  0.79467961  1
  Se  Se219  1  0.75534320  0.41905645  0.30363287  1
  Se  Se220  1  0.74598656  0.41797787  0.80283010  1
  Se  Se221  1  0.75339368  0.75464673  0.31179606  1
  Se  Se222  1  0.75929283  0.75874937  0.81108127  1
  Se  Se223  1  0.26452842  0.07915488  0.20808031  1
  Se  Se224  1  0.24850306  0.08280077  0.70229479  1
  Se  Se225  1  0.25813070  0.41699993  0.20167104  1
  Se  Se226  1  0.25268425  0.41648022  0.69884338  1
  Se  Se227  1  0.24010554  0.75825774  0.18982060  1
  Se  Se228  1  0.24409465  0.75750075  0.68280236  1
  Se  Se229  1  0.58975624  0.08779223  0.19569119  1
  Se  Se230  1  0.58004229  0.07879806  0.69925255  1
  Se  Se231  1  0.57758353  0.42243794  0.18844843  1
  Se  Se232  1  0.58672542  0.40565989  0.69951431  1
  Se  Se233  1  0.57318563  0.75850200  0.18649316  1
  Se  Se234  1  0.57536236  0.74932807  0.69073816  1
  Se  Se235  1  0.91794113  0.07765740  0.19160761  1
  Se  Se236  1  0.91227520  0.08878504  0.68545287  1
  Se  Se237  1  0.92269643  0.40879760  0.18817853  1
  Se  Se238  1  0.92147399  0.41551220  0.70253530  1
  Se  Se239  1  0.90396805  0.75991714  0.18947445  1
  Se  Se240  1  0.92595740  0.75390152  0.70282958  1
  Se  Se241  1  0.10248147  0.22693011  0.19411288  1
  Se  Se242  1  0.08321503  0.25357124  0.70115692  1
  Se  Se243  1  0.08575869  0.57500449  0.19015358  1
  Se  Se244  1  0.08455348  0.58429066  0.69958939  1
  Se  Se245  1  0.08393621  0.90854088  0.20197688  1
  Se  Se246  1  0.08897435  0.91738838  0.68700908  1
  Se  Se247  1  0.41950704  0.25364348  0.20007785  1
  Se  Se248  1  0.41290806  0.24868820  0.70089564  1
  Se  Se249  1  0.41853398  0.57921456  0.18626640  1
  Se  Se250  1  0.42670185  0.57022666  0.69291328  1
  Se  Se251  1  0.41944092  0.92637175  0.19854016  1
  Se  Se252  1  0.41456709  0.91760876  0.69705498  1
  Se  Se253  1  0.76211654  0.24643293  0.18045404  1
  Se  Se254  1  0.75457877  0.24014675  0.70698686  1
  Se  Se255  1  0.75078140  0.57084132  0.18577849  1
  Se  Se256  1  0.75918074  0.57623563  0.69069576  1
  Se  Se257  1  0.74353500  0.92366523  0.19939561  1
  Se  Se258  1  0.75164275  0.90593829  0.69989900  1
