# generated using pymatgen
data_In86Cu29Se144
_symmetry_space_group_name_H-M   'P 1'
_cell_length_a   17.58261037
_cell_length_b   17.57811684
_cell_length_c   23.44289140
_cell_angle_alpha   90.00437776
_cell_angle_beta   89.98275850
_cell_angle_gamma   89.97749825
_symmetry_Int_Tables_number   1
_chemical_formula_structural   In86Cu29Se144
_chemical_formula_sum   'In86 Cu29 Se144'
_cell_volume   7245.47430026
_cell_formula_units_Z   1
loop_
 _symmetry_equiv_pos_site_id
 _symmetry_equiv_pos_as_xyz
  1  'x, y, z'
loop_
 _atom_site_type_symbol
 _atom_site_label
 _atom_site_symmetry_multiplicity
 _atom_site_fract_x
 _atom_site_fract_y
 _atom_site_fract_z
 _atom_site_occupancy
  In  In0  1  -0.01523920  0.15900798  0.12593969  1
  In  In1  1  0.00325870  0.16600875  0.63386765  1
  In  In2  1  -0.00008089  0.51040861  0.11797009  1
  In  In3  1  -0.00500972  0.50539991  0.62234942  1
  In  In4  1  0.00628328  0.83642959  0.11641124  1
  In  In5  1  0.01021868  0.82301577  0.62742664  1
  In  In6  1  0.34394895  0.17607961  0.12270678  1
  In  In7  1  0.32344058  0.16185806  0.62804710  1
  In  In8  1  0.33962033  0.49358702  0.13135428  1
  In  In9  1  0.34730055  0.51846437  0.62161512  1
  In  In10  1  0.32166930  0.81721208  0.10912576  1
  In  In11  1  0.33244159  0.82713569  0.63034257  1
  In  In12  1  0.67933207  0.17472421  0.12566806  1
  In  In13  1  0.66571191  0.16780422  0.63133112  1
  In  In14  1  0.66157394  0.49591237  0.12183527  1
  In  In15  1  0.66554554  0.50388162  0.62623971  1
  In  In16  1  0.65524450  0.81878557  0.10918782  1
  In  In17  1  0.66277467  0.83119610  0.63206505  1
  In  In18  1  0.15717201  -0.00359909  0.37745425  1
  In  In19  1  0.15373913  -0.01525522  0.86677261  1
  In  In20  1  0.17454870  0.33419795  0.37328317  1
  In  In21  1  0.15902303  0.34844099  0.87279854  1
  In  In22  1  0.17582179  0.65734214  0.38999085  1
  In  In23  1  0.17822510  0.67856276  0.86639779  1
  In  In24  1  0.49578297  -0.00886485  0.37969104  1
  In  In25  1  0.48590341  -0.01113840  0.86182398  1
  In  In26  1  0.51205865  0.35267790  0.36511324  1
  In  In27  1  0.51221299  0.33220232  0.87640595  1
  In  In28  1  0.49753348  0.67291294  0.38436497  1
  In  In29  1  0.49917413  0.66148968  0.87630561  1
  In  In30  1  0.84352979  -0.01171859  0.37689473  1
  In  In31  1  0.82642411  -0.00680776  0.86333273  1
  In  In32  1  0.83030785  0.34636235  0.37777886  1
  In  In33  1  0.84170178  0.34778583  0.87008083  1
  In  In34  1  0.82109070  0.65479638  0.38290616  1
  In  In35  1  0.83267914  0.66419198  0.86824538  1
  In  In36  1  0.01170458  0.15716772  0.37432233  1
  In  In37  1  0.00086564  0.16777059  0.86746009  1
  In  In38  1  -0.00173899  0.50833648  0.39480760  1
  In  In39  1  -0.01238965  0.49230273  0.86604482  1
  In  In40  1  0.00554492  0.84650757  0.37829617  1
  In  In41  1  -0.00093182  0.82862005  0.87044856  1
  In  In42  1  0.32041126  0.17151018  0.37248104  1
  In  In43  1  0.34788750  0.16535027  0.87461791  1
  In  In44  1  0.33347578  0.50506577  0.37600551  1
  In  In45  1  0.33496212  0.51884249  0.88140118  1
  In  In46  1  0.34403477  0.82049751  0.38281340  1
  In  In47  1  0.32944531  0.82344956  0.87800029  1
  In  In48  1  0.65482770  0.17472923  0.37751667  1
  In  In49  1  0.67083629  0.17242331  0.86385375  1
  In  In50  1  0.67388360  0.48745952  0.39400294  1
  In  In51  1  0.66697655  0.50092349  0.87164186  1
  In  In52  1  0.66079263  0.82120411  0.38181101  1
  In  In53  1  0.66747309  0.83005680  0.86923582  1
  In  In54  1  0.16819239  -0.01724686  0.12266752  1
  In  In55  1  0.17024115  -0.00754792  0.63251759  1
  In  In56  1  0.17434156  0.34826219  0.12524093  1
  In  In57  1  0.15368347  0.33772106  0.62831563  1
  In  In58  1  0.16446084  0.67918907  0.12459244  1
  In  In59  1  0.16307314  0.67126542  0.62322197  1
  In  In60  1  0.50655573  -0.00605099  0.12067917  1
  In  In61  1  0.50927820  -0.01633808  0.63616021  1
  In  In62  1  0.48880570  0.35648706  0.13425349  1
  In  In63  1  0.51084105  0.35422071  0.61943177  1
  In  In64  1  0.48192942  0.64764281  0.10532132  1
  In  In65  1  0.49883747  0.66517836  0.63261968  1
  In  In66  1  0.84217896  0.00138867  0.12313835  1
  In  In67  1  0.84037049  -0.01013984  0.63615128  1
  In  In68  1  0.82363689  0.32843463  0.12386772  1
  In  In69  1  0.81739439  0.35370146  0.63246155  1
  In  In70  1  0.82878901  0.66408815  0.10920595  1
  In  In71  1  0.84157944  0.65443680  0.62778359  1
  In  In72  1  0.83363137  0.16873701  -0.00136312  1
  In  In73  1  0.00219565  0.67309437  0.25307427  1
  In  In74  1  0.83730492  0.16696966  0.49797524  1
  In  In75  1  0.66233084  0.66528644  0.25330230  1
  In  In76  1  0.16725558  0.50722825  -0.00426891  1
  In  In77  1  0.50671360  0.16657051  -0.00089145  1
  In  In78  1  0.16694703  0.16578225  -0.00314818  1
  In  In79  1  0.49443856  0.17132120  0.50593859  1
  In  In80  1  0.33504186  0.00355288  0.25000831  1
  In  In81  1  0.33459328  0.33386142  0.74889713  1
  In  In82  1  0.00296567  0.33334163  0.25195851  1
  In  In83  1  0.67290897  0.00312478  0.24339921  1
  In  In84  1  0.16760030  0.16763308  0.49956047  1
  In  In85  1  0.83976710  0.82165363  0.51124754  1
  Cu  Cu86  1  0.33273156  0.34270056  0.49399879  1
  Cu  Cu87  1  0.83470187  0.16878597  0.74814975  1
  Cu  Cu88  1  -0.00783384  0.33884712  0.50824751  1
  Cu  Cu89  1  0.33273037  0.66851562  0.50584926  1
  Cu  Cu90  1  0.83065776  0.49715023  0.25310439  1
  Cu  Cu91  1  0.33640404  -0.01524714  0.50639985  1
  Cu  Cu92  1  0.17508006  0.50369041  0.25713056  1
  Cu  Cu93  1  0.83143277  0.16612269  0.25075724  1
  Cu  Cu94  1  0.67143006  0.66699466  -0.01157730  1
  Cu  Cu95  1  -0.00137296  -0.01000354  -0.00449451  1
  Cu  Cu96  1  0.83228719  0.49868341  0.74728709  1
  Cu  Cu97  1  0.16959203  0.83599057  0.24689472  1
  Cu  Cu98  1  0.83910950  0.83689130  0.24686842  1
  Cu  Cu99  1  0.49645102  0.82800249  0.75409630  1
  Cu  Cu100  1  0.16196876  0.50563908  0.74778437  1
  Cu  Cu101  1  0.16761022  0.16081491  0.75151474  1
  Cu  Cu102  1  0.83256121  0.82962719  0.74930114  1
  Cu  Cu103  1  0.16746546  0.82870946  0.74889885  1
  Cu  Cu104  1  0.49914098  0.18176509  0.24994440  1
  Cu  Cu105  1  0.49686156  0.83068759  0.25029818  1
  Cu  Cu106  1  0.50097353  0.16633907  0.74727467  1
  Cu  Cu107  1  -0.00401434  0.66511240  -0.00930759  1
  Cu  Cu108  1  0.66785971  -0.00679557  0.51017293  1
  Cu  Cu109  1  0.66482383  -0.00671366  -0.01361512  1
  Cu  Cu110  1  0.50362158  0.50200132  0.74950880  1
  Cu  Cu111  1  0.16524058  0.16644045  0.24979832  1
  Cu  Cu112  1  0.49900595  0.50536664  0.25146513  1
  Cu  Cu113  1  0.33060636  -0.01017443  -0.00778872  1
  Cu  Cu114  1  0.66577071  0.34500238  0.00088426  1
  Se  Se115  1  0.07459730  0.07392743  0.05727544  1
  Se  Se116  1  0.08215356  0.07956898  0.56159984  1
  Se  Se117  1  0.07744864  0.41123747  0.05468095  1
  Se  Se118  1  0.08337437  0.42014447  0.55461751  1
  Se  Se119  1  0.07924443  0.74439094  0.04884742  1
  Se  Se120  1  0.08210926  0.74900238  0.55000138  1
  Se  Se121  1  0.40751180  0.07244891  0.05344659  1
  Se  Se122  1  0.41250984  0.07213498  0.56403854  1
  Se  Se123  1  0.42212085  0.42714058  0.05387961  1
  Se  Se124  1  0.41288581  0.41961846  0.55372867  1
  Se  Se125  1  0.44090809  0.77201125  0.05678929  1
  Se  Se126  1  0.41797237  0.74868393  0.56066365  1
  Se  Se127  1  0.73896207  0.07285393  0.05341128  1
  Se  Se128  1  0.75083472  0.07616896  0.56302701  1
  Se  Se129  1  0.75535143  0.42060154  0.05511148  1
  Se  Se130  1  0.75045956  0.42708108  0.55382538  1
  Se  Se131  1  0.75289535  0.75344898  0.04259731  1
  Se  Se132  1  0.74105164  0.73761925  0.56437009  1
  Se  Se133  1  0.25692978  0.25902080  0.05472678  1
  Se  Se134  1  0.25717595  0.26199830  0.55808469  1
  Se  Se135  1  0.25305466  0.58720091  0.06441665  1
  Se  Se136  1  0.24765361  0.58353115  0.55621541  1
  Se  Se137  1  0.24319330  0.91084396  0.04557160  1
  Se  Se138  1  0.24782441  0.91039495  0.56066778  1
  Se  Se139  1  0.58980249  0.26007375  0.06190919  1
  Se  Se140  1  0.59525274  0.25777269  0.55619526  1
  Se  Se141  1  0.59425457  0.58671603  0.05082792  1
  Se  Se142  1  0.55452612  0.56076811  0.56607732  1
  Se  Se143  1  0.58182006  0.91742589  0.04618341  1
  Se  Se144  1  0.58173085  0.90913130  0.55748991  1
  Se  Se145  1  0.92640365  0.25967749  0.05605433  1
  Se  Se146  1  0.91724197  0.25449229  0.56681019  1
  Se  Se147  1  0.91548135  0.57994394  0.04490912  1
  Se  Se148  1  0.91998628  0.58779290  0.54925812  1
  Se  Se149  1  0.91171093  0.91341183  0.05182009  1
  Se  Se150  1  0.92716133  0.92264454  0.56027223  1
  Se  Se151  1  0.07222777  0.26181575  0.44355802  1
  Se  Se152  1  0.07533629  0.25760227  0.94092790  1
  Se  Se153  1  0.07851333  0.59476588  0.45763772  1
  Se  Se154  1  0.07789355  0.58796545  0.92969356  1
  Se  Se155  1  0.08918565  0.91534692  0.45201764  1
  Se  Se156  1  0.08334024  0.90693007  0.94421458  1
  Se  Se157  1  0.40963038  0.25548999  0.43733563  1
  Se  Se158  1  0.41253095  0.26040054  0.94612880  1
  Se  Se159  1  0.41305649  0.58522096  0.44813948  1
  Se  Se160  1  0.41889886  0.58906584  0.95324457  1
  Se  Se161  1  0.42386029  0.90794931  0.45152193  1
  Se  Se162  1  0.41957077  0.91146055  0.94109837  1
  Se  Se163  1  0.74203284  0.25767025  0.44492289  1
  Se  Se164  1  0.74206583  0.25915173  0.94095736  1
  Se  Se165  1  0.73177843  0.59448766  0.45510099  1
  Se  Se166  1  0.75502879  0.57925369  0.94016105  1
  Se  Se167  1  0.74752183  0.91738581  0.44586422  1
  Se  Se168  1  0.75409606  0.91260042  0.93854658  1
  Se  Se169  1  0.26226139  0.07103292  0.44522545  1
  Se  Se170  1  0.25378983  0.07540374  0.93435713  1
  Se  Se171  1  0.24400915  0.42273718  0.44351453  1
  Se  Se172  1  0.25920685  0.41131871  0.94093616  1
  Se  Se173  1  0.25070572  0.75466179  0.45247351  1
  Se  Se174  1  0.24983483  0.74172671  0.94902585  1
  Se  Se175  1  0.58912284  0.07413758  0.44786107  1
  Se  Se176  1  0.58640607  0.07884055  0.93041389  1
  Se  Se177  1  0.57327628  0.41250228  0.45212540  1
  Se  Se178  1  0.58177738  0.42359201  0.94529604  1
  Se  Se179  1  0.58319501  0.74879042  0.45466655  1
  Se  Se180  1  0.58462742  0.75121840  0.94039027  1
  Se  Se181  1  0.93115920  0.07184413  0.44623117  1
  Se  Se182  1  0.92056166  0.07551789  0.93834869  1
  Se  Se183  1  0.90884025  0.41975502  0.45269690  1
  Se  Se184  1  0.92021216  0.41695329  0.94617040  1
  Se  Se185  1  0.91985045  0.74504874  0.43503872  1
  Se  Se186  1  0.91220050  0.74976507  0.93922949  1
  Se  Se187  1  0.24834867  0.25337061  0.29816177  1
  Se  Se188  1  0.24452121  0.24496239  0.81268690  1
  Se  Se189  1  0.25228381  0.59368875  0.30792646  1
  Se  Se190  1  0.25111349  0.57996431  0.80270640  1
  Se  Se191  1  0.25071231  0.91126683  0.31138751  1
  Se  Se192  1  0.25120123  0.90940721  0.80576621  1
  Se  Se193  1  0.58927853  0.25769345  0.30146583  1
  Se  Se194  1  0.58164344  0.25360907  0.79890421  1
  Se  Se195  1  0.57987283  0.57632195  0.31736403  1
  Se  Se196  1  0.58548274  0.58650193  0.80381853  1
  Se  Se197  1  0.58207896  0.91134327  0.30537826  1
  Se  Se198  1  0.58442103  0.91571923  0.80047836  1
  Se  Se199  1  0.91214645  0.24328969  0.31403766  1
  Se  Se200  1  0.91497213  0.25243185  0.80385598  1
  Se  Se201  1  0.91270414  0.57703350  0.31068576  1
  Se  Se202  1  0.91732246  0.58457402  0.79730081  1
  Se  Se203  1  0.92288012  0.91702302  0.30087477  1
  Se  Se204  1  0.91874052  0.91392119  0.80026923  1
  Se  Se205  1  0.08643059  0.07788492  0.30037511  1
  Se  Se206  1  0.07964422  0.07890252  0.80172749  1
  Se  Se207  1  0.08299184  0.43109419  0.31400128  1
  Se  Se208  1  0.07953018  0.41688312  0.79655451  1
  Se  Se209  1  0.09540136  0.75651675  0.31294628  1
  Se  Se210  1  0.08054830  0.74569827  0.79991482  1
  Se  Se211  1  0.42814186  0.09427663  0.31113247  1
  Se  Se212  1  0.41256284  0.08505530  0.79653464  1
  Se  Se213  1  0.41158867  0.42109529  0.30304537  1
  Se  Se214  1  0.42153733  0.42276921  0.81163000  1
  Se  Se215  1  0.41933465  0.74579246  0.30580097  1
  Se  Se216  1  0.41378190  0.74413892  0.80725350  1
  Se  Se217  1  0.75500853  0.08735877  0.31608887  1
  Se  Se218  1  0.74854357  0.08373006  0.79771262  1
  Se  Se219  1  0.74401192  0.42105492  0.30784789  1
  Se  Se220  1  0.74788855  0.41553057  0.80141010  1
  Se  Se221  1  0.75991909  0.75799166  0.30835428  1
  Se  Se222  1  0.74738600  0.74538301  0.79951159  1
  Se  Se223  1  0.24449577  0.08997570  0.18492925  1
  Se  Se224  1  0.25287468  0.07813392  0.70082012  1
  Se  Se225  1  0.25225076  0.41694655  0.20236416  1
  Se  Se226  1  0.24782940  0.42582626  0.68874114  1
  Se  Se227  1  0.25327022  0.75233887  0.19484285  1
  Se  Se228  1  0.24986732  0.74196680  0.69782686  1
  Se  Se229  1  0.57478447  0.09669773  0.18955736  1
  Se  Se230  1  0.58594847  0.08054938  0.69760657  1
  Se  Se231  1  0.58776971  0.42231078  0.20070903  1
  Se  Se232  1  0.58812522  0.41645718  0.70032796  1
  Se  Se233  1  0.57401819  0.74940552  0.18858069  1
  Se  Se234  1  0.58284943  0.74692819  0.70160288  1
  Se  Se235  1  0.91375456  0.07874181  0.20150297  1
  Se  Se236  1  0.91957803  0.08173970  0.69992699  1
  Se  Se237  1  0.91440013  0.42382072  0.19040807  1
  Se  Se238  1  0.92124938  0.41709336  0.69519858  1
  Se  Se239  1  0.90965558  0.75033806  0.18540646  1
  Se  Se240  1  0.91591472  0.74922819  0.69349698  1
  Se  Se241  1  0.08770506  0.24433772  0.18523018  1
  Se  Se242  1  0.08691269  0.24971555  0.70116532  1
  Se  Se243  1  0.09154065  0.57714163  0.19420544  1
  Se  Se244  1  0.07952715  0.58665901  0.69216835  1
  Se  Se245  1  0.08032437  0.91379929  0.19481719  1
  Se  Se246  1  0.08116273  0.91353472  0.69891635  1
  Se  Se247  1  0.41220437  0.25953585  0.19688269  1
  Se  Se248  1  0.42520355  0.24827506  0.68365753  1
  Se  Se249  1  0.41867318  0.58803665  0.19477322  1
  Se  Se250  1  0.41309813  0.58683018  0.70559898  1
  Se  Se251  1  0.41919862  0.91141767  0.18859779  1
  Se  Se252  1  0.41284152  0.91298669  0.70085007  1
  Se  Se253  1  0.74999573  0.25424101  0.20232942  1
  Se  Se254  1  0.74987466  0.25246991  0.69646188  1
  Se  Se255  1  0.75824383  0.58185987  0.19100401  1
  Se  Se256  1  0.74854312  0.58470239  0.69703409  1
  Se  Se257  1  0.75106065  0.90388202  0.18321981  1
  Se  Se258  1  0.74627155  0.91529237  0.69980276  1
