# generated using pymatgen
data_In86Cu29Se144
_symmetry_space_group_name_H-M   'P 1'
_cell_length_a   17.57898514
_cell_length_b   17.58223011
_cell_length_c   23.43989022
_cell_angle_alpha   89.98451402
_cell_angle_beta   90.00702091
_cell_angle_gamma   89.99227539
_symmetry_Int_Tables_number   1
_chemical_formula_structural   In86Cu29Se144
_chemical_formula_sum   'In86 Cu29 Se144'
_cell_volume   7244.74841945
_cell_formula_units_Z   1
loop_
 _symmetry_equiv_pos_site_id
 _symmetry_equiv_pos_as_xyz
  1  'x, y, z'
loop_
 _atom_site_type_symbol
 _atom_site_label
 _atom_site_symmetry_multiplicity
 _atom_site_fract_x
 _atom_site_fract_y
 _atom_site_fract_z
 _atom_site_occupancy
  In  In0  1  0.00386565  0.16701115  0.12972536  1
  In  In1  1  0.01600751  0.16953501  0.62266838  1
  In  In2  1  -0.01001321  0.48140787  0.11800053  1
  In  In3  1  -0.01098613  0.49749444  0.62922648  1
  In  In4  1  0.02192646  0.83544710  0.12987617  1
  In  In5  1  0.00916829  0.82870802  0.62198961  1
  In  In6  1  0.31838565  0.17849947  0.13311183  1
  In  In7  1  0.31706812  0.16123489  0.61509534  1
  In  In8  1  0.32806142  0.50581140  0.12792967  1
  In  In9  1  0.34225852  0.50959709  0.62748685  1
  In  In10  1  0.32937026  0.83306440  0.12979060  1
  In  In11  1  0.33611933  0.83468527  0.62357592  1
  In  In12  1  0.67103463  0.16382570  0.12484114  1
  In  In13  1  0.64898361  0.16624963  0.62133190  1
  In  In14  1  0.67651620  0.48382519  0.12629993  1
  In  In15  1  0.67090390  0.49929712  0.63302877  1
  In  In16  1  0.66327456  0.84900303  0.12208175  1
  In  In17  1  0.64974202  0.84532258  0.63092936  1
  In  In18  1  0.17743043  0.00033903  0.37085450  1
  In  In19  1  0.17492203  -0.00888565  0.88593744  1
  In  In20  1  0.16505935  0.32061046  0.37297104  1
  In  In21  1  0.16366108  0.34431590  0.88741717  1
  In  In22  1  0.18479499  0.67183072  0.36758471  1
  In  In23  1  0.17590952  0.66078494  0.88065855  1
  In  In24  1  0.49812836  0.00109406  0.37337521  1
  In  In25  1  0.48486247  -0.00695167  0.86891111  1
  In  In26  1  0.48297932  0.31169480  0.35888577  1
  In  In27  1  0.49849526  0.33466134  0.88061252  1
  In  In28  1  0.49398227  0.68590761  0.38018985  1
  In  In29  1  0.51169924  0.67231422  0.86659266  1
  In  In30  1  0.83773313  0.00789849  0.36317086  1
  In  In31  1  0.83420362  0.01440597  0.87743138  1
  In  In32  1  0.83506649  0.33888825  0.35940723  1
  In  In33  1  0.84057669  0.31641639  0.88960543  1
  In  In34  1  0.83926945  0.66285998  0.37420710  1
  In  In35  1  0.81753667  0.66771143  0.87865559  1
  In  In36  1  0.01841632  0.18258501  0.36969908  1
  In  In37  1  -0.00492629  0.17298111  0.88276241  1
  In  In38  1  0.00203883  0.49018292  0.36700426  1
  In  In39  1  0.00998583  0.48768898  0.88333942  1
  In  In40  1  0.01314721  0.85333649  0.36373797  1
  In  In41  1  0.00778047  0.84539731  0.88000388  1
  In  In42  1  0.33744375  0.16571231  0.37505033  1
  In  In43  1  0.33551326  0.15479655  0.87934516  1
  In  In44  1  0.32599852  0.49248207  0.36179985  1
  In  In45  1  0.32181933  0.49909973  0.87393012  1
  In  In46  1  0.32986930  0.84151410  0.37021923  1
  In  In47  1  0.33463620  0.83551798  0.87728542  1
  In  In48  1  0.65589155  0.15650726  0.36626667  1
  In  In49  1  0.67919147  0.16874923  0.87583883  1
  In  In50  1  0.67425030  0.49238916  0.36949234  1
  In  In51  1  0.66060173  0.51068531  0.88075360  1
  In  In52  1  0.65036812  0.83600115  0.37699136  1
  In  In53  1  0.65232124  0.82908118  0.87158243  1
  In  In54  1  0.16783015  -0.00021178  0.13309666  1
  In  In55  1  0.18092806  0.00527941  0.61793642  1
  In  In56  1  0.16908110  0.32698730  0.12298247  1
  In  In57  1  0.16287330  0.32068283  0.62505771  1
  In  In58  1  0.17966715  0.67545878  0.11765626  1
  In  In59  1  0.17190832  0.68272575  0.62254616  1
  In  In60  1  0.50385156  -0.00806046  0.12766963  1
  In  In61  1  0.49532284  0.00052957  0.62331698  1
  In  In62  1  0.50132500  0.33154707  0.13325217  1
  In  In63  1  0.50230953  0.32703073  0.61687610  1
  In  In64  1  0.48147212  0.66597674  0.12293605  1
  In  In65  1  0.48107769  0.67538062  0.64104887  1
  In  In66  1  0.82639442  0.01169819  0.13150623  1
  In  In67  1  0.83074357  -0.00941034  0.62816967  1
  In  In68  1  0.83918548  0.33341119  0.12615634  1
  In  In69  1  0.83486472  0.34399150  0.62961990  1
  In  In70  1  0.84136008  0.65546844  0.11899037  1
  In  In71  1  0.82843784  0.65159003  0.63039476  1
  In  In72  1  0.66058778  0.66844993  0.25038642  1
  In  In73  1  0.16315477  0.49329506  0.49108392  1
  In  In74  1  0.66496847  0.33625818  0.75440227  1
  In  In75  1  0.49745281  0.16467559  0.00384381  1
  In  In76  1  0.84003823  0.83354691  0.00029079  1
  In  In77  1  -0.00045799  0.65727488  0.24471793  1
  In  In78  1  0.83710256  0.17190719  0.49681554  1
  In  In79  1  0.83434852  0.83544941  0.50371664  1
  In  In80  1  0.49732861  0.50185057  0.00127037  1
  In  In81  1  -0.00054823  0.66731930  0.74968505  1
  In  In82  1  0.49993838  0.49918640  0.50200185  1
  In  In83  1  0.33072971  0.33357793  0.75184633  1
  In  In84  1  -0.00199469  0.00325605  0.75261576  1
  In  In85  1  0.83340168  0.49884380  0.49516798  1
  Cu  Cu86  1  0.49437597  0.83876105  0.25292680  1
  Cu  Cu87  1  0.16691094  0.16555643  0.74940074  1
  Cu  Cu88  1  0.33682150  -0.00276734  0.49563726  1
  Cu  Cu89  1  0.49979856  0.50237433  0.24648090  1
  Cu  Cu90  1  0.50115335  0.15960344  0.24696730  1
  Cu  Cu91  1  0.83040652  0.83688080  0.24658229  1
  Cu  Cu92  1  0.16399974  0.49882979  0.75704524  1
  Cu  Cu93  1  0.00550361  0.00460540  0.00681293  1
  Cu  Cu94  1  0.49503128  0.15819773  0.74691020  1
  Cu  Cu95  1  0.66213204  0.66628377  -0.00244508  1
  Cu  Cu96  1  0.83593950  0.16807544  0.24648421  1
  Cu  Cu97  1  0.01679807  0.00631473  0.49219511  1
  Cu  Cu98  1  0.00392828  0.32744843  0.00650461  1
  Cu  Cu99  1  0.00816569  0.65865810  0.00268537  1
  Cu  Cu100  1  0.83203229  0.17025484  0.75604110  1
  Cu  Cu101  1  0.32850990  -0.00244825  0.00525270  1
  Cu  Cu102  1  0.33427895  0.67506932  -0.00058701  1
  Cu  Cu103  1  0.49771085  0.83817145  0.74984840  1
  Cu  Cu104  1  0.66348504  -0.00022553  0.49801597  1
  Cu  Cu105  1  0.16946881  0.16454317  0.25118526  1
  Cu  Cu106  1  0.17738291  0.83656713  0.75125206  1
  Cu  Cu107  1  0.66330142  0.00206498  0.00135354  1
  Cu  Cu108  1  0.33513709  0.67181463  0.49839944  1
  Cu  Cu109  1  0.65805994  0.67289736  0.50666181  1
  Cu  Cu110  1  0.16405639  0.49421261  0.24267623  1
  Cu  Cu111  1  0.81895181  0.83138689  0.75108588  1
  Cu  Cu112  1  0.83355025  0.49750384  0.75756690  1
  Cu  Cu113  1  0.00934336  0.67652224  0.49540143  1
  Cu  Cu114  1  0.65926982  0.32639351  0.49181948  1
  Se  Se115  1  0.08953441  0.08490683  0.06137817  1
  Se  Se116  1  0.09293040  0.08767428  0.55233573  1
  Se  Se117  1  0.08982332  0.41491590  0.05311077  1
  Se  Se118  1  0.07350611  0.41556022  0.56023906  1
  Se  Se119  1  0.08450875  0.75045135  0.05236527  1
  Se  Se120  1  0.09227586  0.75853604  0.54785782  1
  Se  Se121  1  0.40770862  0.07859305  0.06564643  1
  Se  Se122  1  0.41307732  0.08289143  0.55393390  1
  Se  Se123  1  0.41254826  0.41094037  0.06248797  1
  Se  Se124  1  0.40308429  0.40954820  0.55685936  1
  Se  Se125  1  0.41532302  0.75869964  0.05392241  1
  Se  Se126  1  0.42024416  0.74746306  0.55634139  1
  Se  Se127  1  0.75050461  0.08200735  0.05202907  1
  Se  Se128  1  0.74730237  0.07817378  0.55731872  1
  Se  Se129  1  0.76321128  0.41948294  0.05403908  1
  Se  Se130  1  0.73677592  0.40764814  0.55408665  1
  Se  Se131  1  0.74383675  0.74548330  0.05977753  1
  Se  Se132  1  0.74578386  0.74579134  0.56594933  1
  Se  Se133  1  0.24824198  0.24424777  0.05178591  1
  Se  Se134  1  0.24653302  0.25690682  0.55034165  1
  Se  Se135  1  0.25551221  0.58425975  0.05013825  1
  Se  Se136  1  0.25227929  0.58727362  0.55390527  1
  Se  Se137  1  0.24557268  0.91533322  0.06027532  1
  Se  Se138  1  0.25371015  0.91318082  0.55100240  1
  Se  Se139  1  0.58873682  0.25787468  0.05828676  1
  Se  Se140  1  0.57665227  0.24327675  0.54446280  1
  Se  Se141  1  0.58872046  0.58846873  0.06517689  1
  Se  Se142  1  0.58563580  0.58763211  0.56686757  1
  Se  Se143  1  0.57751118  0.91631971  0.04786867  1
  Se  Se144  1  0.57915966  0.91842386  0.55181005  1
  Se  Se145  1  0.91897852  0.24407318  0.05795597  1
  Se  Se146  1  0.92142225  0.26066059  0.56135890  1
  Se  Se147  1  0.91861954  0.57543720  0.04793725  1
  Se  Se148  1  0.92647504  0.59571315  0.55284572  1
  Se  Se149  1  0.92313891  0.92147913  0.06568124  1
  Se  Se150  1  0.93291047  0.93087830  0.55550308  1
  Se  Se151  1  0.08293485  0.25571413  0.45095238  1
  Se  Se152  1  0.08719541  0.24724014  0.94932850  1
  Se  Se153  1  0.07752998  0.59162826  0.43190860  1
  Se  Se154  1  0.09167443  0.57743143  0.94705524  1
  Se  Se155  1  0.09385540  0.91553452  0.44260627  1
  Se  Se156  1  0.08586710  0.91589559  0.95585866  1
  Se  Se157  1  0.42269612  0.24656274  0.44435784  1
  Se  Se158  1  0.40570239  0.25738790  0.94583058  1
  Se  Se159  1  0.40739281  0.58442731  0.43781781  1
  Se  Se160  1  0.41323361  0.59317589  0.93776505  1
  Se  Se161  1  0.41900220  0.91355205  0.44171714  1
  Se  Se162  1  0.41485442  0.91957473  0.94888597  1
  Se  Se163  1  0.74642165  0.25464452  0.43218257  1
  Se  Se164  1  0.74651795  0.24308669  0.95390862  1
  Se  Se165  1  0.73680403  0.59546519  0.44379847  1
  Se  Se166  1  0.75026585  0.58092013  0.95255664  1
  Se  Se167  1  0.74966977  0.92493999  0.43862323  1
  Se  Se168  1  0.74535333  0.92001732  0.94015136  1
  Se  Se169  1  0.25302310  0.08294667  0.44416258  1
  Se  Se170  1  0.24878747  0.08472476  0.95217831  1
  Se  Se171  1  0.26137161  0.40624986  0.43927667  1
  Se  Se172  1  0.25993117  0.41722850  0.95053195  1
  Se  Se173  1  0.25251887  0.75371187  0.44341707  1
  Se  Se174  1  0.24715962  0.75620435  0.94628407  1
  Se  Se175  1  0.58145651  0.08372821  0.44438351  1
  Se  Se176  1  0.58338978  0.07821872  0.93690022  1
  Se  Se177  1  0.58194680  0.41157663  0.43447164  1
  Se  Se178  1  0.59311723  0.40776222  0.94779566  1
  Se  Se179  1  0.57832097  0.75780729  0.45360823  1
  Se  Se180  1  0.57805785  0.75058202  0.94750436  1
  Se  Se181  1  0.92620832  0.08066330  0.43729853  1
  Se  Se182  1  0.91900944  0.08225470  0.95128824  1
  Se  Se183  1  0.92282132  0.40515096  0.44088952  1
  Se  Se184  1  0.92122743  0.41080689  0.95040817  1
  Se  Se185  1  0.92538231  0.75453996  0.43624110  1
  Se  Se186  1  0.92871410  0.73965089  0.93932648  1
  Se  Se187  1  0.25499925  0.24834436  0.30374007  1
  Se  Se188  1  0.24380497  0.24457501  0.81412503  1
  Se  Se189  1  0.24725375  0.58002186  0.29491193  1
  Se  Se190  1  0.24943497  0.58638503  0.80189127  1
  Se  Se191  1  0.24243021  0.91041450  0.29720556  1
  Se  Se192  1  0.25343198  0.92247042  0.80753505  1
  Se  Se193  1  0.58675066  0.24834234  0.29586410  1
  Se  Se194  1  0.57211549  0.23945259  0.80903623  1
  Se  Se195  1  0.57156097  0.58140468  0.31466994  1
  Se  Se196  1  0.58435200  0.57636453  0.80263069  1
  Se  Se197  1  0.58418469  0.91997163  0.30219641  1
  Se  Se198  1  0.58168438  0.92199378  0.80337031  1
  Se  Se199  1  0.92106404  0.24834100  0.30092346  1
  Se  Se200  1  0.91726407  0.25113919  0.80785732  1
  Se  Se201  1  0.90283028  0.56831108  0.30248491  1
  Se  Se202  1  0.91500824  0.58045508  0.81579847  1
  Se  Se203  1  0.91706794  0.91959142  0.29692305  1
  Se  Se204  1  0.90543387  0.90788655  0.80949118  1
  Se  Se205  1  0.08529993  0.08282122  0.30574578  1
  Se  Se206  1  0.08944916  0.08699296  0.81457994  1
  Se  Se207  1  0.08865006  0.41093909  0.30238526  1
  Se  Se208  1  0.08448372  0.41058910  0.80676153  1
  Se  Se209  1  0.08766826  0.74973920  0.30237108  1
  Se  Se210  1  0.08949258  0.75903508  0.80841673  1
  Se  Se211  1  0.41566071  0.08117117  0.30293812  1
  Se  Se212  1  0.40697125  0.08106929  0.80024892  1
  Se  Se213  1  0.41622605  0.41460923  0.29663380  1
  Se  Se214  1  0.42442520  0.42289324  0.80949348  1
  Se  Se215  1  0.41287132  0.75092666  0.30313518  1
  Se  Se216  1  0.41756754  0.75459203  0.80651485  1
  Se  Se217  1  0.74822879  0.08466937  0.29759055  1
  Se  Se218  1  0.74850637  0.08174313  0.80205787  1
  Se  Se219  1  0.74630251  0.41668515  0.29445439  1
  Se  Se220  1  0.75642559  0.41626390  0.81941596  1
  Se  Se221  1  0.75543137  0.75794468  0.31145209  1
  Se  Se222  1  0.74112628  0.74646357  0.80582545  1
  Se  Se223  1  0.25540483  0.08058760  0.20131737  1
  Se  Se224  1  0.25068374  0.08389120  0.69607017  1
  Se  Se225  1  0.25206921  0.41189059  0.19255208  1
  Se  Se226  1  0.24120850  0.42357557  0.68918032  1
  Se  Se227  1  0.25323783  0.74233709  0.19704931  1
  Se  Se228  1  0.25584302  0.75025875  0.69658091  1
  Se  Se229  1  0.58674115  0.08025627  0.19210433  1
  Se  Se230  1  0.58333628  0.07943283  0.69454126  1
  Se  Se231  1  0.58563965  0.41824821  0.19821803  1
  Se  Se232  1  0.57007231  0.41838894  0.69190416  1
  Se  Se233  1  0.57367232  0.75913431  0.18910795  1
  Se  Se234  1  0.58241794  0.75068201  0.69930522  1
  Se  Se235  1  0.92126303  0.08100751  0.19827807  1
  Se  Se236  1  0.91004027  0.09381394  0.68912752  1
  Se  Se237  1  0.92205222  0.41151623  0.19838901  1
  Se  Se238  1  0.91735606  0.41542043  0.70428080  1
  Se  Se239  1  0.90929915  0.75573652  0.18746239  1
  Se  Se240  1  0.90600979  0.75963905  0.68986363  1
  Se  Se241  1  0.08744223  0.25056998  0.19771121  1
  Se  Se242  1  0.08063599  0.25084680  0.70163436  1
  Se  Se243  1  0.08826148  0.57507578  0.17970587  1
  Se  Se244  1  0.09191401  0.57946411  0.68858011  1
  Se  Se245  1  0.08810047  0.91694171  0.20484449  1
  Se  Se246  1  0.09037324  0.91398508  0.69254841  1
  Se  Se247  1  0.41701169  0.24769625  0.19868991  1
  Se  Se248  1  0.41812971  0.24367027  0.68825986  1
  Se  Se249  1  0.41239889  0.58625457  0.19896072  1
  Se  Se250  1  0.41389061  0.57855525  0.70603970  1
  Se  Se251  1  0.41282653  0.92037534  0.19683828  1
  Se  Se252  1  0.41390829  0.91941409  0.69439350  1
  Se  Se253  1  0.75120794  0.24943383  0.19286229  1
  Se  Se254  1  0.75079083  0.24403976  0.68946265  1
  Se  Se255  1  0.75503885  0.58154332  0.19353246  1
  Se  Se256  1  0.74821402  0.58045143  0.70585403  1
  Se  Se257  1  0.74483346  0.92028974  0.19603176  1
  Se  Se258  1  0.74281291  0.92060904  0.69810975  1
