# generated using pymatgen
data_In86Cu29Se144
_symmetry_space_group_name_H-M   'P 1'
_cell_length_a   17.60084029
_cell_length_b   17.60223287
_cell_length_c   23.46118638
_cell_angle_alpha   89.98889057
_cell_angle_beta   89.99936939
_cell_angle_gamma   90.02743510
_symmetry_Int_Tables_number   1
_chemical_formula_structural   In86Cu29Se144
_chemical_formula_sum   'In86 Cu29 Se144'
_cell_volume   7268.60512998
_cell_formula_units_Z   1
loop_
 _symmetry_equiv_pos_site_id
 _symmetry_equiv_pos_as_xyz
  1  'x, y, z'
loop_
 _atom_site_type_symbol
 _atom_site_label
 _atom_site_symmetry_multiplicity
 _atom_site_fract_x
 _atom_site_fract_y
 _atom_site_fract_z
 _atom_site_occupancy
  In  In0  1  0.00042593  0.16482738  0.11889422  1
  In  In1  1  -0.01609608  0.16294214  0.62515061  1
  In  In2  1  -0.01485730  0.51268580  0.13367527  1
  In  In3  1  -0.00663822  0.48543008  0.62476296  1
  In  In4  1  -0.02265773  0.85451459  0.13400991  1
  In  In5  1  0.01135567  0.83510555  0.62592341  1
  In  In6  1  0.34720461  0.19040426  0.10259707  1
  In  In7  1  0.33888321  0.15618394  0.63818800  1
  In  In8  1  0.35098902  0.48138849  0.12747473  1
  In  In9  1  0.33588529  0.50218378  0.63387622  1
  In  In10  1  0.33428061  0.82718982  0.12928876  1
  In  In11  1  0.34147598  0.82678602  0.63200414  1
  In  In12  1  0.67427977  0.16080508  0.12338709  1
  In  In13  1  0.66433289  0.15263549  0.61011240  1
  In  In14  1  0.66168298  0.50375042  0.12166130  1
  In  In15  1  0.67683262  0.50815631  0.63019734  1
  In  In16  1  0.67417585  0.82012091  0.12911805  1
  In  In17  1  0.64769887  0.83696207  0.62512454  1
  In  In18  1  0.16278955  0.00973202  0.36948014  1
  In  In19  1  0.16946318  0.00662930  0.86980502  1
  In  In20  1  0.17118433  0.33662238  0.36098293  1
  In  In21  1  0.17038801  0.32141330  0.87883439  1
  In  In22  1  0.16487629  0.66787592  0.36786866  1
  In  In23  1  0.17352829  0.65811502  0.87475719  1
  In  In24  1  0.51392537  -0.00768386  0.38780537  1
  In  In25  1  0.49620982  0.01289728  0.88193880  1
  In  In26  1  0.49653990  0.32300931  0.36719064  1
  In  In27  1  0.49236856  0.33534902  0.88832239  1
  In  In28  1  0.51812923  0.69214194  0.35243082  1
  In  In29  1  0.49586549  0.66546907  0.87236116  1
  In  In30  1  0.83741424  0.00692752  0.36710478  1
  In  In31  1  0.83542692  -0.01193179  0.89415357  1
  In  In32  1  0.82101435  0.32192748  0.35628771  1
  In  In33  1  0.83407827  0.33549875  0.88650817  1
  In  In34  1  0.83195696  0.67387498  0.36631022  1
  In  In35  1  0.81355053  0.68264126  0.89821011  1
  In  In36  1  -0.00981150  0.15512875  0.35899330  1
  In  In37  1  0.00333257  0.15006651  0.89723383  1
  In  In38  1  0.00008597  0.49976115  0.36174404  1
  In  In39  1  -0.00200346  0.49590991  0.88056192  1
  In  In40  1  -0.00833160  0.83033684  0.36645016  1
  In  In41  1  -0.01458210  0.83781630  0.87840214  1
  In  In42  1  0.34130200  0.17784729  0.37052492  1
  In  In43  1  0.33605111  0.16569340  0.87477850  1
  In  In44  1  0.33749126  0.50307798  0.36844298  1
  In  In45  1  0.34238811  0.50301972  0.87079251  1
  In  In46  1  0.35722101  0.84138218  0.37120865  1
  In  In47  1  0.32751219  0.83047948  0.86948079  1
  In  In48  1  0.66551366  0.16625722  0.36585035  1
  In  In49  1  0.66021351  0.15857894  0.89225366  1
  In  In50  1  0.67078910  0.50324933  0.36515124  1
  In  In51  1  0.64847843  0.51616130  0.89459412  1
  In  In52  1  0.66313036  0.83764649  0.36500650  1
  In  In53  1  0.67590466  0.83602135  0.87963622  1
  In  In54  1  0.14945975  0.01314181  0.12189483  1
  In  In55  1  0.16248855  0.00289812  0.63581686  1
  In  In56  1  0.17595265  0.32181239  0.12511434  1
  In  In57  1  0.17029848  0.34325969  0.62414325  1
  In  In58  1  0.16657967  0.66278290  0.13137101  1
  In  In59  1  0.17414846  0.67484395  0.62387963  1
  In  In60  1  0.49574233  0.00973573  0.12839917  1
  In  In61  1  0.49950402  -0.00796441  0.62111399  1
  In  In62  1  0.50228959  0.33140956  0.12430365  1
  In  In63  1  0.50370570  0.31727551  0.62607303  1
  In  In64  1  0.52289462  0.64792722  0.13839832  1
  In  In65  1  0.49504512  0.66944811  0.63050673  1
  In  In66  1  0.83535507  -0.00172001  0.11762574  1
  In  In67  1  0.82638426  0.01228942  0.62895629  1
  In  In68  1  0.82875667  0.33499762  0.12915000  1
  In  In69  1  0.84277650  0.32225604  0.62481834  1
  In  In70  1  0.82337424  0.67158234  0.12118994  1
  In  In71  1  0.83055411  0.65690370  0.62878845  1
  In  In72  1  0.66630111  -0.00176599  0.75502000  1
  In  In73  1  0.83491943  0.49409314  0.50106719  1
  In  In74  1  0.17006473  0.50050465  0.48963924  1
  In  In75  1  0.00233316  0.32816085  0.75466773  1
  In  In76  1  0.83022764  0.83608234  0.49239189  1
  In  In77  1  0.50190519  0.49995825  0.49167155  1
  In  In78  1  0.16674989  0.49539291  -0.00161082  1
  In  In79  1  0.66758250  0.33187014  0.75341818  1
  In  In80  1  0.00744237  0.66424161  0.74986743  1
  In  In81  1  0.17206004  0.83352314  0.50396997  1
  In  In82  1  0.33072299  0.00470996  0.24479200  1
  In  In83  1  0.50613250  0.83269181  0.00605429  1
  In  In84  1  0.16087416  0.83586053  -0.00048267  1
  In  In85  1  0.16577420  0.16801979  0.49489417  1
  Cu  Cu86  1  0.32465321  0.00129064  -0.00102717  1
  Cu  Cu87  1  0.50288948  0.16923318  0.24391845  1
  Cu  Cu88  1  0.16328209  0.49490567  0.24302942  1
  Cu  Cu89  1  0.16399221  0.16524332  0.75699996  1
  Cu  Cu90  1  0.83209220  0.83517283  0.24635663  1
  Cu  Cu91  1  0.17843391  0.50052695  0.74966818  1
  Cu  Cu92  1  0.49674218  0.83014187  0.74999523  1
  Cu  Cu93  1  0.34146815  0.32636438  0.50236487  1
  Cu  Cu94  1  0.82427735  0.50854491  0.76021453  1
  Cu  Cu95  1  0.16679493  0.16628967  0.24351133  1
  Cu  Cu96  1  0.34168016  0.65597544  0.00363339  1
  Cu  Cu97  1  0.34271305  0.67495118  0.49893343  1
  Cu  Cu98  1  0.16429220  0.83183069  0.24591429  1
  Cu  Cu99  1  -0.00341061  -0.00322223  0.49514830  1
  Cu  Cu100  1  -0.00264864  0.34040508  0.00879466  1
  Cu  Cu101  1  0.83442511  0.16282666  0.24009613  1
  Cu  Cu102  1  0.83518323  0.83427318  0.75976806  1
  Cu  Cu103  1  0.50307161  0.49959422  0.75837864  1
  Cu  Cu104  1  0.67321788  0.32302292  0.49281570  1
  Cu  Cu105  1  0.16635166  0.83793664  0.74991176  1
  Cu  Cu106  1  -0.00672843  0.32551039  0.48885151  1
  Cu  Cu107  1  0.49724048  0.16625062  0.75553013  1
  Cu  Cu108  1  -0.00519657  0.67472808  0.01088264  1
  Cu  Cu109  1  0.82892874  0.50423701  0.24383228  1
  Cu  Cu110  1  0.66257041  0.33478388  0.00848723  1
  Cu  Cu111  1  0.34178719  0.00439027  0.50510987  1
  Cu  Cu112  1  0.83177852  0.16373341  0.75361298  1
  Cu  Cu113  1  0.49659700  0.49498300  0.24780735  1
  Cu  Cu114  1  0.66273842  0.67399501  0.49526109  1
  Se  Se115  1  0.08051415  0.08752453  0.04463234  1
  Se  Se116  1  0.07715292  0.07634400  0.55668880  1
  Se  Se117  1  0.07642602  0.42069206  0.06796828  1
  Se  Se118  1  0.07392881  0.40570950  0.54794555  1
  Se  Se119  1  0.07773962  0.75237150  0.06821363  1
  Se  Se120  1  0.07508427  0.73725634  0.55380429  1
  Se  Se121  1  0.41470938  0.07795311  0.05115463  1
  Se  Se122  1  0.41933785  0.08907393  0.56069205  1
  Se  Se123  1  0.42052259  0.40808035  0.05038972  1
  Se  Se124  1  0.41530062  0.41418149  0.56014392  1
  Se  Se125  1  0.41688710  0.73922157  0.06340030  1
  Se  Se126  1  0.42328268  0.75437176  0.55675157  1
  Se  Se127  1  0.77353453  0.10280676  0.05151948  1
  Se  Se128  1  0.76677313  0.08896455  0.54891688  1
  Se  Se129  1  0.74959763  0.41832188  0.05791012  1
  Se  Se130  1  0.74171452  0.40349130  0.56110255  1
  Se  Se131  1  0.74770502  0.75338298  0.04830921  1
  Se  Se132  1  0.74610348  0.74482607  0.55986465  1
  Se  Se133  1  0.24260724  0.25372344  0.04193928  1
  Se  Se134  1  0.25535683  0.25145313  0.56074907  1
  Se  Se135  1  0.25568689  0.58157956  0.06158520  1
  Se  Se136  1  0.26179138  0.58892809  0.55428875  1
  Se  Se137  1  0.25297311  0.92018209  0.06275261  1
  Se  Se138  1  0.25641839  0.92769980  0.56427559  1
  Se  Se139  1  0.58421994  0.24277101  0.05777587  1
  Se  Se140  1  0.58595477  0.24982392  0.55056251  1
  Se  Se141  1  0.58360829  0.58763784  0.05076694  1
  Se  Se142  1  0.59077937  0.58755795  0.55684747  1
  Se  Se143  1  0.58892294  0.92257710  0.06780381  1
  Se  Se144  1  0.60316789  0.93745942  0.55474623  1
  Se  Se145  1  0.91321402  0.25548747  0.05855348  1
  Se  Se146  1  0.91582709  0.24583232  0.54851190  1
  Se  Se147  1  0.91126637  0.58532674  0.05563202  1
  Se  Se148  1  0.92729721  0.58750274  0.55837821  1
  Se  Se149  1  0.91899668  0.91790582  0.04693395  1
  Se  Se150  1  0.92140285  0.91982578  0.55996596  1
  Se  Se151  1  0.07901090  0.25275002  0.42993003  1
  Se  Se152  1  0.07463998  0.26005382  0.94839186  1
  Se  Se153  1  0.07278279  0.58833716  0.43833859  1
  Se  Se154  1  0.07399712  0.59756172  0.94723454  1
  Se  Se155  1  0.08077939  0.91913968  0.43862415  1
  Se  Se156  1  0.07564629  0.92693680  0.93981327  1
  Se  Se157  1  0.42348173  0.24742428  0.44662628  1
  Se  Se158  1  0.43334737  0.22549791  0.94508298  1
  Se  Se159  1  0.41802807  0.59612480  0.43489356  1
  Se  Se160  1  0.42229684  0.57903042  0.94482664  1
  Se  Se161  1  0.42055664  0.91519480  0.45379364  1
  Se  Se162  1  0.40561390  0.91435081  0.94443716  1
  Se  Se163  1  0.75533609  0.24496975  0.43630294  1
  Se  Se164  1  0.74187177  0.25621160  0.94864398  1
  Se  Se165  1  0.74611785  0.59045989  0.44185578  1
  Se  Se166  1  0.76981231  0.56026221  0.94662262  1
  Se  Se167  1  0.74363693  0.92773568  0.43595997  1
  Se  Se168  1  0.73255194  0.92340028  0.95525124  1
  Se  Se169  1  0.26202397  0.07647961  0.43985419  1
  Se  Se170  1  0.24654270  0.08551493  0.94317655  1
  Se  Se171  1  0.26330716  0.40348811  0.44000845  1
  Se  Se172  1  0.26082652  0.41068856  0.93993557  1
  Se  Se173  1  0.25754447  0.74885364  0.43822274  1
  Se  Se174  1  0.25864831  0.73909424  0.94787910  1
  Se  Se175  1  0.56872119  0.10842636  0.43829293  1
  Se  Se176  1  0.58619468  0.06615770  0.95725072  1
  Se  Se177  1  0.59510261  0.40867286  0.43614794  1
  Se  Se178  1  0.57732213  0.41659178  0.95533845  1
  Se  Se179  1  0.58342997  0.75625643  0.43916267  1
  Se  Se180  1  0.58854335  0.74214248  0.94184284  1
  Se  Se181  1  0.92045385  0.08355693  0.44041134  1
  Se  Se182  1  0.88632748  0.10226995  0.95422177  1
  Se  Se183  1  0.91549056  0.40964400  0.43167534  1
  Se  Se184  1  0.91648120  0.42236124  0.95261491  1
  Se  Se185  1  0.92417072  0.74023935  0.44283588  1
  Se  Se186  1  0.91564102  0.75853095  0.95459351  1
  Se  Se187  1  0.25253927  0.24594126  0.29849197  1
  Se  Se188  1  0.25104310  0.24877595  0.80479072  1
  Se  Se189  1  0.24181686  0.57544402  0.30420379  1
  Se  Se190  1  0.25697605  0.58670136  0.80263532  1
  Se  Se191  1  0.24416877  0.91080109  0.30920327  1
  Se  Se192  1  0.25038129  0.91941842  0.80334417  1
  Se  Se193  1  0.58693053  0.25496521  0.29597223  1
  Se  Se194  1  0.58116148  0.24179922  0.81491457  1
  Se  Se195  1  0.58178613  0.58019648  0.29863573  1
  Se  Se196  1  0.58785345  0.58389341  0.80767061  1
  Se  Se197  1  0.57274963  0.92058968  0.30374847  1
  Se  Se198  1  0.57248906  0.90996157  0.81420037  1
  Se  Se199  1  0.91845420  0.24900196  0.29294155  1
  Se  Se200  1  0.91050134  0.24339916  0.81439089  1
  Se  Se201  1  0.91189597  0.58568194  0.30046205  1
  Se  Se202  1  0.91526065  0.58454360  0.81376856  1
  Se  Se203  1  0.91704859  0.91875844  0.29968657  1
  Se  Se204  1  0.91093376  0.92607605  0.80961219  1
  Se  Se205  1  0.08386413  0.07908451  0.29335454  1
  Se  Se206  1  0.07328172  0.08948917  0.81006150  1
  Se  Se207  1  0.07917903  0.41138140  0.29592828  1
  Se  Se208  1  0.09411442  0.42504903  0.80915838  1
  Se  Se209  1  0.08039601  0.75038459  0.30127353  1
  Se  Se210  1  0.08998690  0.75884776  0.81436128  1
  Se  Se211  1  0.42469608  0.08720130  0.30634231  1
  Se  Se212  1  0.41434020  0.07780095  0.80388264  1
  Se  Se213  1  0.41414337  0.41233922  0.30288966  1
  Se  Se214  1  0.42263896  0.41026352  0.80729032  1
  Se  Se215  1  0.39594373  0.73594531  0.30223333  1
  Se  Se216  1  0.41242088  0.74717837  0.80383189  1
  Se  Se217  1  0.75082129  0.08320372  0.29780217  1
  Se  Se218  1  0.75265933  0.08759612  0.81688104  1
  Se  Se219  1  0.74469553  0.41781898  0.29455193  1
  Se  Se220  1  0.74866644  0.42268967  0.81730634  1
  Se  Se221  1  0.74635261  0.75190525  0.29908278  1
  Se  Se222  1  0.75197993  0.74866799  0.81015184  1
  Se  Se223  1  0.25137370  0.09547891  0.17954492  1
  Se  Se224  1  0.24756363  0.08090465  0.70393270  1
  Se  Se225  1  0.25073202  0.41340067  0.19237204  1
  Se  Se226  1  0.25548138  0.41125540  0.69751526  1
  Se  Se227  1  0.24985713  0.74790350  0.19760992  1
  Se  Se228  1  0.24883447  0.75051276  0.69863290  1
  Se  Se229  1  0.58733364  0.08355114  0.19521972  1
  Se  Se230  1  0.58070384  0.09068229  0.69408648  1
  Se  Se231  1  0.58296117  0.41737786  0.19230821  1
  Se  Se232  1  0.57808223  0.42372497  0.69054593  1
  Se  Se233  1  0.58170624  0.75330315  0.19971119  1
  Se  Se234  1  0.58378027  0.74849398  0.69847287  1
  Se  Se235  1  0.91947153  0.07955758  0.18928393  1
  Se  Se236  1  0.91642608  0.08025268  0.70141033  1
  Se  Se237  1  0.91474880  0.41554893  0.19926035  1
  Se  Se238  1  0.90078694  0.42220239  0.70165174  1
  Se  Se239  1  0.91300836  0.74747360  0.19300950  1
  Se  Se240  1  0.91205971  0.75658718  0.69322714  1
  Se  Se241  1  0.08195237  0.24811694  0.19060211  1
  Se  Se242  1  0.09005670  0.24127805  0.68756621  1
  Se  Se243  1  0.07938781  0.58604755  0.19976501  1
  Se  Se244  1  0.09243347  0.56918297  0.68569176  1
  Se  Se245  1  0.08590943  0.91919245  0.19289376  1
  Se  Se246  1  0.07733331  0.91892178  0.70145370  1
  Se  Se247  1  0.41356291  0.24832840  0.19154865  1
  Se  Se248  1  0.41755262  0.25155151  0.70038217  1
  Se  Se249  1  0.41396283  0.58083148  0.19487960  1
  Se  Se250  1  0.42076630  0.58183046  0.70059070  1
  Se  Se251  1  0.42456870  0.90819128  0.19568880  1
  Se  Se252  1  0.41896423  0.91916999  0.69667168  1
  Se  Se253  1  0.74588363  0.24964993  0.19643491  1
  Se  Se254  1  0.75225635  0.23826650  0.68988067  1
  Se  Se255  1  0.74417679  0.58737874  0.19219547  1
  Se  Se256  1  0.74528960  0.59201461  0.70476256  1
  Se  Se257  1  0.75269404  0.91809627  0.18993351  1
  Se  Se258  1  0.75514959  0.90686149  0.69302730  1
