# generated using pymatgen
data_In86Cu29Se144
_symmetry_space_group_name_H-M   'P 1'
_cell_length_a   17.57315684
_cell_length_b   17.57644808
_cell_length_c   23.43241718
_cell_angle_alpha   89.97578351
_cell_angle_beta   89.99547233
_cell_angle_gamma   90.00877214
_symmetry_Int_Tables_number   1
_chemical_formula_structural   In86Cu29Se144
_chemical_formula_sum   'In86 Cu29 Se144'
_cell_volume   7237.65614418
_cell_formula_units_Z   1
loop_
 _symmetry_equiv_pos_site_id
 _symmetry_equiv_pos_as_xyz
  1  'x, y, z'
loop_
 _atom_site_type_symbol
 _atom_site_label
 _atom_site_symmetry_multiplicity
 _atom_site_fract_x
 _atom_site_fract_y
 _atom_site_fract_z
 _atom_site_occupancy
  In  In0  1  0.01265279  0.16761573  0.12799184  1
  In  In1  1  0.00055666  0.16904951  0.61828615  1
  In  In2  1  -0.00718934  0.50500137  0.13226636  1
  In  In3  1  -0.00955711  0.51196116  0.62923481  1
  In  In4  1  0.00303590  0.82035284  0.12476279  1
  In  In5  1  -0.01359756  0.83306265  0.62487990  1
  In  In6  1  0.33209792  0.18118503  0.12211107  1
  In  In7  1  0.33378822  0.15802568  0.62290882  1
  In  In8  1  0.34658421  0.48902312  0.12919109  1
  In  In9  1  0.34654955  0.50500172  0.62700651  1
  In  In10  1  0.32418633  0.82681889  0.11467299  1
  In  In11  1  0.34490171  0.82514537  0.63247985  1
  In  In12  1  0.65484548  0.15534851  0.13130964  1
  In  In13  1  0.65957763  0.16238442  0.61747037  1
  In  In14  1  0.66620053  0.50449077  0.11573941  1
  In  In15  1  0.67922796  0.52152342  0.60417190  1
  In  In16  1  0.67025452  0.83533694  0.12493283  1
  In  In17  1  0.66700846  0.83147261  0.62322439  1
  In  In18  1  0.17895785  0.00622744  0.37460194  1
  In  In19  1  0.18163193  -0.00569644  0.88858955  1
  In  In20  1  0.15970441  0.32772757  0.36790806  1
  In  In21  1  0.16847946  0.32823451  0.88330754  1
  In  In22  1  0.16221566  0.66137288  0.36239187  1
  In  In23  1  0.17995157  0.67811696  0.86518993  1
  In  In24  1  0.50935509  -0.01224409  0.38358202  1
  In  In25  1  0.48249239  -0.01540329  0.85915342  1
  In  In26  1  0.49233437  0.34059059  0.38265932  1
  In  In27  1  0.50915369  0.34161718  0.87640929  1
  In  In28  1  0.49817764  0.66735336  0.38473494  1
  In  In29  1  0.50161091  0.67682167  0.87666436  1
  In  In30  1  0.82243308  0.00620729  0.38298495  1
  In  In31  1  0.81500242  0.00219981  0.86330734  1
  In  In32  1  0.83497415  0.32934951  0.38554104  1
  In  In33  1  0.84062801  0.34049280  0.87207108  1
  In  In34  1  0.83611666  0.65906219  0.38690898  1
  In  In35  1  0.82397954  0.65783110  0.86419711  1
  In  In36  1  -0.01053907  0.17796618  0.38249448  1
  In  In37  1  0.00282728  0.17308569  0.87233592  1
  In  In38  1  -0.00333312  0.49510339  0.36836282  1
  In  In39  1  -0.01728988  0.50210308  0.87800253  1
  In  In40  1  -0.00035136  0.81943514  0.37228535  1
  In  In41  1  0.01498651  0.83437202  0.87451978  1
  In  In42  1  0.32392928  0.17102829  0.38133562  1
  In  In43  1  0.33089171  0.15679577  0.87443214  1
  In  In44  1  0.33698493  0.50191406  0.36476908  1
  In  In45  1  0.33071732  0.51527384  0.87562806  1
  In  In46  1  0.34813119  0.82896513  0.37482894  1
  In  In47  1  0.33961574  0.83683805  0.87980204  1
  In  In48  1  0.67655494  0.16058228  0.38711660  1
  In  In49  1  0.66536112  0.15131753  0.86447209  1
  In  In50  1  0.66574369  0.49930873  0.40349613  1
  In  In51  1  0.65213879  0.52530189  0.89245075  1
  In  In52  1  0.65510632  0.83187587  0.38842593  1
  In  In53  1  0.64884615  0.81834329  0.86151493  1
  In  In54  1  0.18064107  0.00956561  0.10496888  1
  In  In55  1  0.17374346  0.01797580  0.63032260  1
  In  In56  1  0.17634516  0.32354816  0.13224330  1
  In  In57  1  0.17221306  0.32048357  0.62551666  1
  In  In58  1  0.16466201  0.66929324  0.12560358  1
  In  In59  1  0.16515120  0.66781237  0.63710210  1
  In  In60  1  0.50913344  0.00081671  0.12711038  1
  In  In61  1  0.50049197  -0.00246364  0.62522221  1
  In  In62  1  0.48907134  0.33606035  0.12872038  1
  In  In63  1  0.51751806  0.34678900  0.60713349  1
  In  In64  1  0.49196920  0.65153257  0.11732706  1
  In  In65  1  0.50136391  0.67058287  0.62304664  1
  In  In66  1  0.82213573  -0.00749248  0.12889311  1
  In  In67  1  0.82863008  -0.00974282  0.62047419  1
  In  In68  1  0.83086003  0.34731007  0.13221975  1
  In  In69  1  0.81491089  0.32978774  0.60175204  1
  In  In70  1  0.84302784  0.66907636  0.12524753  1
  In  In71  1  0.83106895  0.66879629  0.62391929  1
  In  In72  1  0.33708454  -0.00261208  0.24402417  1
  In  In73  1  0.83285089  0.82567624  0.00002388  1
  In  In74  1  0.00123323  -0.00230190  0.24345012  1
  In  In75  1  0.66888792  0.33269775  0.26566064  1
  In  In76  1  0.66884405  0.34113190  0.74013433  1
  In  In77  1  0.00187783  -0.00366579  0.74889007  1
  In  In78  1  0.83567512  0.17026246  -0.00971307  1
  In  In79  1  0.66541230  0.66492717  0.26029866  1
  In  In80  1  0.16391342  0.49396644  0.49941887  1
  In  In81  1  0.16830902  0.84118979  0.49764534  1
  In  In82  1  -0.00495555  0.33567804  0.74575578  1
  In  In83  1  0.49420145  0.16880973  0.00064244  1
  In  In84  1  0.16842356  0.49928087  0.00078002  1
  In  In85  1  0.33838368  0.33041741  0.75112834  1
  Cu  Cu86  1  0.00283978  -0.00165497  -0.00230531  1
  Cu  Cu87  1  0.33922311  0.00206936  0.50165797  1
  Cu  Cu88  1  0.50056751  0.83575655  0.74790848  1
  Cu  Cu89  1  0.16803050  0.82794385  0.24221258  1
  Cu  Cu90  1  0.16384286  0.17408094  0.25360126  1
  Cu  Cu91  1  0.16444387  0.49889663  0.75396864  1
  Cu  Cu92  1  0.00059176  0.33372148  0.00216302  1
  Cu  Cu93  1  0.33470926  0.66441469  0.49877434  1
  Cu  Cu94  1  0.82979435  0.83509726  0.24957533  1
  Cu  Cu95  1  0.17023340  0.50310296  0.24351245  1
  Cu  Cu96  1  0.17067633  0.83555157  0.75578366  1
  Cu  Cu97  1  0.66120465  -0.00443943  -0.00189514  1
  Cu  Cu98  1  0.50436149  0.51826982  0.74870138  1
  Cu  Cu99  1  0.66444441  -0.00342008  0.50512213  1
  Cu  Cu100  1  0.33927502  0.66926053  -0.00319604  1
  Cu  Cu101  1  0.00200918  0.33515425  0.49525491  1
  Cu  Cu102  1  0.67021201  0.33838971  0.00003856  1
  Cu  Cu103  1  0.49944237  0.16739666  0.73931847  1
  Cu  Cu104  1  0.82391192  0.50322525  0.74698758  1
  Cu  Cu105  1  -0.00126510  0.00351479  0.50343514  1
  Cu  Cu106  1  0.83133103  0.16972826  0.26101465  1
  Cu  Cu107  1  0.00379009  0.66349559  0.00085604  1
  Cu  Cu108  1  0.83038959  0.82742631  0.74267868  1
  Cu  Cu109  1  0.83733853  0.50437399  0.25675745  1
  Cu  Cu110  1  0.33170738  0.32613117  0.50202762  1
  Cu  Cu111  1  0.50158460  0.49682028  0.25210078  1
  Cu  Cu112  1  -0.00597465  0.66868670  0.50271295  1
  Cu  Cu113  1  0.49762734  0.15885771  0.25382287  1
  Cu  Cu114  1  0.50333032  0.82322888  0.25588720  1
  Se  Se115  1  0.07917546  0.08854245  0.04983246  1
  Se  Se116  1  0.08667234  0.08249617  0.55459806  1
  Se  Se117  1  0.07889001  0.41335171  0.06428687  1
  Se  Se118  1  0.07465827  0.40976701  0.56576109  1
  Se  Se119  1  0.08699310  0.74937184  0.05102871  1
  Se  Se120  1  0.08256419  0.74557586  0.55842339  1
  Se  Se121  1  0.40961447  0.07643252  0.06290569  1
  Se  Se122  1  0.42379995  0.08569346  0.55387644  1
  Se  Se123  1  0.42372745  0.41725559  0.05283308  1
  Se  Se124  1  0.40902168  0.41733729  0.55226030  1
  Se  Se125  1  0.42159712  0.75046444  0.05317054  1
  Se  Se126  1  0.41380117  0.75096116  0.55234151  1
  Se  Se127  1  0.74405498  0.07993689  0.05381177  1
  Se  Se128  1  0.75176007  0.08100669  0.55361993  1
  Se  Se129  1  0.75520099  0.41791421  0.05431091  1
  Se  Se130  1  0.75386365  0.43071976  0.53806204  1
  Se  Se131  1  0.74114546  0.73566719  0.05756348  1
  Se  Se132  1  0.75519490  0.75528316  0.55489537  1
  Se  Se133  1  0.24294861  0.24932915  0.05213658  1
  Se  Se134  1  0.24898676  0.24157832  0.55361558  1
  Se  Se135  1  0.26130110  0.58708463  0.05975724  1
  Se  Se136  1  0.24938114  0.58944286  0.55948380  1
  Se  Se137  1  0.25290495  0.91411981  0.04428212  1
  Se  Se138  1  0.25764495  0.92253907  0.56342416  1
  Se  Se139  1  0.59280214  0.25526602  0.06101383  1
  Se  Se140  1  0.59310682  0.25323933  0.54567056  1
  Se  Se141  1  0.58501029  0.58453182  0.04853935  1
  Se  Se142  1  0.55503991  0.56468020  0.55693030  1
  Se  Se143  1  0.58361696  0.91422209  0.05649372  1
  Se  Se144  1  0.57881980  0.91222051  0.55530073  1
  Se  Se145  1  0.91681570  0.25421812  0.06251734  1
  Se  Se146  1  0.91877393  0.25054333  0.54876340  1
  Se  Se147  1  0.91939792  0.58315209  0.05497510  1
  Se  Se148  1  0.91205958  0.58182140  0.55284621  1
  Se  Se149  1  0.92153714  0.92288453  0.06019498  1
  Se  Se150  1  0.91632419  0.91404092  0.54981441  1
  Se  Se151  1  0.08819574  0.25036764  0.44610536  1
  Se  Se152  1  0.07926961  0.24808058  0.94853321  1
  Se  Se153  1  0.07763586  0.59104660  0.44211893  1
  Se  Se154  1  0.08372821  0.58845154  0.93562656  1
  Se  Se155  1  0.07473286  0.92736201  0.43568265  1
  Se  Se156  1  0.08769195  0.91172560  0.95019481  1
  Se  Se157  1  0.41625750  0.24520465  0.44760496  1
  Se  Se158  1  0.41143765  0.25939029  0.93646677  1
  Se  Se159  1  0.40988296  0.57576314  0.44384829  1
  Se  Se160  1  0.42149546  0.58514433  0.94400755  1
  Se  Se161  1  0.41634793  0.91156211  0.44997590  1
  Se  Se162  1  0.42277627  0.92268517  0.94599526  1
  Se  Se163  1  0.74939762  0.25266917  0.45267945  1
  Se  Se164  1  0.73721079  0.25585966  0.93323285  1
  Se  Se165  1  0.73206003  0.60916791  0.45508957  1
  Se  Se166  1  0.77055043  0.57495391  0.94509858  1
  Se  Se167  1  0.74843722  0.91465834  0.44976451  1
  Se  Se168  1  0.74470494  0.91713172  0.93934238  1
  Se  Se169  1  0.24877520  0.08242919  0.45204339  1
  Se  Se170  1  0.24817249  0.09509853  0.95196829  1
  Se  Se171  1  0.25506401  0.40836605  0.43852454  1
  Se  Se172  1  0.26360677  0.41172149  0.94328245  1
  Se  Se173  1  0.24986818  0.74114050  0.43833008  1
  Se  Se174  1  0.25159471  0.74959921  0.94471276  1
  Se  Se175  1  0.58277348  0.08051417  0.44971560  1
  Se  Se176  1  0.58185010  0.07767847  0.93912966  1
  Se  Se177  1  0.58330802  0.40223370  0.45608260  1
  Se  Se178  1  0.58133166  0.42092965  0.95152332  1
  Se  Se179  1  0.58356087  0.73992510  0.45467842  1
  Se  Se180  1  0.58600320  0.75593697  0.94698331  1
  Se  Se181  1  0.91449260  0.08506907  0.44728184  1
  Se  Se182  1  0.91962911  0.06976340  0.93412841  1
  Se  Se183  1  0.91996101  0.42305226  0.44561376  1
  Se  Se184  1  0.91375488  0.41447054  0.95083962  1
  Se  Se185  1  0.91582941  0.75593527  0.44887983  1
  Se  Se186  1  0.92484456  0.74236151  0.93690950  1
  Se  Se187  1  0.25559259  0.25158055  0.30358301  1
  Se  Se188  1  0.24086944  0.24511935  0.80647075  1
  Se  Se189  1  0.25378281  0.58577907  0.29761053  1
  Se  Se190  1  0.25370287  0.58502346  0.79798296  1
  Se  Se191  1  0.24579589  0.90534833  0.30615149  1
  Se  Se192  1  0.25238628  0.91806123  0.80996591  1
  Se  Se193  1  0.57506389  0.23875054  0.31689462  1
  Se  Se194  1  0.57686200  0.24815031  0.80227342  1
  Se  Se195  1  0.58146319  0.56737785  0.31800822  1
  Se  Se196  1  0.58811329  0.59355731  0.80747700  1
  Se  Se197  1  0.58437595  0.90850163  0.30837505  1
  Se  Se198  1  0.58798614  0.92250258  0.79715231  1
  Se  Se199  1  0.91475008  0.25762583  0.30735127  1
  Se  Se200  1  0.90392648  0.23990317  0.80248800  1
  Se  Se201  1  0.91773796  0.59278602  0.30804679  1
  Se  Se202  1  0.91702464  0.58004854  0.79814589  1
  Se  Se203  1  0.91200603  0.91574536  0.30965785  1
  Se  Se204  1  0.90840638  0.90484500  0.80854040  1
  Se  Se205  1  0.08424496  0.08849631  0.31014574  1
  Se  Se206  1  0.08985774  0.07942749  0.81421855  1
  Se  Se207  1  0.08815394  0.42179206  0.30145892  1
  Se  Se208  1  0.08551350  0.41956711  0.81407565  1
  Se  Se209  1  0.08123180  0.74978207  0.29650903  1
  Se  Se210  1  0.08158311  0.74856174  0.79964331  1
  Se  Se211  1  0.41785876  0.07948132  0.31562459  1
  Se  Se212  1  0.41679761  0.09048942  0.79888310  1
  Se  Se213  1  0.41780577  0.40910375  0.30154149  1
  Se  Se214  1  0.42705217  0.43004590  0.80586910  1
  Se  Se215  1  0.41898291  0.73841190  0.30570581  1
  Se  Se216  1  0.41730561  0.75524237  0.80576742  1
  Se  Se217  1  0.74596926  0.08293612  0.30696201  1
  Se  Se218  1  0.75261318  0.09023552  0.79048497  1
  Se  Se219  1  0.75396436  0.43234689  0.32024175  1
  Se  Se220  1  0.74696653  0.42687290  0.81199202  1
  Se  Se221  1  0.75611842  0.75716953  0.31612255  1
  Se  Se222  1  0.74627110  0.74631815  0.79770492  1
  Se  Se223  1  0.24032721  0.09024869  0.19201444  1
  Se  Se224  1  0.25737730  0.08945966  0.70189558  1
  Se  Se225  1  0.25457180  0.41499191  0.19651923  1
  Se  Se226  1  0.24406482  0.42236051  0.69121644  1
  Se  Se227  1  0.25663507  0.74633512  0.19275386  1
  Se  Se228  1  0.25234956  0.75128038  0.70007657  1
  Se  Se229  1  0.58407502  0.07394741  0.20620357  1
  Se  Se230  1  0.58623926  0.08216064  0.69275652  1
  Se  Se231  1  0.58755308  0.41909089  0.19406017  1
  Se  Se232  1  0.57940887  0.43604866  0.68633183  1
  Se  Se233  1  0.58026173  0.74584878  0.19044930  1
  Se  Se234  1  0.58279939  0.75112919  0.69425804  1
  Se  Se235  1  0.90447024  0.09310505  0.19100065  1
  Se  Se236  1  0.91442653  0.08411352  0.68683458  1
  Se  Se237  1  0.91761846  0.41740984  0.20409220  1
  Se  Se238  1  0.89700062  0.41668189  0.68576316  1
  Se  Se239  1  0.91595310  0.75253679  0.19876628  1
  Se  Se240  1  0.91943413  0.74363552  0.69644952  1
  Se  Se241  1  0.07846929  0.25620503  0.20095144  1
  Se  Se242  1  0.08893298  0.23839826  0.69723039  1
  Se  Se243  1  0.08267267  0.58751620  0.19527972  1
  Se  Se244  1  0.07982971  0.58077494  0.70037573  1
  Se  Se245  1  0.09761391  0.91661097  0.18145977  1
  Se  Se246  1  0.09365366  0.90806255  0.68651061  1
  Se  Se247  1  0.41974780  0.24389557  0.19835811  1
  Se  Se248  1  0.43003344  0.25761346  0.68076208  1
  Se  Se249  1  0.41982631  0.58103508  0.19834282  1
  Se  Se250  1  0.41337455  0.59546789  0.69750944  1
  Se  Se251  1  0.42590477  0.90128626  0.19026956  1
  Se  Se252  1  0.41501409  0.92160025  0.69811729  1
  Se  Se253  1  0.75010975  0.24373941  0.19402087  1
  Se  Se254  1  0.75610428  0.24618690  0.68469477  1
  Se  Se255  1  0.75455503  0.57886415  0.19421318  1
  Se  Se256  1  0.74272958  0.58629049  0.69125062  1
  Se  Se257  1  0.74152524  0.91717787  0.20150634  1
  Se  Se258  1  0.74803036  0.91588769  0.69468584  1
