# generated using pymatgen
data_In86Cu29Se144
_symmetry_space_group_name_H-M   'P 1'
_cell_length_a   17.57668886
_cell_length_b   17.57798908
_cell_length_c   23.44049390
_cell_angle_alpha   90.01791962
_cell_angle_beta   89.99334120
_cell_angle_gamma   90.02407989
_symmetry_Int_Tables_number   1
_chemical_formula_structural   In86Cu29Se144
_chemical_formula_sum   'In86 Cu29 Se144'
_cell_volume   7242.24063999
_cell_formula_units_Z   1
loop_
 _symmetry_equiv_pos_site_id
 _symmetry_equiv_pos_as_xyz
  1  'x, y, z'
loop_
 _atom_site_type_symbol
 _atom_site_label
 _atom_site_symmetry_multiplicity
 _atom_site_fract_x
 _atom_site_fract_y
 _atom_site_fract_z
 _atom_site_occupancy
  In  In0  1  -0.01727345  0.17466003  0.14795939  1
  In  In1  1  0.01025101  0.18122791  0.61305512  1
  In  In2  1  0.00680620  0.49196491  0.13204398  1
  In  In3  1  -0.00997123  0.48950897  0.61429634  1
  In  In4  1  -0.00050625  0.82962525  0.12945503  1
  In  In5  1  -0.00208320  0.82716130  0.61453392  1
  In  In6  1  0.33909487  0.15212827  0.12165449  1
  In  In7  1  0.33454864  0.16917207  0.61257965  1
  In  In8  1  0.33249104  0.52220147  0.13245672  1
  In  In9  1  0.33701507  0.50685622  0.61917037  1
  In  In10  1  0.32006375  0.82637017  0.11556317  1
  In  In11  1  0.32176758  0.83668949  0.62794702  1
  In  In12  1  0.65853831  0.17668226  0.13428344  1
  In  In13  1  0.67892947  0.17855395  0.61112660  1
  In  In14  1  0.65634504  0.49249453  0.14719118  1
  In  In15  1  0.66430615  0.49669724  0.61897610  1
  In  In16  1  0.65721376  0.82699744  0.11938771  1
  In  In17  1  0.66917310  0.82198559  0.62159068  1
  In  In18  1  0.15752979  0.00986830  0.38105864  1
  In  In19  1  0.15502659  -0.00481640  0.87849156  1
  In  In20  1  0.15426415  0.34391774  0.38338220  1
  In  In21  1  0.16633202  0.34860232  0.87493832  1
  In  In22  1  0.16747838  0.66653855  0.37470355  1
  In  In23  1  0.17383348  0.65734157  0.88084818  1
  In  In24  1  0.50675015  0.01059968  0.37253145  1
  In  In25  1  0.50020822  -0.00426456  0.88476582  1
  In  In26  1  0.51407267  0.32639596  0.37691845  1
  In  In27  1  0.50489899  0.32564787  0.87471706  1
  In  In28  1  0.48796486  0.64830952  0.35570903  1
  In  In29  1  0.49326822  0.68230357  0.87435741  1
  In  In30  1  0.83936602  -0.01105076  0.37865155  1
  In  In31  1  0.82637757  0.00085725  0.87993078  1
  In  In32  1  0.83766175  0.33108854  0.37414223  1
  In  In33  1  0.83625534  0.34144640  0.85633871  1
  In  In34  1  0.83547124  0.66411733  0.37430935  1
  In  In35  1  0.84515028  0.66864750  0.87908948  1
  In  In36  1  -0.00529718  0.16783454  0.37316850  1
  In  In37  1  -0.00942832  0.17295111  0.87214590  1
  In  In38  1  -0.00022271  0.49974126  0.37514651  1
  In  In39  1  0.01067033  0.50279074  0.86892070  1
  In  In40  1  0.00280332  0.83098382  0.37328846  1
  In  In41  1  0.00368541  0.83503534  0.88895528  1
  In  In42  1  0.33752860  0.16544262  0.38135629  1
  In  In43  1  0.34429683  0.17498645  0.87734775  1
  In  In44  1  0.32499736  0.50704084  0.38265998  1
  In  In45  1  0.30968113  0.51045491  0.87551926  1
  In  In46  1  0.33598759  0.81618838  0.37096180  1
  In  In47  1  0.34696265  0.81783808  0.88709747  1
  In  In48  1  0.65801658  0.18260497  0.37559627  1
  In  In49  1  0.66309188  0.17204151  0.87361575  1
  In  In50  1  0.66756200  0.50169622  0.37423354  1
  In  In51  1  0.67580874  0.48996304  0.87136201  1
  In  In52  1  0.67932766  0.82790592  0.37502617  1
  In  In53  1  0.66216419  0.83617791  0.88654764  1
  In  In54  1  0.16485368  -0.01338475  0.12662128  1
  In  In55  1  0.16367757  -0.00192443  0.61591473  1
  In  In56  1  0.15355290  0.33384325  0.12570534  1
  In  In57  1  0.16377264  0.33528947  0.61647278  1
  In  In58  1  0.16412657  0.66573050  0.12734802  1
  In  In59  1  0.16832798  0.66860372  0.61626530  1
  In  In60  1  0.49036318  -0.00199848  0.10835801  1
  In  In61  1  0.48806157  0.00550151  0.62449324  1
  In  In62  1  0.51182008  0.33131606  0.13025379  1
  In  In63  1  0.50906963  0.34480384  0.61546189  1
  In  In64  1  0.48770885  0.66840109  0.13976701  1
  In  In65  1  0.50420496  0.65562952  0.62572642  1
  In  In66  1  0.84724205  0.00186400  0.13312381  1
  In  In67  1  0.82971949  -0.00072055  0.61377634  1
  In  In68  1  0.82502315  0.33408213  0.13964087  1
  In  In69  1  0.83634774  0.33775774  0.62033190  1
  In  In70  1  0.82337922  0.67208531  0.13436709  1
  In  In71  1  0.82974426  0.66292805  0.61036659  1
  In  In72  1  0.50519948  0.83428485  0.49735617  1
  In  In73  1  0.17037938  0.15519138  0.00534532  1
  In  In74  1  0.33081523  -0.00374765  0.25095479  1
  In  In75  1  -0.00174555  0.65776140  0.74617474  1
  In  In76  1  0.83718476  0.50281264  0.00203188  1
  In  In77  1  0.33778185  0.34066394  0.74520810  1
  In  In78  1  0.49715534  0.50288260  0.01193785  1
  In  In79  1  -0.00042581  0.00346379  0.74931419  1
  In  In80  1  0.66895254  0.00029362  0.24978944  1
  In  In81  1  0.66315378  0.65969368  0.74427375  1
  In  In82  1  0.66457715  0.00192497  0.75816815  1
  In  In83  1  0.33402836  -0.00373914  0.75722254  1
  In  In84  1  0.33358652  0.33436838  0.25568667  1
  In  In85  1  0.83028701  0.16634619  0.00883051  1
  Cu  Cu86  1  0.83909865  0.82820752  0.25379926  1
  Cu  Cu87  1  -0.00115222  -0.00158560  0.49645604  1
  Cu  Cu88  1  0.67081634  0.33804948  0.49681134  1
  Cu  Cu89  1  0.49427595  0.50054250  0.74679876  1
  Cu  Cu90  1  0.66994364  -0.00484467  0.00126335  1
  Cu  Cu91  1  0.16782226  0.50578596  0.25620127  1
  Cu  Cu92  1  0.33376491  0.33575201  0.49709526  1
  Cu  Cu93  1  0.00410512  -0.00485486  0.01105634  1
  Cu  Cu94  1  0.00526406  0.33756359  0.00113790  1
  Cu  Cu95  1  0.16521302  0.82261519  0.74903515  1
  Cu  Cu96  1  0.00368844  0.67205628  0.00436253  1
  Cu  Cu97  1  0.66632803  0.00761522  0.49285662  1
  Cu  Cu98  1  0.66375116  0.67089828  0.00658705  1
  Cu  Cu99  1  0.66820210  0.66478203  0.49495959  1
  Cu  Cu100  1  -0.00343008  0.33081143  0.49482688  1
  Cu  Cu101  1  0.51256572  0.17410034  0.74617223  1
  Cu  Cu102  1  0.50043025  0.82851644  0.24466580  1
  Cu  Cu103  1  0.67024376  0.33000436  0.00539144  1
  Cu  Cu104  1  0.33476191  0.66896364  0.49694198  1
  Cu  Cu105  1  0.33206121  -0.00038395  0.49915959  1
  Cu  Cu106  1  0.15691927  0.16815382  0.25648048  1
  Cu  Cu107  1  0.16402295  0.82734811  0.24864073  1
  Cu  Cu108  1  0.00328626  0.66687274  0.49213337  1
  Cu  Cu109  1  0.83748853  0.49900029  0.25765259  1
  Cu  Cu110  1  0.82900840  0.82922438  0.75294860  1
  Cu  Cu111  1  0.32812407  0.66733620  0.00427425  1
  Cu  Cu112  1  0.17194683  0.17401051  0.73986726  1
  Cu  Cu113  1  0.83852927  0.17784910  0.73745890  1
  Cu  Cu114  1  0.33709400  0.33466970  -0.00227027  1
  Se  Se115  1  0.06972134  0.08700871  0.07196921  1
  Se  Se116  1  0.08292663  0.08300195  0.54985760  1
  Se  Se117  1  0.08684316  0.42290851  0.05249154  1
  Se  Se118  1  0.08202785  0.41624227  0.54589176  1
  Se  Se119  1  0.08733266  0.75445799  0.05815283  1
  Se  Se120  1  0.08587097  0.75123353  0.54728357  1
  Se  Se121  1  0.41742418  0.09050763  0.04257995  1
  Se  Se122  1  0.41980281  0.08402755  0.54721285  1
  Se  Se123  1  0.40707394  0.41025744  0.06897320  1
  Se  Se124  1  0.41669060  0.42098238  0.55079307  1
  Se  Se125  1  0.41813851  0.74254671  0.05911908  1
  Se  Se126  1  0.41378353  0.74876418  0.56013674  1
  Se  Se127  1  0.74128279  0.07474071  0.06707623  1
  Se  Se128  1  0.75462979  0.08725585  0.54528352  1
  Se  Se129  1  0.74344415  0.41696632  0.06442552  1
  Se  Se130  1  0.75358393  0.42130922  0.55096267  1
  Se  Se131  1  0.75418531  0.75072116  0.05579410  1
  Se  Se132  1  0.74956573  0.75349187  0.54550043  1
  Se  Se133  1  0.25589999  0.25644713  0.06124427  1
  Se  Se134  1  0.24809394  0.25152966  0.54897680  1
  Se  Se135  1  0.24567894  0.58148738  0.05565788  1
  Se  Se136  1  0.25126584  0.58402080  0.54876455  1
  Se  Se137  1  0.26183762  0.93483068  0.05551375  1
  Se  Se138  1  0.24993882  0.91398482  0.55102830  1
  Se  Se139  1  0.58312860  0.24767012  0.05472492  1
  Se  Se140  1  0.58282601  0.25325376  0.54799361  1
  Se  Se141  1  0.59311595  0.58745276  0.06973711  1
  Se  Se142  1  0.58380830  0.58426067  0.55074073  1
  Se  Se143  1  0.58092241  0.91196803  0.04897133  1
  Se  Se144  1  0.59168284  0.92783320  0.55987545  1
  Se  Se145  1  0.92288429  0.26085593  0.06270474  1
  Se  Se146  1  0.91127198  0.24894862  0.54897639  1
  Se  Se147  1  0.92385072  0.59031284  0.06497262  1
  Se  Se148  1  0.91880863  0.58381857  0.54618420  1
  Se  Se149  1  0.91502716  0.91418658  0.06017974  1
  Se  Se150  1  0.91505017  0.91403289  0.55011890  1
  Se  Se151  1  0.08196056  0.24452297  0.44519900  1
  Se  Se152  1  0.08139781  0.24947024  0.94358460  1
  Se  Se153  1  0.08759329  0.58033685  0.44344231  1
  Se  Se154  1  0.07719678  0.58438263  0.94615634  1
  Se  Se155  1  0.08381013  0.91409157  0.44512151  1
  Se  Se156  1  0.08931237  0.91538837  0.95711759  1
  Se  Se157  1  0.41981768  0.25326362  0.44532448  1
  Se  Se158  1  0.42466225  0.25232836  0.94995122  1
  Se  Se159  1  0.42128646  0.58842499  0.44409829  1
  Se  Se160  1  0.41077415  0.58665523  0.94353544  1
  Se  Se161  1  0.41198393  0.92218972  0.43548805  1
  Se  Se162  1  0.41242995  0.91826272  0.94944082  1
  Se  Se163  1  0.75167370  0.25119407  0.44467927  1
  Se  Se164  1  0.75367425  0.26054456  0.94006625  1
  Se  Se165  1  0.75432906  0.58086025  0.44488593  1
  Se  Se166  1  0.74012567  0.59106639  0.94300769  1
  Se  Se167  1  0.74745881  0.91500953  0.44783898  1
  Se  Se168  1  0.75659496  0.91297779  0.95039019  1
  Se  Se169  1  0.24965163  0.08544009  0.44731535  1
  Se  Se170  1  0.25814936  0.07777180  0.93535480  1
  Se  Se171  1  0.24592004  0.41996547  0.44980082  1
  Se  Se172  1  0.24986081  0.41788895  0.94975855  1
  Se  Se173  1  0.24960495  0.75189181  0.44561315  1
  Se  Se174  1  0.24465262  0.74978106  0.94945400  1
  Se  Se175  1  0.58000651  0.09186448  0.44519265  1
  Se  Se176  1  0.59394607  0.08113623  0.94304421  1
  Se  Se177  1  0.58435969  0.42024381  0.44527756  1
  Se  Se178  1  0.58916471  0.41486306  0.94774457  1
  Se  Se179  1  0.58309532  0.74002036  0.43401751  1
  Se  Se180  1  0.57836832  0.74848890  0.95044611  1
  Se  Se181  1  0.91566517  0.08226770  0.44404370  1
  Se  Se182  1  0.92679244  0.07677726  0.94771239  1
  Se  Se183  1  0.91493738  0.41898586  0.44461246  1
  Se  Se184  1  0.92036689  0.40945671  0.93912866  1
  Se  Se185  1  0.91642465  0.75137559  0.44287311  1
  Se  Se186  1  0.91502822  0.75224181  0.95279112  1
  Se  Se187  1  0.24074822  0.24514062  0.31523210  1
  Se  Se188  1  0.24901868  0.24708605  0.80710891  1
  Se  Se189  1  0.25572567  0.58766134  0.30479609  1
  Se  Se190  1  0.23659875  0.58272581  0.79867432  1
  Se  Se191  1  0.24112680  0.90865807  0.31206155  1
  Se  Se192  1  0.23752958  0.90764242  0.81083988  1
  Se  Se193  1  0.58224440  0.25195864  0.29581517  1
  Se  Se194  1  0.59219706  0.25852135  0.80054720  1
  Se  Se195  1  0.60157100  0.59373660  0.30198683  1
  Se  Se196  1  0.57420761  0.57663828  0.81322708  1
  Se  Se197  1  0.57604323  0.90598413  0.30887764  1
  Se  Se198  1  0.57365539  0.90596865  0.80955774  1
  Se  Se199  1  0.92687538  0.25980797  0.30334056  1
  Se  Se200  1  0.92408174  0.25350333  0.79552401  1
  Se  Se201  1  0.92232237  0.58603258  0.30462551  1
  Se  Se202  1  0.90244612  0.57175880  0.80591316  1
  Se  Se203  1  0.92026372  0.91562070  0.30361755  1
  Se  Se204  1  0.91061854  0.91095394  0.81071435  1
  Se  Se205  1  0.07643984  0.07828948  0.30468758  1
  Se  Se206  1  0.09378818  0.09662937  0.80542913  1
  Se  Se207  1  0.08386314  0.41810837  0.30387392  1
  Se  Se208  1  0.07861706  0.40979139  0.80162565  1
  Se  Se209  1  0.08221245  0.74468862  0.30389409  1
  Se  Se210  1  0.07874361  0.75262890  0.81141729  1
  Se  Se211  1  0.42222426  0.09354924  0.30245513  1
  Se  Se212  1  0.43273863  0.09343406  0.80605627  1
  Se  Se213  1  0.41922920  0.42033825  0.31907863  1
  Se  Se214  1  0.41964413  0.42632213  0.81603496  1
  Se  Se215  1  0.41172813  0.74517923  0.29319811  1
  Se  Se216  1  0.40504552  0.74697565  0.80210156  1
  Se  Se217  1  0.74911040  0.08389140  0.31836787  1
  Se  Se218  1  0.76580727  0.09821101  0.80499877  1
  Se  Se219  1  0.75121700  0.41497727  0.30729666  1
  Se  Se220  1  0.74231821  0.41470937  0.79347414  1
  Se  Se221  1  0.75150980  0.74506571  0.30204717  1
  Se  Se222  1  0.74908380  0.75074262  0.81239762  1
  Se  Se223  1  0.23816731  0.09134370  0.19429949  1
  Se  Se224  1  0.24976506  0.08519334  0.68789281  1
  Se  Se225  1  0.24375083  0.42269794  0.19250974  1
  Se  Se226  1  0.24434763  0.42500580  0.68730374  1
  Se  Se227  1  0.25180599  0.74875781  0.19472037  1
  Se  Se228  1  0.24762782  0.74378500  0.69356696  1
  Se  Se229  1  0.56921794  0.07668879  0.18811322  1
  Se  Se230  1  0.58620981  0.08836960  0.68636382  1
  Se  Se231  1  0.59039035  0.39211875  0.21081203  1
  Se  Se232  1  0.58067485  0.42179449  0.69345742  1
  Se  Se233  1  0.58965465  0.74625121  0.19669733  1
  Se  Se234  1  0.57311645  0.75937447  0.69349184  1
  Se  Se235  1  0.90713566  0.08331926  0.21137242  1
  Se  Se236  1  0.91452546  0.08857222  0.68279679  1
  Se  Se237  1  0.91753097  0.41598907  0.19989231  1
  Se  Se238  1  0.92045501  0.41344512  0.69204979  1
  Se  Se239  1  0.92060255  0.74373797  0.19900844  1
  Se  Se240  1  0.90619962  0.75314024  0.68891802  1
  Se  Se241  1  0.08112060  0.25759558  0.20275684  1
  Se  Se242  1  0.08513694  0.25504074  0.69064849  1
  Se  Se243  1  0.08315232  0.58394121  0.19816360  1
  Se  Se244  1  0.08458282  0.57572318  0.68110955  1
  Se  Se245  1  0.08113865  0.91511650  0.19953304  1
  Se  Se246  1  0.08599974  0.90683429  0.69060333  1
  Se  Se247  1  0.41587846  0.24200340  0.19138609  1
  Se  Se248  1  0.42425827  0.24558052  0.68644557  1
  Se  Se249  1  0.43662047  0.55942846  0.20287683  1
  Se  Se250  1  0.41316081  0.58597388  0.69567864  1
  Se  Se251  1  0.41953102  0.91000077  0.18679164  1
  Se  Se252  1  0.42408921  0.90838086  0.69489134  1
  Se  Se253  1  0.76209956  0.22967409  0.19946052  1
  Se  Se254  1  0.74704191  0.25623676  0.68940146  1
  Se  Se255  1  0.75212742  0.57799373  0.20141814  1
  Se  Se256  1  0.76026123  0.57680198  0.68766100  1
  Se  Se257  1  0.75508132  0.90457660  0.19102284  1
  Se  Se258  1  0.75309464  0.91255834  0.69245582  1
