# generated using pymatgen
data_In86Cu29Se144
_symmetry_space_group_name_H-M   'P 1'
_cell_length_a   17.57207228
_cell_length_b   17.57388637
_cell_length_c   23.43131674
_cell_angle_alpha   90.00935000
_cell_angle_beta   90.03168978
_cell_angle_gamma   89.99529923
_symmetry_Int_Tables_number   1
_chemical_formula_structural   In86Cu29Se144
_chemical_formula_sum   'In86 Cu29 Se144'
_cell_volume   7235.81435600
_cell_formula_units_Z   1
loop_
 _symmetry_equiv_pos_site_id
 _symmetry_equiv_pos_as_xyz
  1  'x, y, z'
loop_
 _atom_site_type_symbol
 _atom_site_label
 _atom_site_symmetry_multiplicity
 _atom_site_fract_x
 _atom_site_fract_y
 _atom_site_fract_z
 _atom_site_occupancy
  In  In0  1  -0.01193220  0.17371469  0.12834253  1
  In  In1  1  -0.00364662  0.15264191  0.62317609  1
  In  In2  1  -0.00066001  0.48457539  0.12536376  1
  In  In3  1  0.01151068  0.50563119  0.62668433  1
  In  In4  1  -0.00459306  0.84919814  0.13329363  1
  In  In5  1  0.00699015  0.83893628  0.61435230  1
  In  In6  1  0.35313030  0.16744356  0.12167342  1
  In  In7  1  0.32945072  0.18003514  0.62748328  1
  In  In8  1  0.33533816  0.49806743  0.12336778  1
  In  In9  1  0.34193535  0.48424116  0.63717916  1
  In  In10  1  0.32239766  0.83013137  0.12978216  1
  In  In11  1  0.33116887  0.82951663  0.62973351  1
  In  In12  1  0.66680169  0.16804201  0.12972632  1
  In  In13  1  0.66926654  0.17580092  0.62821203  1
  In  In14  1  0.65495989  0.50868118  0.13160220  1
  In  In15  1  0.65804169  0.50634490  0.62711415  1
  In  In16  1  0.67233145  0.82123329  0.13292010  1
  In  In17  1  0.62721713  0.79195247  0.57544709  1
  In  In18  1  0.16899554  0.01018614  0.38327920  1
  In  In19  1  0.17000167  -0.01017114  0.86828231  1
  In  In20  1  0.16452608  0.32415832  0.36861164  1
  In  In21  1  0.18550161  0.34061458  0.87151137  1
  In  In22  1  0.18638996  0.66307418  0.37789689  1
  In  In23  1  0.16947405  0.66023701  0.87427190  1
  In  In24  1  0.50413953  -0.01380985  0.38358401  1
  In  In25  1  0.49859421  0.01145239  0.87166679  1
  In  In26  1  0.51189482  0.34964898  0.37055152  1
  In  In27  1  0.50229032  0.33342875  0.87814625  1
  In  In28  1  0.50400521  0.67063888  0.38024000  1
  In  In29  1  0.49094760  0.65290528  0.86680388  1
  In  In30  1  0.82062196  -0.01075481  0.36674690  1
  In  In31  1  0.82815721  -0.00170632  0.88465889  1
  In  In32  1  0.82820088  0.32780073  0.36606531  1
  In  In33  1  0.81560546  0.32988655  0.87633363  1
  In  In34  1  0.82420780  0.68440772  0.38049750  1
  In  In35  1  0.83508142  0.67983158  0.87483214  1
  In  In36  1  0.00798881  0.16955076  0.36636157  1
  In  In37  1  -0.01023852  0.15938990  0.88012124  1
  In  In38  1  0.00809040  0.49062901  0.36872288  1
  In  In39  1  0.00724157  0.51251328  0.88094165  1
  In  In40  1  -0.00944827  0.84881412  0.37976366  1
  In  In41  1  -0.00856180  0.82614695  0.87815042  1
  In  In42  1  0.32020899  0.16310390  0.37674568  1
  In  In43  1  0.34465367  0.18132687  0.86259723  1
  In  In44  1  0.34859516  0.51197052  0.36887326  1
  In  In45  1  0.33831517  0.50212288  0.87740375  1
  In  In46  1  0.34846654  0.82758593  0.39206370  1
  In  In47  1  0.32584355  0.82498181  0.84923059  1
  In  In48  1  0.66989434  0.17266483  0.36824409  1
  In  In49  1  0.65874849  0.16805597  0.88188332  1
  In  In50  1  0.65213638  0.49566781  0.37580096  1
  In  In51  1  0.65664470  0.49054505  0.86998982  1
  In  In52  1  0.66435024  0.83324627  0.37784016  1
  In  In53  1  0.67739195  0.83395084  0.87208198  1
  In  In54  1  0.16234405  -0.01285212  0.13011117  1
  In  In55  1  0.17607222  0.00188103  0.61536195  1
  In  In56  1  0.15952842  0.33786850  0.12729935  1
  In  In57  1  0.18328207  0.33661686  0.62400523  1
  In  In58  1  0.18360120  0.66638196  0.12795305  1
  In  In59  1  0.17487210  0.68189269  0.63092680  1
  In  In60  1  0.50160399  0.01588618  0.12552719  1
  In  In61  1  0.49838572  -0.01904600  0.61355903  1
  In  In62  1  0.50018288  0.33528843  0.12842930  1
  In  In63  1  0.49821010  0.33931737  0.62587855  1
  In  In64  1  0.50738788  0.65574580  0.12925064  1
  In  In65  1  0.49959548  0.65548743  0.62596568  1
  In  In66  1  0.82781640  0.00034952  0.12838815  1
  In  In67  1  0.83256338  -0.00629895  0.62179073  1
  In  In68  1  0.84146045  0.32507261  0.13098158  1
  In  In69  1  0.81940866  0.32422799  0.63226177  1
  In  In70  1  0.81511797  0.66238890  0.12589666  1
  In  In71  1  0.81618812  0.67109688  0.61975704  1
  In  In72  1  -0.00074348  0.00088531  0.74124684  1
  In  In73  1  0.50124937  0.83681783  -0.00504126  1
  In  In74  1  0.49791968  0.16383257  0.49618084  1
  In  In75  1  -0.00088445  0.33579821  0.75961083  1
  In  In76  1  0.82936254  0.16207650  0.49445804  1
  In  In77  1  0.17625838  0.49966919  0.50176329  1
  In  In78  1  -0.00264530  0.66300202  0.25657095  1
  In  In79  1  0.82536432  0.50277353  0.49564352  1
  In  In80  1  0.16680611  0.16993500  -0.00336687  1
  In  In81  1  0.66448734  -0.00226075  0.74400049  1
  In  In82  1  0.16351968  0.82961766  -0.00343750  1
  In  In83  1  0.00583684  0.67085647  0.75306476  1
  In  In84  1  0.33741106  -0.00092959  0.25558786  1
  In  In85  1  0.82827789  0.49700397  0.00456214  1
  Cu  Cu86  1  0.66846652  0.00083041  0.00318179  1
  Cu  Cu87  1  0.00031830  0.67225148  0.00134497  1
  Cu  Cu88  1  0.82550968  0.49868457  0.24863745  1
  Cu  Cu89  1  0.49499349  0.50173872  0.25001164  1
  Cu  Cu90  1  0.50437437  0.49640114  0.75220737  1
  Cu  Cu91  1  0.33843905  0.33681780  0.50012019  1
  Cu  Cu92  1  0.66465999  0.66598658  0.00236311  1
  Cu  Cu93  1  0.16834883  0.83062234  0.25730258  1
  Cu  Cu94  1  0.50662159  0.82759527  0.73568037  1
  Cu  Cu95  1  0.34139597  0.33672968  -0.00201799  1
  Cu  Cu96  1  0.34072145  0.66652596  0.50459265  1
  Cu  Cu97  1  0.83635929  0.16253272  0.24878765  1
  Cu  Cu98  1  0.16563674  0.17084530  0.74462133  1
  Cu  Cu99  1  0.82959295  0.83124590  0.74550462  1
  Cu  Cu100  1  0.00232623  0.32224189  0.49364033  1
  Cu  Cu101  1  0.34120831  0.66166120  0.00085904  1
  Cu  Cu102  1  0.17072017  0.49255500  0.24953885  1
  Cu  Cu103  1  0.49833028  0.82941414  0.25784070  1
  Cu  Cu104  1  0.16849364  0.16424971  0.24878982  1
  Cu  Cu105  1  0.82773732  0.83612116  0.25359613  1
  Cu  Cu106  1  0.33813141  0.00457055  -0.00822858  1
  Cu  Cu107  1  0.49786695  0.16975354  0.74942140  1
  Cu  Cu108  1  0.00029045  0.33447273  0.00372167  1
  Cu  Cu109  1  0.66083689  0.32804119  0.00426833  1
  Cu  Cu110  1  -0.01120761  0.00392458  0.00749318  1
  Cu  Cu111  1  0.82593765  0.49815455  0.74737796  1
  Cu  Cu112  1  0.00454604  0.00248328  0.49660193  1
  Cu  Cu113  1  0.00217632  0.66882987  0.50021151  1
  Cu  Cu114  1  0.50298004  0.17239280  0.25065478  1
  Se  Se115  1  0.08150154  0.07810350  0.06092121  1
  Se  Se116  1  0.08470343  0.08598892  0.55173427  1
  Se  Se117  1  0.08693387  0.41914489  0.05077125  1
  Se  Se118  1  0.07730857  0.40724023  0.55500558  1
  Se  Se119  1  0.07761778  0.74811796  0.06782964  1
  Se  Se120  1  0.08958757  0.74614600  0.55383523  1
  Se  Se121  1  0.42204842  0.08335474  0.04668520  1
  Se  Se122  1  0.40928237  0.08286595  0.56181670  1
  Se  Se123  1  0.42237367  0.41837390  0.05529857  1
  Se  Se124  1  0.41768396  0.42156456  0.55433598  1
  Se  Se125  1  0.41286197  0.74971628  0.06093827  1
  Se  Se126  1  0.41980543  0.74961702  0.56120691  1
  Se  Se127  1  0.74869070  0.08565773  0.05852822  1
  Se  Se128  1  0.73907826  0.07834142  0.55790536  1
  Se  Se129  1  0.74069499  0.40885742  0.06646158  1
  Se  Se130  1  0.74509152  0.41120622  0.56023288  1
  Se  Se131  1  0.74843704  0.75072180  0.05256189  1
  Se  Se132  1  0.76654183  0.76330777  0.54470766  1
  Se  Se133  1  0.25902916  0.25535690  0.05806370  1
  Se  Se134  1  0.25112436  0.25328821  0.54885277  1
  Se  Se135  1  0.25170927  0.58306801  0.05328041  1
  Se  Se136  1  0.26096456  0.58663356  0.56616309  1
  Se  Se137  1  0.25798754  0.92554761  0.05293660  1
  Se  Se138  1  0.24174196  0.89779559  0.55672977  1
  Se  Se139  1  0.57890881  0.24586524  0.06013171  1
  Se  Se140  1  0.58657508  0.25626088  0.55577511  1
  Se  Se141  1  0.58121232  0.58002559  0.05141550  1
  Se  Se142  1  0.59241034  0.59169031  0.55285445  1
  Se  Se143  1  0.58783388  0.91949258  0.06291513  1
  Se  Se144  1  0.59032227  0.92578327  0.54019634  1
  Se  Se145  1  0.91367979  0.25032429  0.05129380  1
  Se  Se146  1  0.91768257  0.25420841  0.55856173  1
  Se  Se147  1  0.92235336  0.58931456  0.06266748  1
  Se  Se148  1  0.92332879  0.58726542  0.55873831  1
  Se  Se149  1  0.91035791  0.91417633  0.05814653  1
  Se  Se150  1  0.91937383  0.92163531  0.55031725  1
  Se  Se151  1  0.08905046  0.24239260  0.44283270  1
  Se  Se152  1  0.07771772  0.26128210  0.93567327  1
  Se  Se153  1  0.07909962  0.58535482  0.44084620  1
  Se  Se154  1  0.08820551  0.59086361  0.95201182  1
  Se  Se155  1  0.08819415  0.91601972  0.44597144  1
  Se  Se156  1  0.07070609  0.92854921  0.94345014  1
  Se  Se157  1  0.41381648  0.25865577  0.43472399  1
  Se  Se158  1  0.41778407  0.24643557  0.94518745  1
  Se  Se159  1  0.42083701  0.58356223  0.44829956  1
  Se  Se160  1  0.42571210  0.57928587  0.94913737  1
  Se  Se161  1  0.40051870  0.93911804  0.45177375  1
  Se  Se162  1  0.40605704  0.91540955  0.93055642  1
  Se  Se163  1  0.74094780  0.26317088  0.44437605  1
  Se  Se164  1  0.74686625  0.24698177  0.95137275  1
  Se  Se165  1  0.73465191  0.59542514  0.44185944  1
  Se  Se166  1  0.74618428  0.58717080  0.93909499  1
  Se  Se167  1  0.75928392  0.90714523  0.44415120  1
  Se  Se168  1  0.74687419  0.91142642  0.95074198  1
  Se  Se169  1  0.25583861  0.08326392  0.45392197  1
  Se  Se170  1  0.25459486  0.08230647  0.93297585  1
  Se  Se171  1  0.25812215  0.41310908  0.43449956  1
  Se  Se172  1  0.25367838  0.41989269  0.94857023  1
  Se  Se173  1  0.25252544  0.74685983  0.45319148  1
  Se  Se174  1  0.26493946  0.74830817  0.94101442  1
  Se  Se175  1  0.59750401  0.08013901  0.43982512  1
  Se  Se176  1  0.58047056  0.07830963  0.94897789  1
  Se  Se177  1  0.57765438  0.42115645  0.45274015  1
  Se  Se178  1  0.58519425  0.41596377  0.94880480  1
  Se  Se179  1  0.57356544  0.76361779  0.45036642  1
  Se  Se180  1  0.58737173  0.74220965  0.93623295  1
  Se  Se181  1  0.92190172  0.07750435  0.43345534  1
  Se  Se182  1  0.90714629  0.08649993  0.95260373  1
  Se  Se183  1  0.92215533  0.40877726  0.44025118  1
  Se  Se184  1  0.92030590  0.41280295  0.93946080  1
  Se  Se185  1  0.92076150  0.75218888  0.44616628  1
  Se  Se186  1  0.91153958  0.75325168  0.95287642  1
  Se  Se187  1  0.25363641  0.24704242  0.29999671  1
  Se  Se188  1  0.25038732  0.25463946  0.79641288  1
  Se  Se189  1  0.25122322  0.58049508  0.30088366  1
  Se  Se190  1  0.26546684  0.59483063  0.80966505  1
  Se  Se191  1  0.25055002  0.90997869  0.31695328  1
  Se  Se192  1  0.25331347  0.92684897  0.79329827  1
  Se  Se193  1  0.58639068  0.25758074  0.30260213  1
  Se  Se194  1  0.58199383  0.24719048  0.80755956  1
  Se  Se195  1  0.57766106  0.58490975  0.30609999  1
  Se  Se196  1  0.58938227  0.58496872  0.80071440  1
  Se  Se197  1  0.58243338  0.91626068  0.30590014  1
  Se  Se198  1  0.57422025  0.90713135  0.80732343  1
  Se  Se199  1  0.91855243  0.24999628  0.30091047  1
  Se  Se200  1  0.90497040  0.24098334  0.80948634  1
  Se  Se201  1  0.90307388  0.57524079  0.31551381  1
  Se  Se202  1  0.90868529  0.57639948  0.80777461  1
  Se  Se203  1  0.91814134  0.91960043  0.29931431  1
  Se  Se204  1  0.90801683  0.91225418  0.80644266  1
  Se  Se205  1  0.09014778  0.07785909  0.30335861  1
  Se  Se206  1  0.08657494  0.09355328  0.80682872  1
  Se  Se207  1  0.08367846  0.40838118  0.29790392  1
  Se  Se208  1  0.09222425  0.43159641  0.80998988  1
  Se  Se209  1  0.08703477  0.75076459  0.31765921  1
  Se  Se210  1  0.09389008  0.76581982  0.81107526  1
  Se  Se211  1  0.42773977  0.09004537  0.31409908  1
  Se  Se212  1  0.41394969  0.08177486  0.79790770  1
  Se  Se213  1  0.41388411  0.41387775  0.30159735  1
  Se  Se214  1  0.42009254  0.41612389  0.80879601  1
  Se  Se215  1  0.41343458  0.74931038  0.31139855  1
  Se  Se216  1  0.42662106  0.74678021  0.79533671  1
  Se  Se217  1  0.74782281  0.08390670  0.30125632  1
  Se  Se218  1  0.74880887  0.08242032  0.81253094  1
  Se  Se219  1  0.74359489  0.41935531  0.30698637  1
  Se  Se220  1  0.74667487  0.41356245  0.80204786  1
  Se  Se221  1  0.74344973  0.75052449  0.30301254  1
  Se  Se222  1  0.74874904  0.74656466  0.79973942  1
  Se  Se223  1  0.25019837  0.08600287  0.18677808  1
  Se  Se224  1  0.24623585  0.08786762  0.68963142  1
  Se  Se225  1  0.25308940  0.41272348  0.19238497  1
  Se  Se226  1  0.24377704  0.41652163  0.70213889  1
  Se  Se227  1  0.25222560  0.74810793  0.20485223  1
  Se  Se228  1  0.25845686  0.74715497  0.70572516  1
  Se  Se229  1  0.58462081  0.08365992  0.20062450  1
  Se  Se230  1  0.57068900  0.08728369  0.68531907  1
  Se  Se231  1  0.58185445  0.41742216  0.19942028  1
  Se  Se232  1  0.58650709  0.41433944  0.69629521  1
  Se  Se233  1  0.57888227  0.74720210  0.19852181  1
  Se  Se234  1  0.59284476  0.75127874  0.67999984  1
  Se  Se235  1  0.91974601  0.07833009  0.19551578  1
  Se  Se236  1  0.89743609  0.09252187  0.69524913  1
  Se  Se237  1  0.91506659  0.41723637  0.20003872  1
  Se  Se238  1  0.91362970  0.42402831  0.68928544  1
  Se  Se239  1  0.90765933  0.75080338  0.19358761  1
  Se  Se240  1  0.91753195  0.75535084  0.68722680  1
  Se  Se241  1  0.08379708  0.24622677  0.19338517  1
  Se  Se242  1  0.07952798  0.24896404  0.68751973  1
  Se  Se243  1  0.08794998  0.57739813  0.19167567  1
  Se  Se244  1  0.09900301  0.57862867  0.69778472  1
  Se  Se245  1  0.08454449  0.91561321  0.20667771  1
  Se  Se246  1  0.09301030  0.91025104  0.68999387  1
  Se  Se247  1  0.41544472  0.25181854  0.19837030  1
  Se  Se248  1  0.41643653  0.25723211  0.69636745  1
  Se  Se249  1  0.41169081  0.58506497  0.19517040  1
  Se  Se250  1  0.41894790  0.57922040  0.69984702  1
  Se  Se251  1  0.42533005  0.90960181  0.19024605  1
  Se  Se252  1  0.42018423  0.91734890  0.69394332  1
  Se  Se253  1  0.75167853  0.25001668  0.19878264  1
  Se  Se254  1  0.74517252  0.24618656  0.70534575  1
  Se  Se255  1  0.74184206  0.58666981  0.20186593  1
  Se  Se256  1  0.74860925  0.58610042  0.69429207  1
  Se  Se257  1  0.74420067  0.91764775  0.19770093  1
  Se  Se258  1  0.74677336  0.90412627  0.68368641  1
