# generated using pymatgen
data_In86Cu29Se144
_symmetry_space_group_name_H-M   'P 1'
_cell_length_a   17.57073214
_cell_length_b   17.57004148
_cell_length_c   23.42314884
_cell_angle_alpha   90.00298629
_cell_angle_beta   89.99694950
_cell_angle_gamma   90.01874984
_symmetry_Int_Tables_number   1
_chemical_formula_structural   In86Cu29Se144
_chemical_formula_sum   'In86 Cu29 Se144'
_cell_volume   7231.15879446
_cell_formula_units_Z   1
loop_
 _symmetry_equiv_pos_site_id
 _symmetry_equiv_pos_as_xyz
  1  'x, y, z'
loop_
 _atom_site_type_symbol
 _atom_site_label
 _atom_site_symmetry_multiplicity
 _atom_site_fract_x
 _atom_site_fract_y
 _atom_site_fract_z
 _atom_site_occupancy
  In  In0  1  0.00647023  0.17174806  0.13174428  1
  In  In1  1  0.00305132  0.17073284  0.61743795  1
  In  In2  1  0.00674330  0.50948445  0.12088961  1
  In  In3  1  -0.00113777  0.50028817  0.62628803  1
  In  In4  1  -0.01384998  0.82411142  0.13356774  1
  In  In5  1  -0.00391738  0.82255435  0.60947871  1
  In  In6  1  0.34833106  0.15225326  0.13095960  1
  In  In7  1  0.32160548  0.15560075  0.61464886  1
  In  In8  1  0.33009053  0.50350625  0.11206765  1
  In  In9  1  0.33889404  0.52459406  0.63003158  1
  In  In10  1  0.34449504  0.84505974  0.12976968  1
  In  In11  1  0.33036561  0.83414493  0.61916899  1
  In  In12  1  0.65397383  0.17305409  0.13054183  1
  In  In13  1  0.67013614  0.17443583  0.61657987  1
  In  In14  1  0.66696606  0.50674442  0.11369797  1
  In  In15  1  0.66515241  0.49508011  0.63322006  1
  In  In16  1  0.66602212  0.82621865  0.13706394  1
  In  In17  1  0.66328254  0.82069662  0.60968839  1
  In  In18  1  0.18512217  -0.01876894  0.40445912  1
  In  In19  1  0.17671660  -0.00512625  0.86918464  1
  In  In20  1  0.16687229  0.33324172  0.38554219  1
  In  In21  1  0.16818609  0.34592903  0.86879911  1
  In  In22  1  0.15916501  0.67625186  0.38195476  1
  In  In23  1  0.15356711  0.65960173  0.86101253  1
  In  In24  1  0.50187634  -0.00663204  0.38153578  1
  In  In25  1  0.49581229  0.00764374  0.87378678  1
  In  In26  1  0.49068623  0.33315806  0.37693948  1
  In  In27  1  0.50869585  0.32703866  0.87314120  1
  In  In28  1  0.52837100  0.67240194  0.37675560  1
  In  In29  1  0.49803071  0.66079454  0.86329537  1
  In  In30  1  0.82718864  0.00183954  0.38690246  1
  In  In31  1  0.82873978  -0.00556547  0.87098605  1
  In  In32  1  0.83991337  0.32766236  0.38147905  1
  In  In33  1  0.84560089  0.34776087  0.86110645  1
  In  In34  1  0.82861307  0.65918096  0.38107999  1
  In  In35  1  0.80984217  0.64120488  0.85027379  1
  In  In36  1  0.01253209  0.14504162  0.40094674  1
  In  In37  1  -0.01552797  0.16866412  0.86654524  1
  In  In38  1  -0.01074325  0.51241027  0.38349988  1
  In  In39  1  -0.00054937  0.50306413  0.86825147  1
  In  In40  1  0.00818406  0.82121026  0.38560417  1
  In  In41  1  0.01212841  0.82844186  0.86873452  1
  In  In42  1  0.36144017  0.13287808  0.41169160  1
  In  In43  1  0.34622902  0.16513469  0.86996067  1
  In  In44  1  0.33460278  0.49182148  0.37891141  1
  In  In45  1  0.32013225  0.50463396  0.87742333  1
  In  In46  1  0.33176910  0.84194147  0.38561177  1
  In  In47  1  0.33963321  0.83244240  0.86319785  1
  In  In48  1  0.68040943  0.15624155  0.38398776  1
  In  In49  1  0.64624387  0.16631415  0.87316529  1
  In  In50  1  0.66975796  0.53262087  0.37572964  1
  In  In51  1  0.66943277  0.50242471  0.87234375  1
  In  In52  1  0.65945229  0.82704781  0.38499573  1
  In  In53  1  0.67333164  0.82006056  0.87138262  1
  In  In54  1  0.17719947  0.00724785  0.13285549  1
  In  In55  1  0.17656840  0.00705776  0.60815574  1
  In  In56  1  0.15826073  0.33835027  0.12348152  1
  In  In57  1  0.15275650  0.32759384  0.62428712  1
  In  In58  1  0.16645881  0.66022783  0.12594940  1
  In  In59  1  0.16986780  0.66315018  0.62003033  1
  In  In60  1  0.49309489  0.00963757  0.13607176  1
  In  In61  1  0.48093698  -0.00890318  0.60991116  1
  In  In62  1  0.50231543  0.33195729  0.11230979  1
  In  In63  1  0.51308363  0.33880909  0.62861384  1
  In  In64  1  0.50378164  0.66344909  0.12607151  1
  In  In65  1  0.49848030  0.66526450  0.63456281  1
  In  In66  1  0.82830873  -0.01972668  0.13456146  1
  In  In67  1  0.83811968  -0.00865783  0.60548441  1
  In  In68  1  0.81791002  0.34058605  0.12494233  1
  In  In69  1  0.82773919  0.33833395  0.62821909  1
  In  In70  1  0.83275553  0.66256324  0.12946475  1
  In  In71  1  0.83544683  0.66657656  0.62018999  1
  In  In72  1  0.33217376  0.33133144  0.74906799  1
  In  In73  1  0.66593558  0.33479854  0.24801467  1
  In  In74  1  0.18096752  0.18318563  -0.01010305  1
  In  In75  1  0.49970757  0.82981419  -0.00548488  1
  In  In76  1  0.33112550  0.33275049  0.25406976  1
  In  In77  1  0.66134163  -0.00247561  0.74354960  1
  In  In78  1  0.82377070  0.17658983  0.00532531  1
  In  In79  1  0.33093216  0.67442822  0.24810268  1
  In  In80  1  0.00510575  -0.00102046  0.72508928  1
  In  In81  1  0.00087252  -0.00747970  0.27145950  1
  In  In82  1  0.17412628  0.82935648  0.00994116  1
  In  In83  1  0.83475880  0.82363180  0.00418987  1
  In  In84  1  0.50129377  0.50190617  0.50217547  1
  In  In85  1  -0.00223471  0.33451189  0.25432662  1
  Cu  Cu86  1  0.32668204  0.33517054  0.50675980  1
  Cu  Cu87  1  0.67053002  0.33793337  -0.00557101  1
  Cu  Cu88  1  -0.00848067  0.66033772  -0.00842116  1
  Cu  Cu89  1  0.16364097  0.15629157  0.73935099  1
  Cu  Cu90  1  0.66692573  0.33962425  0.50118510  1
  Cu  Cu91  1  0.82550545  0.17801383  0.74271815  1
  Cu  Cu92  1  0.50245429  0.15866358  0.25915283  1
  Cu  Cu93  1  0.83608798  0.50297372  0.74394505  1
  Cu  Cu94  1  0.66089642  -0.00274621  0.50158379  1
  Cu  Cu95  1  0.17691800  0.82735099  0.74271521  1
  Cu  Cu96  1  0.81880149  0.82208319  0.25841885  1
  Cu  Cu97  1  0.16472628  0.50082594  0.74655166  1
  Cu  Cu98  1  0.01044036  0.01032908  -0.00051768  1
  Cu  Cu99  1  0.49426334  0.15838806  0.74424693  1
  Cu  Cu100  1  0.32775601  0.66741161  -0.00810424  1
  Cu  Cu101  1  0.16004473  0.50840323  0.25074188  1
  Cu  Cu102  1  0.33621588  0.33178242  -0.00815433  1
  Cu  Cu103  1  0.50066778  0.83168898  0.73869493  1
  Cu  Cu104  1  0.65946351  -0.00060518  0.00713404  1
  Cu  Cu105  1  0.82827633  0.50456169  0.25409462  1
  Cu  Cu106  1  -0.00207448  0.34889576  -0.00465666  1
  Cu  Cu107  1  0.18429812  0.16251931  0.26511357  1
  Cu  Cu108  1  0.50202133  0.83723835  0.25583792  1
  Cu  Cu109  1  0.33545360  0.66966845  0.50127936  1
  Cu  Cu110  1  0.83950739  0.15172338  0.26194846  1
  Cu  Cu111  1  -0.00579502  0.34040253  0.50688192  1
  Cu  Cu112  1  0.16479267  0.84109038  0.26286819  1
  Cu  Cu113  1  0.84329132  0.83465370  0.73772945  1
  Cu  Cu114  1  0.00356601  0.65695110  0.50228771  1
  Se  Se115  1  0.09003307  0.09031174  0.05821444  1
  Se  Se116  1  0.07028961  0.07502110  0.55166147  1
  Se  Se117  1  0.08637675  0.42361038  0.05162981  1
  Se  Se118  1  0.08445899  0.42125791  0.55555554  1
  Se  Se119  1  0.06689396  0.74175907  0.05730660  1
  Se  Se120  1  0.09155831  0.74512509  0.54719088  1
  Se  Se121  1  0.42888993  0.08500625  0.05506587  1
  Se  Se122  1  0.42025015  0.09574523  0.54632750  1
  Se  Se123  1  0.41539486  0.41683550  0.04892517  1
  Se  Se124  1  0.40946530  0.41499803  0.56512962  1
  Se  Se125  1  0.40349119  0.74385665  0.05769280  1
  Se  Se126  1  0.42045452  0.74366052  0.56009258  1
  Se  Se127  1  0.74630752  0.07422929  0.06695224  1
  Se  Se128  1  0.74662825  0.08233361  0.55123330  1
  Se  Se129  1  0.75342954  0.42124742  0.04750248  1
  Se  Se130  1  0.74641794  0.42170957  0.55772877  1
  Se  Se131  1  0.73634064  0.74029184  0.06006083  1
  Se  Se132  1  0.77829141  0.77100081  0.55327449  1
  Se  Se133  1  0.26420130  0.25817896  0.06674734  1
  Se  Se134  1  0.24060068  0.25076975  0.55536502  1
  Se  Se135  1  0.24258812  0.58850379  0.04836226  1
  Se  Se136  1  0.25420321  0.57972988  0.54980453  1
  Se  Se137  1  0.26286216  0.93172893  0.05764258  1
  Se  Se138  1  0.26356663  0.92240310  0.54474896  1
  Se  Se139  1  0.59135911  0.24882575  0.04809220  1
  Se  Se140  1  0.58032520  0.25670309  0.55127520  1
  Se  Se141  1  0.56927603  0.57994229  0.05169593  1
  Se  Se142  1  0.59076467  0.58961300  0.56143592  1
  Se  Se143  1  0.58346221  0.91456811  0.06572637  1
  Se  Se144  1  0.57718899  0.91122571  0.55053415  1
  Se  Se145  1  0.92709285  0.26332750  0.06073024  1
  Se  Se146  1  0.91019606  0.25563552  0.55826688  1
  Se  Se147  1  0.91361678  0.58517747  0.05555706  1
  Se  Se148  1  0.91569057  0.57704068  0.55373204  1
  Se  Se149  1  0.92890934  0.92528757  0.05758776  1
  Se  Se150  1  0.93782967  0.92460326  0.54149210  1
  Se  Se151  1  0.07815247  0.25725186  0.45344206  1
  Se  Se152  1  0.06995704  0.25817029  0.93615640  1
  Se  Se153  1  0.09145903  0.57720316  0.44758570  1
  Se  Se154  1  0.08306111  0.58381757  0.94004358  1
  Se  Se155  1  0.06012419  0.93041523  0.44920600  1
  Se  Se156  1  0.08429562  0.92153947  0.94378852  1
  Se  Se157  1  0.41718305  0.25876929  0.45394862  1
  Se  Se158  1  0.42053729  0.24712743  0.94234725  1
  Se  Se159  1  0.41583025  0.59367705  0.43724791  1
  Se  Se160  1  0.41335373  0.58881195  0.93749720  1
  Se  Se161  1  0.41032338  0.92665549  0.45394473  1
  Se  Se162  1  0.40586103  0.92177793  0.94107283  1
  Se  Se163  1  0.75034655  0.25303179  0.44971260  1
  Se  Se164  1  0.74674005  0.25581733  0.93056142  1
  Se  Se165  1  0.75879509  0.57243493  0.45542073  1
  Se  Se166  1  0.75637123  0.58374500  0.94091012  1
  Se  Se167  1  0.74654222  0.91211911  0.45136693  1
  Se  Se168  1  0.74128713  0.92139271  0.94592299  1
  Se  Se169  1  0.22757786  0.10712431  0.45056687  1
  Se  Se170  1  0.26152868  0.07682372  0.94099533  1
  Se  Se171  1  0.24904196  0.42165741  0.45134046  1
  Se  Se172  1  0.24501807  0.41463840  0.94742055  1
  Se  Se173  1  0.24943819  0.75161840  0.44889626  1
  Se  Se174  1  0.24805169  0.74816222  0.93286434  1
  Se  Se175  1  0.58248736  0.08542859  0.44768053  1
  Se  Se176  1  0.58072644  0.07935990  0.94798160  1
  Se  Se177  1  0.59123124  0.41752247  0.43525032  1
  Se  Se178  1  0.58468620  0.41686044  0.94023268  1
  Se  Se179  1  0.58212651  0.74828795  0.45986537  1
  Se  Se180  1  0.59140467  0.73800674  0.94143789  1
  Se  Se181  1  0.89117024  0.10333204  0.45137726  1
  Se  Se182  1  0.91578725  0.07904539  0.94428902  1
  Se  Se183  1  0.91291097  0.41977572  0.44841702  1
  Se  Se184  1  0.91259395  0.42620893  0.94041200  1
  Se  Se185  1  0.91910510  0.73864833  0.44844168  1
  Se  Se186  1  0.91809808  0.74630138  0.93151266  1
  Se  Se187  1  0.25869869  0.24552238  0.32477930  1
  Se  Se188  1  0.23865350  0.23670889  0.80667550  1
  Se  Se189  1  0.24586855  0.58122639  0.31173970  1
  Se  Se190  1  0.25048750  0.58313967  0.79874851  1
  Se  Se191  1  0.24906475  0.92309103  0.31420200  1
  Se  Se192  1  0.25374807  0.91603219  0.79680191  1
  Se  Se193  1  0.58256920  0.24423327  0.31476861  1
  Se  Se194  1  0.57700916  0.24410344  0.79529605  1
  Se  Se195  1  0.57232954  0.57519225  0.30123987  1
  Se  Se196  1  0.60746135  0.60327489  0.80476053  1
  Se  Se197  1  0.58682307  0.91517007  0.31165330  1
  Se  Se198  1  0.57567402  0.90691146  0.80932376  1
  Se  Se199  1  0.92410674  0.23311938  0.31629810  1
  Se  Se200  1  0.91826289  0.25438649  0.79284494  1
  Se  Se201  1  0.91519070  0.58606265  0.30541101  1
  Se  Se202  1  0.92428159  0.58626312  0.79440992  1
  Se  Se203  1  0.90256282  0.90016404  0.31917217  1
  Se  Se204  1  0.91882543  0.91704204  0.80030877  1
  Se  Se205  1  0.09925760  0.08203779  0.32084162  1
  Se  Se206  1  0.08202095  0.08125996  0.80500438  1
  Se  Se207  1  0.08748234  0.42446866  0.31329880  1
  Se  Se208  1  0.08075004  0.41650565  0.79848240  1
  Se  Se209  1  0.08106796  0.74967822  0.30500315  1
  Se  Se210  1  0.08237590  0.75125949  0.79155371  1
  Se  Se211  1  0.41590344  0.08257820  0.31550853  1
  Se  Se212  1  0.41196362  0.07510267  0.79688667  1
  Se  Se213  1  0.42734490  0.42889281  0.30302572  1
  Se  Se214  1  0.41496113  0.41822228  0.81406172  1
  Se  Se215  1  0.41922096  0.75637548  0.31506949  1
  Se  Se216  1  0.41841972  0.74795890  0.79539964  1
  Se  Se217  1  0.74785673  0.07228201  0.30743642  1
  Se  Se218  1  0.75272789  0.09121661  0.80511517  1
  Se  Se219  1  0.75482782  0.41822620  0.31385906  1
  Se  Se220  1  0.74960538  0.42078142  0.79782774  1
  Se  Se221  1  0.73829512  0.73949232  0.31431826  1
  Se  Se222  1  0.75612450  0.75805002  0.79358905  1
  Se  Se223  1  0.26091319  0.08212330  0.20431515  1
  Se  Se224  1  0.25050604  0.07419217  0.69113720  1
  Se  Se225  1  0.24137524  0.42769004  0.19216259  1
  Se  Se226  1  0.24657449  0.42166698  0.68575655  1
  Se  Se227  1  0.23764751  0.76808297  0.19037312  1
  Se  Se228  1  0.25797600  0.74198997  0.68911028  1
  Se  Se229  1  0.58888355  0.08176389  0.20234926  1
  Se  Se230  1  0.57436172  0.08300684  0.67968297  1
  Se  Se231  1  0.57746942  0.41912122  0.18467486  1
  Se  Se232  1  0.57043089  0.42857603  0.70290584  1
  Se  Se233  1  0.57463581  0.74622028  0.20094955  1
  Se  Se234  1  0.59314997  0.75260996  0.69252062  1
  Se  Se235  1  0.91995078  0.07868946  0.19556033  1
  Se  Se236  1  0.89972154  0.08965634  0.68369252  1
  Se  Se237  1  0.90858075  0.42325123  0.19208530  1
  Se  Se238  1  0.91906581  0.41445099  0.69556008  1
  Se  Se239  1  0.90833481  0.74446147  0.20437893  1
  Se  Se240  1  0.92580300  0.74726245  0.68893493  1
  Se  Se241  1  0.10277311  0.24161005  0.20363204  1
  Se  Se242  1  0.07678059  0.24469922  0.69729750  1
  Se  Se243  1  0.07718840  0.59138254  0.19782485  1
  Se  Se244  1  0.08487568  0.58571201  0.69153701  1
  Se  Se245  1  0.08432304  0.91387572  0.19340683  1
  Se  Se246  1  0.09864952  0.90364392  0.67674823  1
  Se  Se247  1  0.43154307  0.24685835  0.19696830  1
  Se  Se248  1  0.41576205  0.24132266  0.68389825  1
  Se  Se249  1  0.41232502  0.57575994  0.19058227  1
  Se  Se250  1  0.43669198  0.56727577  0.70410466  1
  Se  Se251  1  0.41587631  0.92204354  0.20604976  1
  Se  Se252  1  0.41393752  0.91644368  0.69148192  1
  Se  Se253  1  0.76459450  0.23629573  0.19790749  1
  Se  Se254  1  0.73538377  0.25773391  0.69447716  1
  Se  Se255  1  0.74403353  0.57790174  0.19327051  1
  Se  Se256  1  0.75269405  0.58756872  0.69206896  1
  Se  Se257  1  0.74198887  0.91336207  0.20735887  1
  Se  Se258  1  0.75682683  0.91504741  0.68325704  1
