# generated using pymatgen
data_In86Cu29Se144
_symmetry_space_group_name_H-M   'P 1'
_cell_length_a   17.58668641
_cell_length_b   17.58473271
_cell_length_c   23.44648731
_cell_angle_alpha   90.01615255
_cell_angle_beta   90.00695445
_cell_angle_gamma   90.01786879
_symmetry_Int_Tables_number   1
_chemical_formula_structural   In86Cu29Se144
_chemical_formula_sum   'In86 Cu29 Se144'
_cell_volume   7250.99384968
_cell_formula_units_Z   1
loop_
 _symmetry_equiv_pos_site_id
 _symmetry_equiv_pos_as_xyz
  1  'x, y, z'
loop_
 _atom_site_type_symbol
 _atom_site_label
 _atom_site_symmetry_multiplicity
 _atom_site_fract_x
 _atom_site_fract_y
 _atom_site_fract_z
 _atom_site_occupancy
  In  In0  1  0.00283479  0.16347885  0.11133377  1
  In  In1  1  0.00346938  0.16559062  0.63173379  1
  In  In2  1  0.00527850  0.50459156  0.11615298  1
  In  In3  1  -0.01442854  0.49649808  0.62629412  1
  In  In4  1  -0.00623882  0.82566026  0.12401382  1
  In  In5  1  0.02141885  0.84272685  0.62103223  1
  In  In6  1  0.33265502  0.16352501  0.11793770  1
  In  In7  1  0.32573455  0.17025997  0.62598565  1
  In  In8  1  0.33632881  0.50615902  0.11523649  1
  In  In9  1  0.32617700  0.49555879  0.62950423  1
  In  In10  1  0.34498349  0.84648465  0.11887989  1
  In  In11  1  0.31989015  0.85687924  0.63629034  1
  In  In12  1  0.65862740  0.16201317  0.11413824  1
  In  In13  1  0.67553907  0.17546338  0.61860108  1
  In  In14  1  0.67324049  0.50237291  0.11783245  1
  In  In15  1  0.66160065  0.48090522  0.62576538  1
  In  In16  1  0.65908957  0.84416202  0.13308200  1
  In  In17  1  0.65681125  0.84260154  0.62370043  1
  In  In18  1  0.17091928  -0.00639901  0.37743492  1
  In  In19  1  0.17015831  -0.00305607  0.87420888  1
  In  In20  1  0.15979535  0.32795041  0.37870475  1
  In  In21  1  0.16564913  0.32942076  0.87175968  1
  In  In22  1  0.17151250  0.68374279  0.37179992  1
  In  In23  1  0.16343140  0.67126720  0.88287609  1
  In  In24  1  0.50457855  0.01240698  0.36409979  1
  In  In25  1  0.48730167  0.01034461  0.88104734  1
  In  In26  1  0.49620392  0.31631914  0.37482749  1
  In  In27  1  0.49885122  0.33168743  0.87516915  1
  In  In28  1  0.51318930  0.65617090  0.36580924  1
  In  In29  1  0.50181279  0.66145412  0.88751949  1
  In  In30  1  0.82812411  0.01208675  0.37862496  1
  In  In31  1  0.85347271  0.01406514  0.87124066  1
  In  In32  1  0.83939235  0.32574590  0.38565343  1
  In  In33  1  0.83579725  0.32537691  0.87709420  1
  In  In34  1  0.82581183  0.65686440  0.36501884  1
  In  In35  1  0.81989132  0.66331245  0.87905353  1
  In  In36  1  0.00544448  0.14931605  0.39640373  1
  In  In37  1  0.00008872  0.16464474  0.87819803  1
  In  In38  1  -0.01212424  0.49117867  0.37312919  1
  In  In39  1  0.01032498  0.48955271  0.88068016  1
  In  In40  1  0.01509307  0.83583859  0.37321542  1
  In  In41  1  0.01479475  0.85189981  0.86637089  1
  In  In42  1  0.35275970  0.15826276  0.38695017  1
  In  In43  1  0.33208344  0.16381108  0.87134564  1
  In  In44  1  0.33661723  0.49468683  0.37228380  1
  In  In45  1  0.34315462  0.48948931  0.88228123  1
  In  In46  1  0.31693296  0.84029115  0.37534984  1
  In  In47  1  0.31438297  0.85364940  0.88495651  1
  In  In48  1  0.67169193  0.15601402  0.38569997  1
  In  In49  1  0.65260936  0.18451787  0.89090407  1
  In  In50  1  0.66894252  0.51042809  0.36929541  1
  In  In51  1  0.68825765  0.46177832  0.90972221  1
  In  In52  1  0.66704023  0.83319438  0.36561163  1
  In  In53  1  0.66533093  0.82543602  0.88042312  1
  In  In54  1  0.17629063  0.01394415  0.11229810  1
  In  In55  1  0.16058149  0.00702128  0.62859870  1
  In  In56  1  0.16903369  0.33171178  0.11267138  1
  In  In57  1  0.18442111  0.31200542  0.64388509  1
  In  In58  1  0.15683168  0.66342437  0.11717863  1
  In  In59  1  0.15631250  0.66973229  0.62127624  1
  In  In60  1  0.50038460  0.00033397  0.12397787  1
  In  In61  1  0.48475660  0.00254654  0.62566697  1
  In  In62  1  0.51207349  0.33433898  0.10534153  1
  In  In63  1  0.50344903  0.32856919  0.63416470  1
  In  In64  1  0.50244472  0.67077016  0.12582502  1
  In  In65  1  0.50516932  0.66683499  0.62499459  1
  In  In66  1  0.82625474  -0.00618266  0.12469507  1
  In  In67  1  0.83965714  0.03378500  0.61593884  1
  In  In68  1  0.82418885  0.33618152  0.10823476  1
  In  In69  1  0.83210963  0.33147507  0.63012459  1
  In  In70  1  0.84228725  0.66115093  0.12963236  1
  In  In71  1  0.84017709  0.66035233  0.61915309  1
  In  In72  1  0.83747743  0.83559948  -0.00125606  1
  In  In73  1  -0.00305028  0.33120717  0.25111233  1
  In  In74  1  0.15916131  0.49236304  0.50051452  1
  In  In75  1  0.66567030  0.65811800  0.75962850  1
  In  In76  1  0.83616347  0.83888856  0.49298883  1
  In  In77  1  -0.00179430  0.66421554  0.75729983  1
  In  In78  1  0.50299879  0.49247515  0.49248984  1
  In  In79  1  0.33941401  0.66152865  0.75154688  1
  In  In80  1  -0.00266806  -0.00422614  0.25263231  1
  In  In81  1  0.33676086  0.67595670  0.24144987  1
  In  In82  1  0.33833667  0.33011892  0.25087497  1
  In  In83  1  0.49203715  0.83751419  0.50257633  1
  In  In84  1  0.67107079  0.00611221  0.74935428  1
  In  In85  1  0.66810670  0.33521232  0.23984046  1
  Cu  Cu86  1  0.50635215  0.48690645  0.76089462  1
  Cu  Cu87  1  0.82493900  0.48847198  0.75474103  1
  Cu  Cu88  1  0.67497887  0.66487499  0.49303490  1
  Cu  Cu89  1  0.32796388  0.32370625  -0.00775776  1
  Cu  Cu90  1  0.33877440  0.00107944  -0.00229472  1
  Cu  Cu91  1  0.83520927  0.17285232  0.75217105  1
  Cu  Cu92  1  0.83174653  0.16479248  0.25407720  1
  Cu  Cu93  1  0.16744934  0.49376450  0.75558791  1
  Cu  Cu94  1  0.50296603  0.16239133  0.24389472  1
  Cu  Cu95  1  0.83332597  0.49936650  0.24625384  1
  Cu  Cu96  1  0.32868895  0.66936034  0.00300728  1
  Cu  Cu97  1  0.82863278  0.82805605  0.24769627  1
  Cu  Cu98  1  0.49680091  0.83796984  0.24693835  1
  Cu  Cu99  1  0.16563086  0.83942622  0.24810905  1
  Cu  Cu100  1  -0.00032705  0.66401545  0.49785546  1
  Cu  Cu101  1  0.33240554  0.67681835  0.49831437  1
  Cu  Cu102  1  0.49432757  0.83582441  0.75926210  1
  Cu  Cu103  1  0.00030525  0.32574997  0.50963081  1
  Cu  Cu104  1  -0.00656625  0.66669021  -0.00149120  1
  Cu  Cu105  1  0.16538686  0.16085630  0.75374256  1
  Cu  Cu106  1  0.49649103  0.16747816  0.75427869  1
  Cu  Cu107  1  0.16777864  0.50837706  0.23986163  1
  Cu  Cu108  1  0.17142861  0.16371969  0.24441483  1
  Cu  Cu109  1  0.00063696  0.33448142  -0.00567342  1
  Cu  Cu110  1  0.84205072  0.84145880  0.74213737  1
  Cu  Cu111  1  0.66324159  0.66968799  0.00716856  1
  Cu  Cu112  1  0.32458678  0.00457447  0.50437955  1
  Cu  Cu113  1  0.66662671  -0.00355871  0.00273734  1
  Cu  Cu114  1  0.67490361  0.33139113  0.50457141  1
  Se  Se115  1  0.08599945  0.08476877  0.04439225  1
  Se  Se116  1  0.09128326  0.09784452  0.55874312  1
  Se  Se117  1  0.08460254  0.41782222  0.04919621  1
  Se  Se118  1  0.08129803  0.40616821  0.56991306  1
  Se  Se119  1  0.07657526  0.75160707  0.05070894  1
  Se  Se120  1  0.08289064  0.74990523  0.54713439  1
  Se  Se121  1  0.42225360  0.08409898  0.05228307  1
  Se  Se122  1  0.41025294  0.08724224  0.55537506  1
  Se  Se123  1  0.40562384  0.40735260  0.05121485  1
  Se  Se124  1  0.41509514  0.41575208  0.56159570  1
  Se  Se125  1  0.41693061  0.74859123  0.05607495  1
  Se  Se126  1  0.40459998  0.74941005  0.56830764  1
  Se  Se127  1  0.75279495  0.07909390  0.05369604  1
  Se  Se128  1  0.73286375  0.07570088  0.54981520  1
  Se  Se129  1  0.73768589  0.41536570  0.04234129  1
  Se  Se130  1  0.75580758  0.41813425  0.55621422  1
  Se  Se131  1  0.74832062  0.75127911  0.06431227  1
  Se  Se132  1  0.74295600  0.74855417  0.55879813  1
  Se  Se133  1  0.24638659  0.24094894  0.04837841  1
  Se  Se134  1  0.24674825  0.25514772  0.55601660  1
  Se  Se135  1  0.24347002  0.58181762  0.05108578  1
  Se  Se136  1  0.25523717  0.58907779  0.55564694  1
  Se  Se137  1  0.25330790  0.91757853  0.05029077  1
  Se  Se138  1  0.24245569  0.91975238  0.55656970  1
  Se  Se139  1  0.59313535  0.25010211  0.04093507  1
  Se  Se140  1  0.58229451  0.25723990  0.55667490  1
  Se  Se141  1  0.57903679  0.58372514  0.05638921  1
  Se  Se142  1  0.59226764  0.58696874  0.55496436  1
  Se  Se143  1  0.58193165  0.91346912  0.05479926  1
  Se  Se144  1  0.58482882  0.93312015  0.55381325  1
  Se  Se145  1  0.91831808  0.25308594  0.05033684  1
  Se  Se146  1  0.91408195  0.24589057  0.56304087  1
  Se  Se147  1  0.91132591  0.58215516  0.05145972  1
  Se  Se148  1  0.91752753  0.57821588  0.54833691  1
  Se  Se149  1  0.92740303  0.92753570  0.05634254  1
  Se  Se150  1  0.91743250  0.92150349  0.56272311  1
  Se  Se151  1  0.08530470  0.24883974  0.45262984  1
  Se  Se152  1  0.08606925  0.24962802  0.94460242  1
  Se  Se153  1  0.08091943  0.58722800  0.43430130  1
  Se  Se154  1  0.08130983  0.58406334  0.94740536  1
  Se  Se155  1  0.07214120  0.92949995  0.44385962  1
  Se  Se156  1  0.09285540  0.91092888  0.94578684  1
  Se  Se157  1  0.40827354  0.26364305  0.45101353  1
  Se  Se158  1  0.41685790  0.24307820  0.94173883  1
  Se  Se159  1  0.41124404  0.59538230  0.44004741  1
  Se  Se160  1  0.41123839  0.58284866  0.95186599  1
  Se  Se161  1  0.40673782  0.92730562  0.43993274  1
  Se  Se162  1  0.42191820  0.91125995  0.94800070  1
  Se  Se163  1  0.75426220  0.24331799  0.45094649  1
  Se  Se164  1  0.75540585  0.24925065  0.95125014  1
  Se  Se165  1  0.75589415  0.57743219  0.44370517  1
  Se  Se166  1  0.74720141  0.58623653  0.95437466  1
  Se  Se167  1  0.73336510  0.92250119  0.44144041  1
  Se  Se168  1  0.74912478  0.92596700  0.93639356  1
  Se  Se169  1  0.24779944  0.08599853  0.44334634  1
  Se  Se170  1  0.25341156  0.08152447  0.94334380  1
  Se  Se171  1  0.25852912  0.40915232  0.44273421  1
  Se  Se172  1  0.24571079  0.41348050  0.94342543  1
  Se  Se173  1  0.24397879  0.75851949  0.45006560  1
  Se  Se174  1  0.24700676  0.75375912  0.94978273  1
  Se  Se175  1  0.55885158  0.09984889  0.44209533  1
  Se  Se176  1  0.58277620  0.07893488  0.94840843  1
  Se  Se177  1  0.59843701  0.40404992  0.43492766  1
  Se  Se178  1  0.55479044  0.43235343  0.94549672  1
  Se  Se179  1  0.58560750  0.74523499  0.44190377  1
  Se  Se180  1  0.58212927  0.75273628  0.95242869  1
  Se  Se181  1  0.90798487  0.07679403  0.45595630  1
  Se  Se182  1  0.91738515  0.08786276  0.95121992  1
  Se  Se183  1  0.92267720  0.41142890  0.45189707  1
  Se  Se184  1  0.91377973  0.41851443  0.94499646  1
  Se  Se185  1  0.92033630  0.74154327  0.43422561  1
  Se  Se186  1  0.92328247  0.74803479  0.93194708  1
  Se  Se187  1  0.24479521  0.24375091  0.30960476  1
  Se  Se188  1  0.24999697  0.24807649  0.80266072  1
  Se  Se189  1  0.24796064  0.58151027  0.30512380  1
  Se  Se190  1  0.24532096  0.57809716  0.81376476  1
  Se  Se191  1  0.24998027  0.92335367  0.29898732  1
  Se  Se192  1  0.25286769  0.91967787  0.80049699  1
  Se  Se193  1  0.58544454  0.24187067  0.30348638  1
  Se  Se194  1  0.58317981  0.24846012  0.80588851  1
  Se  Se195  1  0.58839775  0.57785283  0.29389505  1
  Se  Se196  1  0.58267013  0.56884955  0.82112069  1
  Se  Se197  1  0.58253126  0.91901801  0.30128670  1
  Se  Se198  1  0.58266419  0.91543419  0.81305879  1
  Se  Se199  1  0.91887148  0.23475345  0.31497100  1
  Se  Se200  1  0.92246832  0.25105744  0.80616002  1
  Se  Se201  1  0.91997461  0.57892021  0.30052616  1
  Se  Se202  1  0.90434186  0.57326388  0.81276704  1
  Se  Se203  1  0.90440243  0.90769660  0.31302753  1
  Se  Se204  1  0.92017683  0.92242844  0.79968669  1
  Se  Se205  1  0.08636326  0.09208347  0.30820861  1
  Se  Se206  1  0.08165771  0.08049503  0.80844793  1
  Se  Se207  1  0.09454996  0.42510113  0.30425044  1
  Se  Se208  1  0.07851987  0.41121871  0.80254007  1
  Se  Se209  1  0.08453209  0.75111663  0.29794726  1
  Se  Se210  1  0.09801491  0.75614202  0.80227840  1
  Se  Se211  1  0.41094910  0.08958140  0.29893662  1
  Se  Se212  1  0.41349994  0.07868950  0.80079900  1
  Se  Se213  1  0.43377673  0.42235106  0.30624377  1
  Se  Se214  1  0.40981420  0.40895188  0.80406777  1
  Se  Se215  1  0.42173799  0.75893332  0.31307270  1
  Se  Se216  1  0.41990488  0.75091088  0.81769904  1
  Se  Se217  1  0.74457279  0.08392263  0.30466090  1
  Se  Se218  1  0.75141182  0.09705139  0.81421324  1
  Se  Se219  1  0.76303696  0.41217658  0.30822156  1
  Se  Se220  1  0.74348242  0.41147839  0.81410944  1
  Se  Se221  1  0.74371928  0.74339963  0.29934195  1
  Se  Se222  1  0.76096069  0.76270422  0.80303536  1
  Se  Se223  1  0.25469881  0.08227785  0.19153915  1
  Se  Se224  1  0.25161513  0.08315228  0.69743398  1
  Se  Se225  1  0.24712132  0.41996363  0.18795833  1
  Se  Se226  1  0.25659043  0.41484951  0.70434385  1
  Se  Se227  1  0.24231580  0.76065190  0.18329588  1
  Se  Se228  1  0.24465194  0.74766663  0.69243059  1
  Se  Se229  1  0.58924613  0.08167196  0.19149768  1
  Se  Se230  1  0.57701094  0.09124230  0.68939752  1
  Se  Se231  1  0.57434485  0.42278112  0.18457740  1
  Se  Se232  1  0.58981214  0.40818128  0.70374918  1
  Se  Se233  1  0.58111415  0.75174541  0.19804915  1
  Se  Se234  1  0.57723388  0.75733187  0.69958069  1
  Se  Se235  1  0.91444655  0.09047872  0.19061974  1
  Se  Se236  1  0.91606634  0.08434138  0.70135977  1
  Se  Se237  1  0.91037645  0.41682645  0.18519245  1
  Se  Se238  1  0.91525503  0.41400728  0.70095187  1
  Se  Se239  1  0.91903001  0.74824548  0.19961587  1
  Se  Se240  1  0.91730400  0.75285721  0.68657629  1
  Se  Se241  1  0.08902955  0.24514132  0.18848505  1
  Se  Se242  1  0.07978748  0.24904016  0.70526635  1
  Se  Se243  1  0.07723922  0.58688462  0.19213603  1
  Se  Se244  1  0.08895219  0.57386639  0.69347858  1
  Se  Se245  1  0.08757721  0.91804035  0.18474150  1
  Se  Se246  1  0.08754862  0.91705642  0.69936212  1
  Se  Se247  1  0.42865102  0.24873877  0.18428472  1
  Se  Se248  1  0.41290224  0.24855083  0.69770008  1
  Se  Se249  1  0.42240149  0.57332998  0.19328703  1
  Se  Se250  1  0.43506074  0.56895909  0.69407604  1
  Se  Se251  1  0.41444632  0.92401070  0.19706196  1
  Se  Se252  1  0.41781553  0.92077682  0.70345471  1
  Se  Se253  1  0.76066576  0.24172737  0.18592241  1
  Se  Se254  1  0.74600641  0.24984684  0.69842600  1
  Se  Se255  1  0.74920764  0.58137103  0.19318282  1
  Se  Se256  1  0.75526521  0.57607601  0.69177363  1
  Se  Se257  1  0.74938285  0.92051227  0.20098533  1
  Se  Se258  1  0.75848247  0.91853320  0.68367026  1
