# generated using pymatgen
data_In86Cu29Se144
_symmetry_space_group_name_H-M   'P 1'
_cell_length_a   17.58878130
_cell_length_b   17.58643753
_cell_length_c   23.44648206
_cell_angle_alpha   90.01271697
_cell_angle_beta   90.00319581
_cell_angle_gamma   90.01718463
_symmetry_Int_Tables_number   1
_chemical_formula_structural   In86Cu29Se144
_chemical_formula_sum   'In86 Cu29 Se144'
_cell_volume   7252.55918772
_cell_formula_units_Z   1
loop_
 _symmetry_equiv_pos_site_id
 _symmetry_equiv_pos_as_xyz
  1  'x, y, z'
loop_
 _atom_site_type_symbol
 _atom_site_label
 _atom_site_symmetry_multiplicity
 _atom_site_fract_x
 _atom_site_fract_y
 _atom_site_fract_z
 _atom_site_occupancy
  In  In0  1  0.00023979  0.16511060  0.12776357  1
  In  In1  1  0.00010574  0.16767253  0.62408015  1
  In  In2  1  -0.00828594  0.48564482  0.11396235  1
  In  In3  1  -0.00341555  0.48070062  0.62513976  1
  In  In4  1  0.01164900  0.83527736  0.12432153  1
  In  In5  1  0.01124704  0.83711556  0.62376940  1
  In  In6  1  0.32415648  0.17718038  0.13440649  1
  In  In7  1  0.31982748  0.17824462  0.63041864  1
  In  In8  1  0.32721386  0.49671845  0.13016543  1
  In  In9  1  0.32125325  0.49682591  0.62297875  1
  In  In10  1  0.31399775  0.84080846  0.13098125  1
  In  In11  1  0.34091047  0.84134152  0.61693208  1
  In  In12  1  0.68052776  0.15802124  0.14197203  1
  In  In13  1  0.67467696  0.16389465  0.62396026  1
  In  In14  1  0.67251812  0.48231659  0.12689680  1
  In  In15  1  0.66051903  0.49072005  0.62517282  1
  In  In16  1  0.66878918  0.84253404  0.12952805  1
  In  In17  1  0.66925962  0.85128292  0.61755904  1
  In  In18  1  0.15609148  0.01217002  0.38527443  1
  In  In19  1  0.16360552  0.00521485  0.87619857  1
  In  In20  1  0.16814563  0.33174919  0.37196614  1
  In  In21  1  0.16508826  0.32954971  0.87713677  1
  In  In22  1  0.17695870  0.65975983  0.38209871  1
  In  In23  1  0.16755839  0.66627182  0.88309575  1
  In  In24  1  0.50297003  -0.01436214  0.37305311  1
  In  In25  1  0.50616933  0.00907974  0.86575487  1
  In  In26  1  0.50276568  0.33555979  0.36714141  1
  In  In27  1  0.49521101  0.32118965  0.86889453  1
  In  In28  1  0.49423876  0.69778506  0.37464969  1
  In  In29  1  0.49837811  0.66950304  0.87283740  1
  In  In30  1  0.85184446  0.02754537  0.35526328  1
  In  In31  1  0.85314640  0.01532006  0.86109868  1
  In  In32  1  0.83010905  0.30904701  0.34937316  1
  In  In33  1  0.83719002  0.32809227  0.87623244  1
  In  In34  1  0.83035758  0.65787190  0.37545013  1
  In  In35  1  0.82780529  0.65948603  0.87641368  1
  In  In36  1  0.00540411  0.16861281  0.37031722  1
  In  In37  1  0.00040624  0.16664901  0.87667173  1
  In  In38  1  0.01542239  0.49630917  0.37892731  1
  In  In39  1  0.01089230  0.48887788  0.88251516  1
  In  In40  1  -0.00155696  0.85277624  0.37994356  1
  In  In41  1  0.00312236  0.85229443  0.87343179  1
  In  In42  1  0.31693502  0.16858746  0.37288269  1
  In  In43  1  0.32565493  0.15711850  0.86869565  1
  In  In44  1  0.32115486  0.48999887  0.36759448  1
  In  In45  1  0.33082869  0.48331350  0.87653323  1
  In  In46  1  0.34233187  0.82872217  0.37907016  1
  In  In47  1  0.31756791  0.83428715  0.87545457  1
  In  In48  1  0.67984631  0.18261325  0.36046607  1
  In  In49  1  0.67518429  0.17367048  0.87101125  1
  In  In50  1  0.67479354  0.48976437  0.37478044  1
  In  In51  1  0.68311231  0.49045472  0.88087552  1
  In  In52  1  0.64622190  0.84647868  0.38708310  1
  In  In53  1  0.66457521  0.84245344  0.87007321  1
  In  In54  1  0.15902470  -0.00290535  0.12402814  1
  In  In55  1  0.16576668  0.00488778  0.62561090  1
  In  In56  1  0.15740624  0.32767248  0.12697915  1
  In  In57  1  0.16276571  0.33147097  0.62285053  1
  In  In58  1  0.17389914  0.66869669  0.12122573  1
  In  In59  1  0.17361866  0.66974758  0.61650435  1
  In  In60  1  0.50141813  0.01135713  0.13461376  1
  In  In61  1  0.50556278  -0.00276371  0.62249804  1
  In  In62  1  0.50674664  0.31837266  0.14589424  1
  In  In63  1  0.50502863  0.32280484  0.62951313  1
  In  In64  1  0.49414041  0.65352561  0.12903834  1
  In  In65  1  0.48934844  0.66610698  0.61845410  1
  In  In66  1  0.83164949  0.01473032  0.13637553  1
  In  In67  1  0.81916716  0.00883497  0.63364753  1
  In  In68  1  0.83546570  0.32733211  0.12550340  1
  In  In69  1  0.84261104  0.32391490  0.63027942  1
  In  In70  1  0.84531977  0.66110274  0.12187930  1
  In  In71  1  0.83126202  0.67176457  0.62583235  1
  In  In72  1  0.83150938  0.84056715  0.50061190  1
  In  In73  1  0.00122708  0.66783331  0.74199118  1
  In  In74  1  0.49854723  0.50112193  0.49136739  1
  In  In75  1  0.00944079  0.67001430  0.24569599  1
  In  In76  1  0.49507607  0.16821701  0.01274641  1
  In  In77  1  0.65910264  0.67041517  0.25799105  1
  In  In78  1  0.33366008  0.66662413  0.74717646  1
  In  In79  1  0.49461542  0.83307813  -0.00343619  1
  In  In80  1  0.49356671  0.49268338  0.00269869  1
  In  In81  1  0.83830835  0.49230477  0.49672965  1
  In  In82  1  0.66513088  0.66773781  0.75156502  1
  In  In83  1  0.49993569  0.16227723  0.49777850  1
  In  In84  1  0.33248049  0.00163974  0.25237740  1
  In  In85  1  0.83990365  0.83834516  -0.00867669  1
  Cu  Cu86  1  0.32729767  0.33678570  0.49899654  1
  Cu  Cu87  1  -0.00025910  0.32731217  0.00056819  1
  Cu  Cu88  1  0.67123036  0.01037649  0.00566541  1
  Cu  Cu89  1  0.50303531  0.84487727  0.74221966  1
  Cu  Cu90  1  0.67373591  0.00770780  0.49655275  1
  Cu  Cu91  1  0.50356705  0.48578931  0.75201162  1
  Cu  Cu92  1  0.32553794  0.66721611  0.00479491  1
  Cu  Cu93  1  0.16551358  0.48834779  0.74930056  1
  Cu  Cu94  1  0.32846181  -0.00001139  0.49813329  1
  Cu  Cu95  1  0.16801446  0.49482732  0.24745009  1
  Cu  Cu96  1  0.67608519  0.66273560  0.00257246  1
  Cu  Cu97  1  0.16132972  0.16766640  0.75150264  1
  Cu  Cu98  1  0.00560730  0.66074004  0.00177207  1
  Cu  Cu99  1  0.00090401  0.01106011  0.49967374  1
  Cu  Cu100  1  0.83605172  0.48990545  0.75456402  1
  Cu  Cu101  1  0.49134055  0.50484863  0.25348428  1
  Cu  Cu102  1  0.32425166  0.33124519  0.00573175  1
  Cu  Cu103  1  0.82758537  0.84161196  0.25320674  1
  Cu  Cu104  1  0.00277644  0.32857241  0.49680012  1
  Cu  Cu105  1  0.16832537  0.83447845  0.25409757  1
  Cu  Cu106  1  0.16363720  0.84656436  0.75060603  1
  Cu  Cu107  1  0.00239947  0.00680198  0.00028182  1
  Cu  Cu108  1  0.67654054  0.32847635  0.00147286  1
  Cu  Cu109  1  0.83399754  0.16840203  0.75068376  1
  Cu  Cu110  1  0.00414522  0.66818504  0.50072214  1
  Cu  Cu111  1  0.32021538  -0.00111536  -0.00176893  1
  Cu  Cu112  1  0.49958038  0.16319795  0.74426013  1
  Cu  Cu113  1  0.83485425  0.49916366  0.24752320  1
  Cu  Cu114  1  0.33256220  0.67037558  0.49647818  1
  Se  Se115  1  0.08582285  0.08760619  0.05537045  1
  Se  Se116  1  0.08734631  0.08972633  0.55463822  1
  Se  Se117  1  0.08698043  0.41240806  0.05032216  1
  Se  Se118  1  0.08257745  0.41610267  0.55085676  1
  Se  Se119  1  0.08454729  0.74813420  0.05438624  1
  Se  Se120  1  0.08618644  0.75323455  0.55259265  1
  Se  Se121  1  0.39983671  0.07270743  0.06363226  1
  Se  Se122  1  0.40577035  0.08171312  0.56110228  1
  Se  Se123  1  0.41534120  0.39885022  0.06660646  1
  Se  Se124  1  0.41511942  0.41014911  0.55831941  1
  Se  Se125  1  0.40940103  0.74612587  0.06267631  1
  Se  Se126  1  0.41804594  0.75287892  0.54822094  1
  Se  Se127  1  0.75419179  0.09019255  0.06019133  1
  Se  Se128  1  0.75758100  0.08687260  0.55148059  1
  Se  Se129  1  0.75752006  0.41572681  0.05295930  1
  Se  Se130  1  0.74947327  0.40703089  0.56005234  1
  Se  Se131  1  0.74969014  0.75122926  0.05940805  1
  Se  Se132  1  0.74073300  0.74376345  0.55573495  1
  Se  Se133  1  0.24298814  0.24452853  0.05745590  1
  Se  Se134  1  0.24610078  0.25053550  0.55165321  1
  Se  Se135  1  0.24967605  0.57513920  0.05538604  1
  Se  Se136  1  0.25307902  0.58254932  0.54928431  1
  Se  Se137  1  0.24124751  0.91356665  0.05299600  1
  Se  Se138  1  0.24598378  0.91856948  0.55528589  1
  Se  Se139  1  0.59416591  0.25541009  0.06517992  1
  Se  Se140  1  0.59198959  0.25440506  0.55366095  1
  Se  Se141  1  0.59132193  0.58403371  0.05853709  1
  Se  Se142  1  0.58881403  0.58653726  0.55742955  1
  Se  Se143  1  0.58469744  0.92695258  0.05703309  1
  Se  Se144  1  0.58503204  0.92413468  0.54515569  1
  Se  Se145  1  0.91710197  0.24534531  0.05574787  1
  Se  Se146  1  0.91787616  0.25003504  0.55288047  1
  Se  Se147  1  0.91492805  0.57926309  0.04804402  1
  Se  Se148  1  0.92350785  0.58889031  0.56042743  1
  Se  Se149  1  0.92116942  0.92388795  0.06016993  1
  Se  Se150  1  0.92121485  0.92900018  0.56106265  1
  Se  Se151  1  0.08799857  0.24809020  0.44244478  1
  Se  Se152  1  0.08490310  0.24570616  0.94693808  1
  Se  Se153  1  0.08691565  0.58251470  0.44993877  1
  Se  Se154  1  0.08994943  0.57757084  0.94914920  1
  Se  Se155  1  0.08363689  0.91874899  0.45457214  1
  Se  Se156  1  0.08497838  0.92015036  0.94867900  1
  Se  Se157  1  0.41083841  0.25796242  0.44045697  1
  Se  Se158  1  0.40719417  0.25169843  0.94575091  1
  Se  Se159  1  0.40843010  0.59021692  0.43227060  1
  Se  Se160  1  0.40789643  0.59133129  0.94221089  1
  Se  Se161  1  0.41723475  0.91849816  0.44870811  1
  Se  Se162  1  0.41020451  0.92944482  0.93777739  1
  Se  Se163  1  0.76195159  0.24965515  0.43577121  1
  Se  Se164  1  0.75595657  0.24353730  0.94703582  1
  Se  Se165  1  0.73985284  0.58778239  0.44744485  1
  Se  Se166  1  0.75724108  0.57710559  0.95114642  1
  Se  Se167  1  0.75562220  0.93133787  0.43266136  1
  Se  Se168  1  0.74336350  0.92986238  0.94037319  1
  Se  Se169  1  0.24774788  0.08994068  0.45076858  1
  Se  Se170  1  0.24477800  0.08982178  0.94645127  1
  Se  Se171  1  0.24402867  0.41935427  0.44534838  1
  Se  Se172  1  0.24563348  0.41527623  0.94934315  1
  Se  Se173  1  0.24791072  0.75661670  0.44698970  1
  Se  Se174  1  0.24697628  0.75384023  0.95064857  1
  Se  Se175  1  0.59144716  0.08186272  0.43335991  1
  Se  Se176  1  0.58528761  0.08495640  0.94528497  1
  Se  Se177  1  0.59340403  0.40293589  0.44482109  1
  Se  Se178  1  0.58629519  0.40250014  0.94290254  1
  Se  Se179  1  0.59070107  0.74103832  0.44984654  1
  Se  Se180  1  0.59543854  0.74136592  0.94283957  1
  Se  Se181  1  0.91838079  0.08998383  0.44181428  1
  Se  Se182  1  0.91436154  0.08396655  0.94614253  1
  Se  Se183  1  0.92080188  0.40292052  0.43287840  1
  Se  Se184  1  0.91726996  0.41267053  0.94642456  1
  Se  Se185  1  0.92132331  0.74360448  0.44060567  1
  Se  Se186  1  0.93057212  0.74108416  0.93645281  1
  Se  Se187  1  0.25283559  0.25613005  0.30025794  1
  Se  Se188  1  0.24747921  0.24989078  0.80520370  1
  Se  Se189  1  0.24441484  0.58351868  0.30177443  1
  Se  Se190  1  0.24347183  0.57537493  0.80756443  1
  Se  Se191  1  0.24385211  0.91580342  0.31718889  1
  Se  Se192  1  0.25028063  0.92412886  0.80541556  1
  Se  Se193  1  0.58069163  0.25302508  0.29853474  1
  Se  Se194  1  0.58260607  0.24442202  0.80188249  1
  Se  Se195  1  0.57249511  0.57771949  0.31849732  1
  Se  Se196  1  0.57881436  0.57021148  0.81277041  1
  Se  Se197  1  0.58062941  0.90538897  0.30086602  1
  Se  Se198  1  0.58759963  0.92301199  0.79868992  1
  Se  Se199  1  0.94467471  0.25872560  0.29112106  1
  Se  Se200  1  0.91947665  0.24874734  0.80526726  1
  Se  Se201  1  0.91736102  0.57822562  0.30604991  1
  Se  Se202  1  0.91704870  0.57699024  0.80847376  1
  Se  Se203  1  0.92177056  0.91864767  0.30066446  1
  Se  Se204  1  0.91385250  0.91007243  0.80012850  1
  Se  Se205  1  0.07816158  0.07185581  0.30512462  1
  Se  Se206  1  0.07929927  0.08250989  0.80512103  1
  Se  Se207  1  0.08366742  0.41658425  0.30278777  1
  Se  Se208  1  0.08141251  0.41064359  0.80533643  1
  Se  Se209  1  0.08701079  0.75669596  0.31643578  1
  Se  Se210  1  0.09176635  0.75330374  0.80755132  1
  Se  Se211  1  0.42089130  0.08778260  0.31555870  1
  Se  Se212  1  0.41497424  0.08277742  0.79959255  1
  Se  Se213  1  0.41177738  0.41382627  0.30189433  1
  Se  Se214  1  0.41308530  0.40990937  0.80426282  1
  Se  Se215  1  0.40635348  0.75114252  0.29807073  1
  Se  Se216  1  0.42447004  0.76398936  0.80467436  1
  Se  Se217  1  0.73842284  0.07659108  0.29746606  1
  Se  Se218  1  0.74804691  0.08309471  0.80193375  1
  Se  Se219  1  0.74974119  0.41589796  0.29858682  1
  Se  Se220  1  0.74905350  0.40779484  0.80540891  1
  Se  Se221  1  0.75497587  0.75859505  0.31443918  1
  Se  Se222  1  0.76013976  0.75715352  0.80764492  1
  Se  Se223  1  0.23512478  0.08758071  0.19681782  1
  Se  Se224  1  0.24724251  0.08567848  0.69779736  1
  Se  Se225  1  0.24792266  0.40700968  0.19502243  1
  Se  Se226  1  0.25120229  0.40999671  0.69420654  1
  Se  Se227  1  0.24524836  0.74714545  0.19974995  1
  Se  Se228  1  0.24357884  0.76125301  0.69211128  1
  Se  Se229  1  0.57903284  0.09050560  0.20367486  1
  Se  Se230  1  0.58542820  0.08359024  0.68985032  1
  Se  Se231  1  0.57927711  0.42555327  0.20011053  1
  Se  Se232  1  0.58854364  0.40719004  0.69756382  1
  Se  Se233  1  0.57495436  0.75406141  0.18883583  1
  Se  Se234  1  0.57652447  0.75341573  0.68647222  1
  Se  Se235  1  0.93661821  0.07012352  0.19937423  1
  Se  Se236  1  0.91576441  0.08629044  0.69440599  1
  Se  Se237  1  0.91673002  0.41760988  0.19287316  1
  Se  Se238  1  0.92143340  0.40864738  0.70189287  1
  Se  Se239  1  0.90767892  0.76034682  0.19308724  1
  Se  Se240  1  0.90873508  0.76388943  0.69097483  1
  Se  Se241  1  0.06171104  0.26449746  0.19909988  1
  Se  Se242  1  0.08133712  0.25135224  0.69444349  1
  Se  Se243  1  0.08689329  0.57225772  0.18451208  1
  Se  Se244  1  0.09451664  0.57487092  0.68681242  1
  Se  Se245  1  0.08475561  0.91461776  0.19916303  1
  Se  Se246  1  0.07898058  0.92515025  0.69631510  1
  Se  Se247  1  0.41563781  0.23861045  0.20568833  1
  Se  Se248  1  0.41409301  0.25099608  0.69729561  1
  Se  Se249  1  0.40641227  0.58393672  0.19931524  1
  Se  Se250  1  0.42581677  0.56961641  0.69272765  1
  Se  Se251  1  0.42105533  0.90804184  0.19198202  1
  Se  Se252  1  0.41337546  0.92311318  0.69154856  1
  Se  Se253  1  0.74184981  0.26708269  0.19859948  1
  Se  Se254  1  0.74890512  0.24969951  0.69642912  1
  Se  Se255  1  0.75322223  0.58495124  0.19286154  1
  Se  Se256  1  0.75820113  0.57254740  0.69375523  1
  Se  Se257  1  0.74645961  0.92414308  0.19854140  1
  Se  Se258  1  0.74712922  0.91137267  0.69668415  1
