# generated using pymatgen
data_In86Cu29Se144
_symmetry_space_group_name_H-M   'P 1'
_cell_length_a   17.59423743
_cell_length_b   17.59169284
_cell_length_c   23.45112327
_cell_angle_alpha   90.00820018
_cell_angle_beta   89.98696357
_cell_angle_gamma   89.96546751
_symmetry_Int_Tables_number   1
_chemical_formula_structural   In86Cu29Se144
_chemical_formula_sum   'In86 Cu29 Se144'
_cell_volume   7258.41235161
_cell_formula_units_Z   1
loop_
 _symmetry_equiv_pos_site_id
 _symmetry_equiv_pos_as_xyz
  1  'x, y, z'
loop_
 _atom_site_type_symbol
 _atom_site_label
 _atom_site_symmetry_multiplicity
 _atom_site_fract_x
 _atom_site_fract_y
 _atom_site_fract_z
 _atom_site_occupancy
  In  In0  1  0.00687368  0.17861576  0.11649437  1
  In  In1  1  0.00100205  0.16877077  0.62567293  1
  In  In2  1  -0.01777504  0.49710320  0.12014871  1
  In  In3  1  -0.00006095  0.49612796  0.62952402  1
  In  In4  1  -0.00985294  0.83085955  0.11626923  1
  In  In5  1  -0.01463590  0.84036481  0.63246818  1
  In  In6  1  0.30887521  0.17234563  0.12543222  1
  In  In7  1  0.34201483  0.17483947  0.61911621  1
  In  In8  1  0.34759913  0.48092788  0.12343140  1
  In  In9  1  0.32035967  0.48539959  0.61758479  1
  In  In10  1  0.34985178  0.83741218  0.12647732  1
  In  In11  1  0.34269870  0.82652194  0.62544849  1
  In  In12  1  0.68149821  0.16707446  0.12258034  1
  In  In13  1  0.66360332  0.17447122  0.63110462  1
  In  In14  1  0.66046874  0.48879718  0.11980965  1
  In  In15  1  0.65563485  0.48882495  0.61874665  1
  In  In16  1  0.66562597  0.83586206  0.11851638  1
  In  In17  1  0.68096175  0.84743075  0.61400418  1
  In  In18  1  0.17961060  0.00485797  0.37429888  1
  In  In19  1  0.16438245  0.01706417  0.87696993  1
  In  In20  1  0.16428764  0.33266282  0.38351709  1
  In  In21  1  0.15925647  0.32595464  0.86771046  1
  In  In22  1  0.15146768  0.66081344  0.37655344  1
  In  In23  1  0.15754013  0.67189550  0.87155021  1
  In  In24  1  0.49629601  0.01217481  0.38793855  1
  In  In25  1  0.50138918  -0.01218473  0.87591036  1
  In  In26  1  0.50167074  0.33044626  0.37856213  1
  In  In27  1  0.50907045  0.34044168  0.86695238  1
  In  In28  1  0.50770787  0.65925605  0.38191578  1
  In  In29  1  0.50618586  0.66606618  0.88046421  1
  In  In30  1  0.82275746  -0.00693028  0.37994873  1
  In  In31  1  0.83328087  0.00286809  0.87238299  1
  In  In32  1  0.84198224  0.34181613  0.37026516  1
  In  In33  1  0.83457915  0.33313743  0.87306559  1
  In  In34  1  0.83238427  0.66286234  0.38197603  1
  In  In35  1  0.85032334  0.65710200  0.88911297  1
  In  In36  1  0.00222137  0.18621073  0.37825869  1
  In  In37  1  -0.00122008  0.16784359  0.87223595  1
  In  In38  1  0.00993983  0.47948452  0.39457676  1
  In  In39  1  -0.00405251  0.49316372  0.86878842  1
  In  In40  1  -0.01084963  0.82884430  0.37861118  1
  In  In41  1  -0.01637145  0.82403799  0.86619621  1
  In  In42  1  0.33639604  0.16476676  0.38258527  1
  In  In43  1  0.32034746  0.17018336  0.87764545  1
  In  In44  1  0.33709254  0.49079521  0.38162286  1
  In  In45  1  0.34980008  0.49544735  0.87571228  1
  In  In46  1  0.33399680  0.84895500  0.37093746  1
  In  In47  1  0.34292307  0.83899853  0.87870155  1
  In  In48  1  0.65197122  0.16371189  0.37921634  1
  In  In49  1  0.67830055  0.18080628  0.86536360  1
  In  In50  1  0.67123073  0.49149785  0.37808641  1
  In  In51  1  0.67554515  0.49604191  0.87630358  1
  In  In52  1  0.67250959  0.83167774  0.38711093  1
  In  In53  1  0.66484237  0.83978382  0.87678502  1
  In  In54  1  0.16040762  0.02141760  0.13059813  1
  In  In55  1  0.14995500  0.00370559  0.62483511  1
  In  In56  1  0.16499395  0.30852379  0.12273300  1
  In  In57  1  0.16499957  0.33473092  0.62516466  1
  In  In58  1  0.16182997  0.66259580  0.12319811  1
  In  In59  1  0.15990894  0.64828453  0.62486337  1
  In  In60  1  0.50235264  -0.00874895  0.12787757  1
  In  In61  1  0.51906821  0.01578090  0.61113241  1
  In  In62  1  0.50031976  0.35075000  0.12552376  1
  In  In63  1  0.49837615  0.33001400  0.62469834  1
  In  In64  1  0.50266129  0.66461786  0.11980576  1
  In  In65  1  0.50350499  0.66913996  0.61625190  1
  In  In66  1  0.82751637  -0.00011871  0.11652412  1
  In  In67  1  0.83772081  -0.00154862  0.63056686  1
  In  In68  1  0.83296428  0.33559763  0.12404686  1
  In  In69  1  0.83136935  0.33602999  0.62886792  1
  In  In70  1  0.83300774  0.66369869  0.11369171  1
  In  In71  1  0.83698264  0.66931625  0.62496472  1
  In  In72  1  -0.00441752  0.00910160  0.25596194  1
  In  In73  1  0.32809935  0.66144746  0.74755149  1
  In  In74  1  -0.00783789  0.66285055  0.24430709  1
  In  In75  1  0.83721026  0.17350338  0.50727116  1
  In  In76  1  0.33408609  0.32838136  0.25079948  1
  In  In77  1  0.67056592  0.66228502  0.25759316  1
  In  In78  1  0.16774049  0.49562102  -0.00394592  1
  In  In79  1  0.33093447  -0.00019342  0.75518324  1
  In  In80  1  0.66579590  0.00194996  0.25305727  1
  In  In81  1  0.67078872  0.66597484  0.75264133  1
  In  In82  1  0.16476688  0.83799546  0.00292402  1
  In  In83  1  0.50170727  0.16792608  -0.00214412  1
  In  In84  1  0.33272637  0.66560549  0.24040081  1
  In  In85  1  0.16600367  0.83283637  0.49889682  1
  Cu  Cu86  1  0.33432548  0.00020651  0.50001115  1
  Cu  Cu87  1  0.83269582  0.49543434  0.75221421  1
  Cu  Cu88  1  -0.00293367  0.00337358  -0.00294309  1
  Cu  Cu89  1  0.50700321  0.83683562  0.74772787  1
  Cu  Cu90  1  0.49574217  0.49238118  0.74289120  1
  Cu  Cu91  1  0.49481963  0.16882031  0.25656649  1
  Cu  Cu92  1  0.83633102  0.17601935  0.24704492  1
  Cu  Cu93  1  -0.00340443  0.66149490  0.50403052  1
  Cu  Cu94  1  0.16449668  0.16855985  0.74885978  1
  Cu  Cu95  1  0.50004871  0.16647433  0.74508913  1
  Cu  Cu96  1  0.16243866  0.84498396  0.24940906  1
  Cu  Cu97  1  0.33322395  0.33234810  0.50180763  1
  Cu  Cu98  1  0.33936487  0.66539078  0.00150077  1
  Cu  Cu99  1  -0.00359467  0.33212078  -0.00671503  1
  Cu  Cu100  1  0.33531352  0.66498129  0.49758763  1
  Cu  Cu101  1  -0.00380799  0.00405679  0.50490520  1
  Cu  Cu102  1  0.83502468  0.49679205  0.25129898  1
  Cu  Cu103  1  0.67277052  0.33627119  -0.00463661  1
  Cu  Cu104  1  0.33531612  0.00272130  -0.00076980  1
  Cu  Cu105  1  0.66749151  0.66246472  0.50215214  1
  Cu  Cu106  1  0.66489761  0.32926656  0.50235987  1
  Cu  Cu107  1  0.15489882  0.83389766  0.74984278  1
  Cu  Cu108  1  0.83032740  0.83499860  0.75055688  1
  Cu  Cu109  1  0.16259397  0.49299922  0.74724045  1
  Cu  Cu110  1  0.50154070  0.83448791  0.25417702  1
  Cu  Cu111  1  0.67076928  0.00210998  -0.00269508  1
  Cu  Cu112  1  0.83688278  0.16660525  0.74925272  1
  Cu  Cu113  1  0.66618308  0.67293997  -0.00211464  1
  Cu  Cu114  1  0.16708867  0.49129240  0.25795598  1
  Se  Se115  1  0.08297875  0.08516575  0.05006164  1
  Se  Se116  1  0.08187435  0.08955195  0.55138664  1
  Se  Se117  1  0.07777525  0.40792136  0.05861361  1
  Se  Se118  1  0.10081205  0.43734983  0.56179892  1
  Se  Se119  1  0.07403633  0.73662817  0.05204430  1
  Se  Se120  1  0.07621240  0.74778029  0.56239238  1
  Se  Se121  1  0.41372978  0.08159781  0.06293806  1
  Se  Se122  1  0.41805661  0.08628042  0.55067430  1
  Se  Se123  1  0.42550147  0.41738614  0.04520810  1
  Se  Se124  1  0.41923413  0.41531768  0.55402598  1
  Se  Se125  1  0.42036113  0.75194260  0.05405729  1
  Se  Se126  1  0.41639398  0.75071065  0.54935946  1
  Se  Se127  1  0.75387810  0.08870232  0.04676471  1
  Se  Se128  1  0.74704927  0.08185005  0.56318268  1
  Se  Se129  1  0.75460020  0.41956792  0.05179373  1
  Se  Se130  1  0.74945462  0.41169148  0.55498741  1
  Se  Se131  1  0.75002590  0.75436417  0.05165252  1
  Se  Se132  1  0.75230090  0.74609284  0.55419983  1
  Se  Se133  1  0.26167581  0.26339682  0.04788447  1
  Se  Se134  1  0.24816009  0.25039897  0.55518464  1
  Se  Se135  1  0.26041574  0.58452879  0.06103239  1
  Se  Se136  1  0.25182324  0.58551101  0.55293207  1
  Se  Se137  1  0.25531222  0.92544653  0.06393073  1
  Se  Se138  1  0.25457738  0.92172390  0.56281577  1
  Se  Se139  1  0.59265440  0.25697899  0.05796266  1
  Se  Se140  1  0.58159149  0.24583744  0.55540235  1
  Se  Se141  1  0.58863880  0.58501888  0.05339400  1
  Se  Se142  1  0.58040966  0.57866554  0.55083662  1
  Se  Se143  1  0.58431167  0.92240494  0.05187109  1
  Se  Se144  1  0.56283904  0.89473882  0.55986030  1
  Se  Se145  1  0.91340852  0.25252808  0.05196090  1
  Se  Se146  1  0.93005936  0.26814766  0.55718308  1
  Se  Se147  1  0.91843108  0.58366584  0.04752170  1
  Se  Se148  1  0.91525342  0.57893980  0.55948166  1
  Se  Se149  1  0.91402507  0.91884143  0.04933887  1
  Se  Se150  1  0.91406473  0.91796645  0.55487918  1
  Se  Se151  1  0.08192317  0.25331179  0.45399252  1
  Se  Se152  1  0.08321602  0.24864482  0.94342683  1
  Se  Se153  1  0.08533876  0.58107017  0.45343392  1
  Se  Se154  1  0.07627228  0.58722913  0.94069457  1
  Se  Se155  1  0.07557251  0.92570667  0.43962109  1
  Se  Se156  1  0.07746640  0.92128823  0.93691843  1
  Se  Se157  1  0.41897113  0.25004050  0.44849032  1
  Se  Se158  1  0.41647356  0.25697938  0.93584282  1
  Se  Se159  1  0.41828030  0.57899152  0.44652669  1
  Se  Se160  1  0.42142392  0.58275417  0.94659766  1
  Se  Se161  1  0.41567168  0.91432129  0.44756743  1
  Se  Se162  1  0.42038545  0.91616712  0.95231824  1
  Se  Se163  1  0.74668722  0.25346929  0.43937506  1
  Se  Se164  1  0.75437345  0.24931768  0.94482212  1
  Se  Se165  1  0.74860739  0.57879492  0.44710118  1
  Se  Se166  1  0.74700810  0.58500901  0.94635443  1
  Se  Se167  1  0.75359144  0.91455651  0.45497483  1
  Se  Se168  1  0.75330670  0.91845694  0.94355465  1
  Se  Se169  1  0.24804802  0.08459437  0.45101154  1
  Se  Se170  1  0.24863690  0.08632410  0.95148563  1
  Se  Se171  1  0.24905000  0.41717256  0.44969041  1
  Se  Se172  1  0.25525778  0.40806819  0.93528572  1
  Se  Se173  1  0.25512294  0.74395144  0.43489418  1
  Se  Se174  1  0.25720461  0.74323001  0.94188968  1
  Se  Se175  1  0.59868029  0.07084959  0.45271269  1
  Se  Se176  1  0.59197802  0.08150249  0.93519712  1
  Se  Se177  1  0.58340828  0.41430989  0.44727048  1
  Se  Se178  1  0.58579328  0.41714678  0.94285588  1
  Se  Se179  1  0.58421969  0.74693770  0.44899134  1
  Se  Se180  1  0.58167414  0.75690415  0.94575780  1
  Se  Se181  1  0.91966271  0.08122727  0.43901804  1
  Se  Se182  1  0.91517908  0.08671533  0.94197623  1
  Se  Se183  1  0.89780959  0.42482331  0.45066787  1
  Se  Se184  1  0.91472878  0.41889466  0.94316332  1
  Se  Se185  1  0.91531065  0.74695952  0.45047122  1
  Se  Se186  1  0.91693134  0.75986158  0.95017541  1
  Se  Se187  1  0.24514678  0.24373180  0.31265168  1
  Se  Se188  1  0.25178095  0.24935824  0.80028773  1
  Se  Se189  1  0.24583175  0.57980840  0.30954847  1
  Se  Se190  1  0.24189342  0.57175377  0.81138173  1
  Se  Se191  1  0.25122575  0.92360647  0.29865401  1
  Se  Se192  1  0.23880111  0.90594667  0.81272285  1
  Se  Se193  1  0.58202130  0.24984034  0.30610545  1
  Se  Se194  1  0.58407267  0.25131898  0.79828584  1
  Se  Se195  1  0.57539014  0.57026262  0.30725788  1
  Se  Se196  1  0.57316283  0.57410367  0.80489714  1
  Se  Se197  1  0.57994340  0.91214147  0.31620451  1
  Se  Se198  1  0.58760363  0.92012239  0.80197366  1
  Se  Se199  1  0.92090813  0.25504518  0.30176378  1
  Se  Se200  1  0.91822061  0.25224381  0.80297803  1
  Se  Se201  1  0.91629134  0.57397998  0.31339465  1
  Se  Se202  1  0.91246840  0.58338415  0.80486185  1
  Se  Se203  1  0.90582391  0.90965290  0.30603198  1
  Se  Se204  1  0.91592285  0.92147106  0.80068121  1
  Se  Se205  1  0.08968840  0.09470734  0.31206112  1
  Se  Se206  1  0.08182068  0.08376188  0.80125751  1
  Se  Se207  1  0.08166424  0.41313494  0.31156693  1
  Se  Se208  1  0.07781657  0.41072156  0.80027217  1
  Se  Se209  1  0.08519631  0.75897425  0.30461775  1
  Se  Se210  1  0.07477455  0.74566242  0.80006708  1
  Se  Se211  1  0.41710215  0.08284841  0.31065266  1
  Se  Se212  1  0.42365714  0.09109999  0.81273843  1
  Se  Se213  1  0.42380110  0.42212896  0.30576834  1
  Se  Se214  1  0.41332765  0.41149906  0.79855083  1
  Se  Se215  1  0.41982791  0.74924250  0.30956772  1
  Se  Se216  1  0.42369036  0.75432666  0.80462873  1
  Se  Se217  1  0.75924804  0.09507844  0.30954207  1
  Se  Se218  1  0.75051901  0.08395999  0.80122784  1
  Se  Se219  1  0.74842148  0.41454729  0.30254483  1
  Se  Se220  1  0.74701776  0.41240730  0.80289356  1
  Se  Se221  1  0.75957315  0.75828794  0.31042836  1
  Se  Se222  1  0.75963431  0.75138050  0.81500767  1
  Se  Se223  1  0.25560512  0.08062572  0.20011021  1
  Se  Se224  1  0.24642240  0.08702207  0.68909450  1
  Se  Se225  1  0.24205314  0.41828477  0.18961721  1
  Se  Se226  1  0.25198795  0.41211134  0.69812147  1
  Se  Se227  1  0.23831475  0.76269382  0.18709207  1
  Se  Se228  1  0.23771350  0.75654509  0.68957893  1
  Se  Se229  1  0.57808110  0.09415797  0.19179255  1
  Se  Se230  1  0.58500500  0.08060706  0.69676803  1
  Se  Se231  1  0.58993340  0.41322576  0.19746911  1
  Se  Se232  1  0.58473328  0.40942728  0.69527656  1
  Se  Se233  1  0.58056178  0.75459767  0.19416548  1
  Se  Se234  1  0.58432114  0.75374650  0.68894179  1
  Se  Se235  1  0.90879604  0.08980169  0.18666926  1
  Se  Se236  1  0.92113323  0.08455660  0.69508033  1
  Se  Se237  1  0.91829370  0.41378897  0.19671811  1
  Se  Se238  1  0.91741595  0.41337244  0.69909889  1
  Se  Se239  1  0.90264723  0.75707257  0.19016229  1
  Se  Se240  1  0.91330392  0.74749197  0.70017226  1
  Se  Se241  1  0.08400851  0.24089561  0.19743310  1
  Se  Se242  1  0.08205862  0.25211225  0.69509344  1
  Se  Se243  1  0.08927939  0.56892948  0.19259469  1
  Se  Se244  1  0.07863063  0.58309522  0.70199973  1
  Se  Se245  1  0.07737181  0.91501551  0.18716867  1
  Se  Se246  1  0.07657342  0.92077292  0.69694354  1
  Se  Se247  1  0.42301866  0.24221461  0.18577304  1
  Se  Se248  1  0.41403600  0.25071205  0.69672664  1
  Se  Se249  1  0.42882177  0.57207021  0.19240557  1
  Se  Se250  1  0.41947524  0.57794373  0.68479946  1
  Se  Se251  1  0.41872363  0.91985034  0.20266078  1
  Se  Se252  1  0.42311034  0.91795677  0.69113527  1
  Se  Se253  1  0.74800458  0.25500288  0.19518224  1
  Se  Se254  1  0.75172267  0.25157193  0.69830575  1
  Se  Se255  1  0.75719580  0.57812959  0.19041516  1
  Se  Se256  1  0.75133639  0.57222812  0.68922629  1
  Se  Se257  1  0.75359160  0.91224959  0.19211818  1
  Se  Se258  1  0.74740678  0.91798320  0.69715915  1
