# generated using pymatgen
data_In86Cu29Se144
_symmetry_space_group_name_H-M   'P 1'
_cell_length_a   17.58779627
_cell_length_b   17.58887636
_cell_length_c   23.45596965
_cell_angle_alpha   90.00438078
_cell_angle_beta   90.01523140
_cell_angle_gamma   89.99211373
_symmetry_Int_Tables_number   1
_chemical_formula_structural   In86Cu29Se144
_chemical_formula_sum   'In86 Cu29 Se144'
_cell_volume   7256.09387374
_cell_formula_units_Z   1
loop_
 _symmetry_equiv_pos_site_id
 _symmetry_equiv_pos_as_xyz
  1  'x, y, z'
loop_
 _atom_site_type_symbol
 _atom_site_label
 _atom_site_symmetry_multiplicity
 _atom_site_fract_x
 _atom_site_fract_y
 _atom_site_fract_z
 _atom_site_occupancy
  In  In0  1  0.00610630  0.16227048  0.13365711  1
  In  In1  1  0.00612522  0.15437326  0.62413406  1
  In  In2  1  -0.00316340  0.50275584  0.13604380  1
  In  In3  1  0.01180097  0.50241195  0.61684323  1
  In  In4  1  -0.00074339  0.83403537  0.13084302  1
  In  In5  1  -0.00355077  0.83165699  0.63217234  1
  In  In6  1  0.34839333  0.15467009  0.13197662  1
  In  In7  1  0.33233177  0.16512068  0.62564958  1
  In  In8  1  0.34195429  0.49032080  0.13379029  1
  In  In9  1  0.32920685  0.50071328  0.62659635  1
  In  In10  1  0.34427684  0.83434366  0.13393957  1
  In  In11  1  0.33222921  0.83450438  0.63240009  1
  In  In12  1  0.65657952  0.17970690  0.12823470  1
  In  In13  1  0.66542866  0.16596721  0.63319752  1
  In  In14  1  0.65716452  0.50877619  0.13255478  1
  In  In15  1  0.65737546  0.48990655  0.61832622  1
  In  In16  1  0.63159867  0.85595689  0.15488310  1
  In  In17  1  0.68095563  0.84007341  0.62925486  1
  In  In18  1  0.18232582  0.02003328  0.37154654  1
  In  In19  1  0.16865292  -0.00018848  0.86584002  1
  In  In20  1  0.17167355  0.33763487  0.38128907  1
  In  In21  1  0.17391021  0.31793484  0.87314982  1
  In  In22  1  0.16071532  0.65972505  0.37071236  1
  In  In23  1  0.17051746  0.67025186  0.86428703  1
  In  In24  1  0.49819857  -0.00561523  0.35955769  1
  In  In25  1  0.49276869  -0.00285998  0.88302330  1
  In  In26  1  0.49070955  0.32702742  0.36465900  1
  In  In27  1  0.49888505  0.33317594  0.87441842  1
  In  In28  1  0.50064985  0.67004499  0.36084751  1
  In  In29  1  0.49256203  0.67828714  0.88545932  1
  In  In30  1  0.82971607  -0.00331441  0.36630627  1
  In  In31  1  0.83861807  0.00032238  0.86714860  1
  In  In32  1  0.84275601  0.34114637  0.37123150  1
  In  In33  1  0.82450388  0.34848339  0.87368345  1
  In  In34  1  0.82154353  0.64848489  0.37286733  1
  In  In35  1  0.83311651  0.66165503  0.86957052  1
  In  In36  1  0.01079384  0.17726840  0.36826410  1
  In  In37  1  0.01204084  0.15808396  0.87533557  1
  In  In38  1  0.00302196  0.49867417  0.37990852  1
  In  In39  1  -0.01240188  0.50644447  0.87215586  1
  In  In40  1  0.00286318  0.83406403  0.36853746  1
  In  In41  1  0.00601824  0.83849692  0.86427746  1
  In  In42  1  0.32481059  0.16380966  0.37630015  1
  In  In43  1  0.33809527  0.17028862  0.87070243  1
  In  In44  1  0.32014896  0.49167202  0.36959684  1
  In  In45  1  0.34403059  0.50925160  0.86740473  1
  In  In46  1  0.33965387  0.83661287  0.36222731  1
  In  In47  1  0.34650318  0.84182091  0.86743947  1
  In  In48  1  0.65959879  0.16316411  0.36421837  1
  In  In49  1  0.65000395  0.15486469  0.87248576  1
  In  In50  1  0.67944119  0.50747854  0.37186885  1
  In  In51  1  0.66428289  0.49283503  0.87353642  1
  In  In52  1  0.66105896  0.82936677  0.36035651  1
  In  In53  1  0.65198994  0.83111535  0.88058217  1
  In  In54  1  0.16960595  -0.00084560  0.13109636  1
  In  In55  1  0.16841238  0.00104855  0.62371156  1
  In  In56  1  0.17080712  0.32761407  0.13755262  1
  In  In57  1  0.18425663  0.33665197  0.60751119  1
  In  In58  1  0.16750093  0.67014859  0.13583097  1
  In  In59  1  0.17069847  0.66136237  0.62755311  1
  In  In60  1  0.49043453  0.00563322  0.12188390  1
  In  In61  1  0.50222561  0.00171544  0.63589951  1
  In  In62  1  0.49706148  0.33485857  0.12366471  1
  In  In63  1  0.49992654  0.33039075  0.63067181  1
  In  In64  1  0.50198156  0.66713732  0.12815772  1
  In  In65  1  0.49302132  0.65602164  0.62570483  1
  In  In66  1  0.83667955  -0.00512126  0.12722660  1
  In  In67  1  0.83728788  -0.00792692  0.64318728  1
  In  In68  1  0.83032549  0.33797124  0.13488336  1
  In  In69  1  0.82019653  0.33436546  0.62208078  1
  In  In70  1  0.82939573  0.67142742  0.13316403  1
  In  In71  1  0.84254241  0.67001479  0.61928280  1
  In  In72  1  0.49497250  0.16617971  0.49445031  1
  In  In73  1  0.17286701  0.49959817  0.00025118  1
  In  In74  1  0.17782149  0.83827963  -0.00412034  1
  In  In75  1  0.66468454  0.67237998  0.75003418  1
  In  In76  1  0.17787632  0.15899911  0.00618616  1
  In  In77  1  0.83579429  0.16672695  0.50074825  1
  In  In78  1  0.50022207  0.83324483  0.48656988  1
  In  In79  1  0.00372614  0.33251429  0.75034893  1
  In  In80  1  0.82470297  0.50442104  -0.00083112  1
  In  In81  1  0.82656054  0.83191706  0.00570059  1
  In  In82  1  0.49591277  0.49755224  0.49601240  1
  In  In83  1  0.83408576  0.82936524  0.50467618  1
  In  In84  1  0.16829327  0.83308221  0.50277601  1
  In  In85  1  0.82592070  0.16339043  -0.00751863  1
  Cu  Cu86  1  0.66968495  -0.00220561  0.50290593  1
  Cu  Cu87  1  0.66884804  0.33631403  0.49551675  1
  Cu  Cu88  1  0.49652962  0.17246047  0.24519472  1
  Cu  Cu89  1  0.50291161  0.16520836  0.75535470  1
  Cu  Cu90  1  0.84107523  0.49224837  0.25619555  1
  Cu  Cu91  1  0.17127198  0.16414195  0.74595253  1
  Cu  Cu92  1  0.33006677  0.66460867  0.49876757  1
  Cu  Cu93  1  0.83240043  0.50447355  0.74609362  1
  Cu  Cu94  1  0.65210803  0.33661967  -0.00031219  1
  Cu  Cu95  1  0.16564808  0.49741262  0.74292551  1
  Cu  Cu96  1  0.00541405  0.00385005  0.49755726  1
  Cu  Cu97  1  0.65799852  -0.00204740  0.00453992  1
  Cu  Cu98  1  0.49646585  0.49698182  0.74895796  1
  Cu  Cu99  1  0.00328361  0.33508246  0.49481482  1
  Cu  Cu100  1  0.16474767  0.50208432  0.25667974  1
  Cu  Cu101  1  0.16580260  0.82753220  0.74650055  1
  Cu  Cu102  1  0.82948840  0.16234144  0.24834818  1
  Cu  Cu103  1  0.16737420  0.83826298  0.25096698  1
  Cu  Cu104  1  0.50013570  0.49794673  0.24906659  1
  Cu  Cu105  1  -0.00330564  0.65858221  0.49558488  1
  Cu  Cu106  1  -0.00031468  0.32855666  0.01230435  1
  Cu  Cu107  1  0.84014224  0.82731153  0.25047012  1
  Cu  Cu108  1  0.34123345  0.66561966  0.00428125  1
  Cu  Cu109  1  0.49725920  0.83465980  0.75693042  1
  Cu  Cu110  1  0.83280348  0.17265656  0.74968711  1
  Cu  Cu111  1  0.65287462  0.67041824  0.01032975  1
  Cu  Cu112  1  -0.00000421  0.67228002  -0.00065117  1
  Cu  Cu113  1  0.16414516  0.17167278  0.25390233  1
  Cu  Cu114  1  0.34326071  0.33306562  -0.00037572  1
  Se  Se115  1  0.07666708  0.07396389  0.05811403  1
  Se  Se116  1  0.09010561  0.08367592  0.55077265  1
  Se  Se117  1  0.08173846  0.41377637  0.06434251  1
  Se  Se118  1  0.08901365  0.41708604  0.54799891  1
  Se  Se119  1  0.08420968  0.74816495  0.05736364  1
  Se  Se120  1  0.07242637  0.74279467  0.55757368  1
  Se  Se121  1  0.41580328  0.08984150  0.04911880  1
  Se  Se122  1  0.41797369  0.07195980  0.55872846  1
  Se  Se123  1  0.41818975  0.42259478  0.05368192  1
  Se  Se124  1  0.41169274  0.40713755  0.55863518  1
  Se  Se125  1  0.41782500  0.75078761  0.05996578  1
  Se  Se126  1  0.41190177  0.74669978  0.55535006  1
  Se  Se127  1  0.74219301  0.07829942  0.06120355  1
  Se  Se128  1  0.74965362  0.07542658  0.56355243  1
  Se  Se129  1  0.74051935  0.41035255  0.05896009  1
  Se  Se130  1  0.75015739  0.41991461  0.54869172  1
  Se  Se131  1  0.73610023  0.74910140  0.06758841  1
  Se  Se132  1  0.73539943  0.74025001  0.55610738  1
  Se  Se133  1  0.25997208  0.25916976  0.06180471  1
  Se  Se134  1  0.24737241  0.22993102  0.54903630  1
  Se  Se135  1  0.25598588  0.59044222  0.06335944  1
  Se  Se136  1  0.24970219  0.58256802  0.55440715  1
  Se  Se137  1  0.26182097  0.92409166  0.06115574  1
  Se  Se138  1  0.26436705  0.92166191  0.55581648  1
  Se  Se139  1  0.57466169  0.24834933  0.05202385  1
  Se  Se140  1  0.59146643  0.25321228  0.55571406  1
  Se  Se141  1  0.57530549  0.57591452  0.05564146  1
  Se  Se142  1  0.58641285  0.59218549  0.55267788  1
  Se  Se143  1  0.57993342  0.91383100  0.06123691  1
  Se  Se144  1  0.58549617  0.91751850  0.55888819  1
  Se  Se145  1  0.91222378  0.24868314  0.06283838  1
  Se  Se146  1  0.92618885  0.25797905  0.56071806  1
  Se  Se147  1  0.92200124  0.58953827  0.05806640  1
  Se  Se148  1  0.91573591  0.57802377  0.55270159  1
  Se  Se149  1  0.92796705  0.92100424  0.05418925  1
  Se  Se150  1  0.92260382  0.92847326  0.55874302  1
  Se  Se151  1  0.08603955  0.24816398  0.44620575  1
  Se  Se152  1  0.07978479  0.25416350  0.94943811  1
  Se  Se153  1  0.08991125  0.58119522  0.44774055  1
  Se  Se154  1  0.07845822  0.58934046  0.94039464  1
  Se  Se155  1  0.08390299  0.92285693  0.43815305  1
  Se  Se156  1  0.08006084  0.92391268  0.94016506  1
  Se  Se157  1  0.40543376  0.26273526  0.44346132  1
  Se  Se158  1  0.41949403  0.24696755  0.94391196  1
  Se  Se159  1  0.41196646  0.59187668  0.43490836  1
  Se  Se160  1  0.41784838  0.57940174  0.94767090  1
  Se  Se161  1  0.40793705  0.92991507  0.43771452  1
  Se  Se162  1  0.41792936  0.90435330  0.94928179  1
  Se  Se163  1  0.74376776  0.24942295  0.43678667  1
  Se  Se164  1  0.73717152  0.26128614  0.93867159  1
  Se  Se165  1  0.75073115  0.57749751  0.45222126  1
  Se  Se166  1  0.73349176  0.59898696  0.94288193  1
  Se  Se167  1  0.74362910  0.91584886  0.44015711  1
  Se  Se168  1  0.74367778  0.92648438  0.94249884  1
  Se  Se169  1  0.24867220  0.09044893  0.45404108  1
  Se  Se170  1  0.25938920  0.07308542  0.93879557  1
  Se  Se171  1  0.24965164  0.42420601  0.45030814  1
  Se  Se172  1  0.25873562  0.40824239  0.93852848  1
  Se  Se173  1  0.25707042  0.74894839  0.43649900  1
  Se  Se174  1  0.26034583  0.73877466  0.93904665  1
  Se  Se175  1  0.58868891  0.07158856  0.43966018  1
  Se  Se176  1  0.57691429  0.08341755  0.95121160  1
  Se  Se177  1  0.58437248  0.40838983  0.43399656  1
  Se  Se178  1  0.57593340  0.42343944  0.94432453  1
  Se  Se179  1  0.59381890  0.73878492  0.43675592  1
  Se  Se180  1  0.57499948  0.75739673  0.95622443  1
  Se  Se181  1  0.92083652  0.07780862  0.43675994  1
  Se  Se182  1  0.92645386  0.07411587  0.94396868  1
  Se  Se183  1  0.91447426  0.41822803  0.44829781  1
  Se  Se184  1  0.92476822  0.40910557  0.94808674  1
  Se  Se185  1  0.92085714  0.74483062  0.43828984  1
  Se  Se186  1  0.91917764  0.74837573  0.93881461  1
  Se  Se187  1  0.24870803  0.25331662  0.30799778  1
  Se  Se188  1  0.25422204  0.24896627  0.79811520  1
  Se  Se189  1  0.25367485  0.58913289  0.30191810  1
  Se  Se190  1  0.24856290  0.57881609  0.80031992  1
  Se  Se191  1  0.24952727  0.92375089  0.30342199  1
  Se  Se192  1  0.24869899  0.91037248  0.80171945  1
  Se  Se193  1  0.58328601  0.25338095  0.29821852  1
  Se  Se194  1  0.58577244  0.25373768  0.80506494  1
  Se  Se195  1  0.58634620  0.57785345  0.30269481  1
  Se  Se196  1  0.57457673  0.58200154  0.80953154  1
  Se  Se197  1  0.59098763  0.92228545  0.29435578  1
  Se  Se198  1  0.57884072  0.91804378  0.81071408  1
  Se  Se199  1  0.91120248  0.24513972  0.30430781  1
  Se  Se200  1  0.91206458  0.24753661  0.81554612  1
  Se  Se201  1  0.92110949  0.58064009  0.30838029  1
  Se  Se202  1  0.91727300  0.58792139  0.79692370  1
  Se  Se203  1  0.91929464  0.91720170  0.30163784  1
  Se  Se204  1  0.91968285  0.91885905  0.80008187  1
  Se  Se205  1  0.08239953  0.08104641  0.30318132  1
  Se  Se206  1  0.08380992  0.08302637  0.79811437  1
  Se  Se207  1  0.08469645  0.41565069  0.31044580  1
  Se  Se208  1  0.09155292  0.42393156  0.81359359  1
  Se  Se209  1  0.08605535  0.75014958  0.30248423  1
  Se  Se210  1  0.07914104  0.74486738  0.79827475  1
  Se  Se211  1  0.41604800  0.09311686  0.30532957  1
  Se  Se212  1  0.41916592  0.08004762  0.80700883  1
  Se  Se213  1  0.41174715  0.41828722  0.30113467  1
  Se  Se214  1  0.41427534  0.41194121  0.80245982  1
  Se  Se215  1  0.43187684  0.76598020  0.29611814  1
  Se  Se216  1  0.41611960  0.74165258  0.80307098  1
  Se  Se217  1  0.74475079  0.07841602  0.29954264  1
  Se  Se218  1  0.75288062  0.09124478  0.80821627  1
  Se  Se219  1  0.74847115  0.41209195  0.30392489  1
  Se  Se220  1  0.74707225  0.42201658  0.79806304  1
  Se  Se221  1  0.75599014  0.74495871  0.30377532  1
  Se  Se222  1  0.75292590  0.76198333  0.81147172  1
  Se  Se223  1  0.24635421  0.09027420  0.19648418  1
  Se  Se224  1  0.25392723  0.07774978  0.69468829  1
  Se  Se225  1  0.24771626  0.41966245  0.20111715  1
  Se  Se226  1  0.24699732  0.41094725  0.69155532  1
  Se  Se227  1  0.25240070  0.75483099  0.19921526  1
  Se  Se228  1  0.25248457  0.74444104  0.69608043  1
  Se  Se229  1  0.57808538  0.08772351  0.19136066  1
  Se  Se230  1  0.58826570  0.08152892  0.70276892  1
  Se  Se231  1  0.58227238  0.41287179  0.19509624  1
  Se  Se232  1  0.58335032  0.41668064  0.69618186  1
  Se  Se233  1  0.60447356  0.72440434  0.19607725  1
  Se  Se234  1  0.57211097  0.75941844  0.68777162  1
  Se  Se235  1  0.91593297  0.08014639  0.19603615  1
  Se  Se236  1  0.91919644  0.08997434  0.69914781  1
  Se  Se237  1  0.92408294  0.40934244  0.20165695  1
  Se  Se238  1  0.91314315  0.42042334  0.68845438  1
  Se  Se239  1  0.92476427  0.74363289  0.19820010  1
  Se  Se240  1  0.89648573  0.76215974  0.69315326  1
  Se  Se241  1  0.07695003  0.25362829  0.20220704  1
  Se  Se242  1  0.09243011  0.24845186  0.68660318  1
  Se  Se243  1  0.08264368  0.58552850  0.20072657  1
  Se  Se244  1  0.07998555  0.58267110  0.69452196  1
  Se  Se245  1  0.08187259  0.91902844  0.19712653  1
  Se  Se246  1  0.08749957  0.91512577  0.69204350  1
  Se  Se247  1  0.41106175  0.25841196  0.19549012  1
  Se  Se248  1  0.41987939  0.24230144  0.69530061  1
  Se  Se249  1  0.41698029  0.58468805  0.19768255  1
  Se  Se250  1  0.41202019  0.58144561  0.69777035  1
  Se  Se251  1  0.42046502  0.92476143  0.19912180  1
  Se  Se252  1  0.41561172  0.91719817  0.69989904  1
  Se  Se253  1  0.74715797  0.25076953  0.19818613  1
  Se  Se254  1  0.74866683  0.25445251  0.69730294  1
  Se  Se255  1  0.76054231  0.57197292  0.19609930  1
  Se  Se256  1  0.74781237  0.57999163  0.68563335  1
  Se  Se257  1  0.75773313  0.91097423  0.19631819  1
  Se  Se258  1  0.73565312  0.92832206  0.70499006  1
