# generated using pymatgen
data_In86Cu29Se144
_symmetry_space_group_name_H-M   'P 1'
_cell_length_a   17.57750901
_cell_length_b   17.57895474
_cell_length_c   23.43741387
_cell_angle_alpha   90.02298323
_cell_angle_beta   90.00202388
_cell_angle_gamma   90.00183238
_symmetry_Int_Tables_number   1
_chemical_formula_structural   In86Cu29Se144
_chemical_formula_sum   'In86 Cu29 Se144'
_cell_volume   7242.02518065
_cell_formula_units_Z   1
loop_
 _symmetry_equiv_pos_site_id
 _symmetry_equiv_pos_as_xyz
  1  'x, y, z'
loop_
 _atom_site_type_symbol
 _atom_site_label
 _atom_site_symmetry_multiplicity
 _atom_site_fract_x
 _atom_site_fract_y
 _atom_site_fract_z
 _atom_site_occupancy
  In  In0  1  -0.01284961  0.16196855  0.11427250  1
  In  In1  1  -0.00093222  0.16696094  0.62449685  1
  In  In2  1  0.00863299  0.50284537  0.12019039  1
  In  In3  1  -0.00014666  0.50552800  0.64060887  1
  In  In4  1  -0.01249794  0.84697987  0.13274004  1
  In  In5  1  -0.02718552  0.83314274  0.62856854  1
  In  In6  1  0.33398806  0.15633134  0.10838104  1
  In  In7  1  0.32904038  0.17226955  0.63473532  1
  In  In8  1  0.32708225  0.51223486  0.11522196  1
  In  In9  1  0.32320528  0.49677968  0.63431932  1
  In  In10  1  0.34376308  0.83822582  0.11593846  1
  In  In11  1  0.35823736  0.83588973  0.62532665  1
  In  In12  1  0.67028080  0.16185914  0.12295300  1
  In  In13  1  0.67839836  0.15502560  0.63209547  1
  In  In14  1  0.66798158  0.49937377  0.13177774  1
  In  In15  1  0.66381605  0.50366219  0.62955147  1
  In  In16  1  0.66668109  0.83532121  0.12678028  1
  In  In17  1  0.67100751  0.83761225  0.62135710  1
  In  In18  1  0.17242818  0.01361479  0.37668901  1
  In  In19  1  0.18639395  0.00520313  0.87438559  1
  In  In20  1  0.15330899  0.32876597  0.37843259  1
  In  In21  1  0.16599692  0.33025789  0.87311111  1
  In  In22  1  0.15326773  0.67841569  0.37589893  1
  In  In23  1  0.15217721  0.66803251  0.87547805  1
  In  In24  1  0.51576897  -0.01897550  0.38387458  1
  In  In25  1  0.50196687  -0.00326900  0.88354596  1
  In  In26  1  0.50893878  0.31886097  0.37672936  1
  In  In27  1  0.49146389  0.32225273  0.86653393  1
  In  In28  1  0.51528174  0.68025221  0.37738369  1
  In  In29  1  0.51635369  0.67089970  0.87656897  1
  In  In30  1  0.82982304  -0.00345062  0.37429732  1
  In  In31  1  0.82979404  0.00027253  0.87631850  1
  In  In32  1  0.82346575  0.33952215  0.37439902  1
  In  In33  1  0.82493557  0.32225794  0.86541771  1
  In  In34  1  0.83478339  0.67734074  0.37325334  1
  In  In35  1  0.83384478  0.67624238  0.87014560  1
  In  In36  1  0.00430907  0.15688102  0.37857731  1
  In  In37  1  -0.00805613  0.17382956  0.87836683  1
  In  In38  1  -0.01258643  0.50571103  0.37529625  1
  In  In39  1  0.01599728  0.50406077  0.86505163  1
  In  In40  1  -0.01254245  0.82884644  0.36815548  1
  In  In41  1  -0.00823436  0.82434073  0.87154084  1
  In  In42  1  0.32982094  0.15492873  0.37921366  1
  In  In43  1  0.33559477  0.15988411  0.88231089  1
  In  In44  1  0.33667201  0.50149480  0.37651568  1
  In  In45  1  0.32644062  0.48496158  0.86719589  1
  In  In46  1  0.33842758  0.83245623  0.37983686  1
  In  In47  1  0.34260392  0.85692714  0.87278390  1
  In  In48  1  0.67299740  0.16780318  0.37211685  1
  In  In49  1  0.66806415  0.16211411  0.87471242  1
  In  In50  1  0.67457238  0.50631780  0.36916582  1
  In  In51  1  0.67103310  0.50415737  0.86622185  1
  In  In52  1  0.66912903  0.84057225  0.37504565  1
  In  In53  1  0.66864511  0.83328690  0.87858043  1
  In  In54  1  0.15267650  0.00261991  0.12361167  1
  In  In55  1  0.16031822  0.01607391  0.63088950  1
  In  In56  1  0.16713451  0.33417027  0.11415004  1
  In  In57  1  0.17282341  0.32600036  0.64228419  1
  In  In58  1  0.16520528  0.65938455  0.11987594  1
  In  In59  1  0.16131956  0.65938710  0.62997505  1
  In  In60  1  0.50716494  0.00669362  0.11833769  1
  In  In61  1  0.51921046  -0.01729362  0.63206710  1
  In  In62  1  0.51456646  0.32760346  0.12341011  1
  In  In63  1  0.49980612  0.32916600  0.63781570  1
  In  In64  1  0.50832175  0.67871104  0.12358463  1
  In  In65  1  0.50895179  0.69136001  0.61480297  1
  In  In66  1  0.83479775  -0.00127344  0.12260740  1
  In  In67  1  0.80565005  -0.01691699  0.60140014  1
  In  In68  1  0.82908932  0.32010425  0.12096183  1
  In  In69  1  0.84207479  0.32653941  0.63281141  1
  In  In70  1  0.81893220  0.67937483  0.13350403  1
  In  In71  1  0.81056690  0.69800032  0.65278230  1
  In  In72  1  0.34253260  -0.00154545  0.24923474  1
  In  In73  1  0.33725792  0.33030330  0.23772306  1
  In  In74  1  0.33525596  0.66984202  0.24508990  1
  In  In75  1  0.16785129  0.83920686  0.49881553  1
  In  In76  1  0.49951596  0.50755720  0.50756189  1
  In  In77  1  -0.01173578  -0.00141789  0.75132891  1
  In  In78  1  0.83570156  0.50330091  0.50300469  1
  In  In79  1  -0.00848274  0.33327072  0.24472523  1
  In  In80  1  0.16710041  0.49469436  0.51903601  1
  In  In81  1  0.33756673  0.66919218  0.74357965  1
  In  In82  1  0.50282388  0.15987333  0.50179920  1
  In  In83  1  0.83789771  0.49692671  -0.00897217  1
  In  In84  1  0.16152390  0.83607298  -0.00449242  1
  In  In85  1  0.49385481  0.49452044  -0.00994200  1
  Cu  Cu86  1  0.16396189  0.16928063  0.25036926  1
  Cu  Cu87  1  0.33066525  0.00851911  0.50754135  1
  Cu  Cu88  1  0.82985508  0.16069001  0.74820133  1
  Cu  Cu89  1  0.50925568  0.84143564  0.75126529  1
  Cu  Cu90  1  0.83091757  0.50686253  0.25156521  1
  Cu  Cu91  1  0.16098290  0.83350110  0.24860813  1
  Cu  Cu92  1  0.00500908  0.33228985  -0.00517357  1
  Cu  Cu93  1  0.83090023  0.15990676  0.24590253  1
  Cu  Cu94  1  0.66433078  0.67704263  0.00481322  1
  Cu  Cu95  1  -0.00687700  0.66828567  -0.00348421  1
  Cu  Cu96  1  0.51432606  0.15914637  0.24970191  1
  Cu  Cu97  1  0.66632762  0.33038082  0.49891666  1
  Cu  Cu98  1  -0.00072737  0.66412449  0.50559069  1
  Cu  Cu99  1  0.50409821  0.50334696  0.74959900  1
  Cu  Cu100  1  0.50074993  0.16012450  0.75459803  1
  Cu  Cu101  1  0.33156112  0.33011841  -0.00823580  1
  Cu  Cu102  1  0.00129981  0.31726600  0.50644088  1
  Cu  Cu103  1  0.17053625  0.16724012  0.75552371  1
  Cu  Cu104  1  0.50643485  0.49760838  0.25187259  1
  Cu  Cu105  1  0.82988026  0.83802911  0.25179489  1
  Cu  Cu106  1  -0.00610755  0.00407877  0.49918845  1
  Cu  Cu107  1  0.15871729  0.51105726  0.24580911  1
  Cu  Cu108  1  0.32180579  0.32846528  0.51037150  1
  Cu  Cu109  1  0.16617063  0.83688214  0.75399874  1
  Cu  Cu110  1  0.66654364  0.32209261  -0.00454436  1
  Cu  Cu111  1  0.67119287  -0.00034225  0.00043287  1
  Cu  Cu112  1  -0.00193756  0.00415178  -0.00214219  1
  Cu  Cu113  1  0.32946730  0.66912305  -0.00324232  1
  Cu  Cu114  1  0.83532416  0.49759941  0.75338633  1
  Se  Se115  1  0.08300498  0.08718638  0.04979914  1
  Se  Se116  1  0.07976196  0.08300994  0.55344890  1
  Se  Se117  1  0.08346439  0.41959475  0.04864548  1
  Se  Se118  1  0.07192236  0.40234446  0.56965656  1
  Se  Se119  1  0.07234350  0.74974432  0.05914237  1
  Se  Se120  1  0.07936651  0.74976423  0.56182902  1
  Se  Se121  1  0.41685132  0.07204078  0.04550997  1
  Se  Se122  1  0.41611417  0.07873915  0.56968339  1
  Se  Se123  1  0.40940593  0.40663757  0.05936830  1
  Se  Se124  1  0.40924838  0.40878618  0.56315184  1
  Se  Se125  1  0.41739943  0.74419869  0.05092615  1
  Se  Se126  1  0.41116140  0.75066080  0.54666638  1
  Se  Se127  1  0.75588235  0.08451417  0.05266653  1
  Se  Se128  1  0.74764032  0.09582313  0.54670590  1
  Se  Se129  1  0.74149386  0.41195573  0.05341554  1
  Se  Se130  1  0.74518628  0.40999341  0.56083101  1
  Se  Se131  1  0.75354196  0.75715280  0.05417713  1
  Se  Se132  1  0.76341037  0.75321768  0.55938048  1
  Se  Se133  1  0.24960343  0.24856930  0.04922865  1
  Se  Se134  1  0.24093526  0.24527551  0.56299701  1
  Se  Se135  1  0.24232129  0.58414145  0.04312362  1
  Se  Se136  1  0.26411259  0.59477976  0.55960472  1
  Se  Se137  1  0.24995743  0.92478009  0.05711305  1
  Se  Se138  1  0.25193298  0.92462259  0.56647576  1
  Se  Se139  1  0.58398854  0.24175090  0.05142172  1
  Se  Se140  1  0.58623103  0.25534776  0.56229295  1
  Se  Se141  1  0.58615334  0.58070219  0.05458463  1
  Se  Se142  1  0.60052574  0.59766256  0.55442942  1
  Se  Se143  1  0.58734706  0.91589066  0.05393068  1
  Se  Se144  1  0.57709066  0.90563704  0.55033321  1
  Se  Se145  1  0.91487498  0.25432772  0.04637209  1
  Se  Se146  1  0.90755776  0.24246243  0.55568094  1
  Se  Se147  1  0.91311795  0.59017861  0.05980517  1
  Se  Se148  1  0.91987974  0.58891223  0.56844455  1
  Se  Se149  1  0.91823236  0.91701206  0.05088123  1
  Se  Se150  1  0.91449959  0.91260434  0.54691799  1
  Se  Se151  1  0.08590327  0.24069607  0.44925432  1
  Se  Se152  1  0.08755618  0.24499442  0.94458660  1
  Se  Se153  1  0.08006521  0.58099409  0.44825463  1
  Se  Se154  1  0.07863912  0.58345489  0.94784289  1
  Se  Se155  1  0.07590717  0.92461157  0.43699336  1
  Se  Se156  1  0.07452893  0.92611364  0.93248238  1
  Se  Se157  1  0.40628211  0.25614551  0.44661218  1
  Se  Se158  1  0.42319613  0.24836580  0.94691166  1
  Se  Se159  1  0.41435462  0.59342934  0.44054376  1
  Se  Se160  1  0.40686285  0.58972397  0.93189270  1
  Se  Se161  1  0.40651758  0.92692211  0.44711322  1
  Se  Se162  1  0.41582166  0.91887930  0.95402592  1
  Se  Se163  1  0.75099135  0.25164523  0.44427010  1
  Se  Se164  1  0.75583942  0.24401111  0.94370544  1
  Se  Se165  1  0.74557772  0.59301042  0.44370826  1
  Se  Se166  1  0.73986536  0.59192301  0.94411111  1
  Se  Se167  1  0.76930345  0.89970641  0.44421908  1
  Se  Se168  1  0.75360679  0.91470020  0.94758596  1
  Se  Se169  1  0.24537426  0.08966177  0.45503959  1
  Se  Se170  1  0.24887310  0.08373438  0.95268323  1
  Se  Se171  1  0.25187016  0.41050406  0.44400915  1
  Se  Se172  1  0.24692722  0.41691230  0.94450678  1
  Se  Se173  1  0.25468134  0.73841477  0.44417765  1
  Se  Se174  1  0.25553379  0.75151605  0.93329589  1
  Se  Se175  1  0.59959048  0.07497066  0.44619319  1
  Se  Se176  1  0.58756675  0.08431939  0.94810624  1
  Se  Se177  1  0.58739612  0.41545571  0.44229657  1
  Se  Se178  1  0.59180055  0.40801139  0.93510314  1
  Se  Se179  1  0.57639705  0.77199711  0.44846097  1
  Se  Se180  1  0.57918648  0.75793511  0.95155336  1
  Se  Se181  1  0.91022891  0.08513300  0.44379616  1
  Se  Se182  1  0.91212604  0.08506553  0.94431616  1
  Se  Se183  1  0.92734982  0.40438822  0.44608024  1
  Se  Se184  1  0.92487376  0.40739062  0.93049022  1
  Se  Se185  1  0.92281711  0.74636788  0.44642245  1
  Se  Se186  1  0.90995237  0.75318070  0.94706798  1
  Se  Se187  1  0.24768255  0.24819377  0.30813615  1
  Se  Se188  1  0.25652972  0.24507276  0.81085026  1
  Se  Se189  1  0.24282953  0.58167302  0.30919030  1
  Se  Se190  1  0.24730642  0.58731120  0.80853592  1
  Se  Se191  1  0.24465582  0.90985934  0.30891736  1
  Se  Se192  1  0.25426585  0.92184729  0.79822272  1
  Se  Se193  1  0.59027094  0.25122475  0.30141134  1
  Se  Se194  1  0.58662616  0.24617111  0.80391379  1
  Se  Se195  1  0.58090940  0.58543744  0.30729885  1
  Se  Se196  1  0.58592302  0.58909752  0.80094620  1
  Se  Se197  1  0.58673959  0.91857720  0.30221127  1
  Se  Se198  1  0.58794059  0.92160488  0.81078194  1
  Se  Se199  1  0.90898969  0.24276911  0.30857931  1
  Se  Se200  1  0.91611248  0.24400834  0.79886159  1
  Se  Se201  1  0.91570960  0.58896255  0.30377324  1
  Se  Se202  1  0.91517749  0.58249478  0.80880820  1
  Se  Se203  1  0.91750895  0.92262496  0.30093254  1
  Se  Se204  1  0.89860343  0.90164763  0.80353215  1
  Se  Se205  1  0.08513812  0.08285602  0.30330902  1
  Se  Se206  1  0.08482767  0.08425450  0.81106965  1
  Se  Se207  1  0.08524011  0.42494494  0.30599204  1
  Se  Se208  1  0.08516543  0.40808039  0.80075690  1
  Se  Se209  1  0.07684012  0.74909975  0.29972338  1
  Se  Se210  1  0.08146590  0.75165213  0.80158071  1
  Se  Se211  1  0.43079842  0.08736855  0.31375894  1
  Se  Se212  1  0.41961699  0.07917386  0.81187712  1
  Se  Se213  1  0.42306146  0.41629661  0.30838240  1
  Se  Se214  1  0.42037287  0.41761884  0.79951470  1
  Se  Se215  1  0.42339511  0.75931875  0.30464303  1
  Se  Se216  1  0.42535508  0.75729522  0.80843443  1
  Se  Se217  1  0.74854141  0.08002391  0.30313499  1
  Se  Se218  1  0.74879254  0.07834454  0.80373193  1
  Se  Se219  1  0.74860252  0.41704535  0.29961342  1
  Se  Se220  1  0.74675397  0.41307595  0.80038550  1
  Se  Se221  1  0.74754074  0.75168230  0.30397985  1
  Se  Se222  1  0.73238425  0.73865984  0.80707867  1
  Se  Se223  1  0.24797299  0.08988045  0.19145816  1
  Se  Se224  1  0.25141684  0.08159225  0.70233692  1
  Se  Se225  1  0.24094084  0.42930947  0.18928652  1
  Se  Se226  1  0.25004202  0.41717168  0.70617900  1
  Se  Se227  1  0.24363750  0.76150071  0.18485222  1
  Se  Se228  1  0.24601501  0.76356485  0.68656331  1
  Se  Se229  1  0.59185758  0.07564390  0.19344729  1
  Se  Se230  1  0.58591704  0.08122468  0.69826475  1
  Se  Se231  1  0.58485268  0.41196689  0.19690517  1
  Se  Se232  1  0.58700621  0.41650855  0.69851815  1
  Se  Se233  1  0.59544439  0.74153550  0.19573758  1
  Se  Se234  1  0.58660225  0.75613192  0.69443659  1
  Se  Se235  1  0.91975084  0.08303025  0.19236865  1
  Se  Se236  1  0.90248727  0.07918041  0.68318777  1
  Se  Se237  1  0.90442710  0.42723804  0.18507711  1
  Se  Se238  1  0.91910569  0.41280934  0.70203324  1
  Se  Se239  1  0.91435754  0.75278945  0.19861618  1
  Se  Se240  1  0.93827435  0.72971406  0.70086005  1
  Se  Se241  1  0.08683825  0.24681306  0.18668388  1
  Se  Se242  1  0.07931231  0.24054741  0.70054758  1
  Se  Se243  1  0.07561302  0.59275200  0.19336643  1
  Se  Se244  1  0.10260098  0.57026196  0.70321078  1
  Se  Se245  1  0.08075150  0.92285304  0.19876648  1
  Se  Se246  1  0.08224378  0.91018925  0.68920765  1
  Se  Se247  1  0.42679670  0.23107649  0.18784699  1
  Se  Se248  1  0.41575527  0.24782668  0.70497676  1
  Se  Se249  1  0.42492521  0.57253450  0.18868741  1
  Se  Se250  1  0.43183087  0.58293188  0.68331326  1
  Se  Se251  1  0.43057604  0.90811043  0.19047078  1
  Se  Se252  1  0.41910559  0.92224241  0.70203777  1
  Se  Se253  1  0.74870146  0.24813448  0.19525872  1
  Se  Se254  1  0.74774367  0.25166186  0.69836466  1
  Se  Se255  1  0.74342519  0.58764841  0.19965434  1
  Se  Se256  1  0.75027732  0.57893549  0.70000846  1
  Se  Se257  1  0.75127500  0.92049973  0.19364443  1
  Se  Se258  1  0.75219703  0.92095541  0.69110149  1
