# generated using pymatgen
data_In86Cu29Se144
_symmetry_space_group_name_H-M   'P 1'
_cell_length_a   17.57451146
_cell_length_b   17.57852813
_cell_length_c   23.43081715
_cell_angle_alpha   90.00511094
_cell_angle_beta   90.03049690
_cell_angle_gamma   89.97651322
_symmetry_Int_Tables_number   1
_chemical_formula_structural   In86Cu29Se144
_chemical_formula_sum   'In86 Cu29 Se144'
_cell_volume   7238.57543526
_cell_formula_units_Z   1
loop_
 _symmetry_equiv_pos_site_id
 _symmetry_equiv_pos_as_xyz
  1  'x, y, z'
loop_
 _atom_site_type_symbol
 _atom_site_label
 _atom_site_symmetry_multiplicity
 _atom_site_fract_x
 _atom_site_fract_y
 _atom_site_fract_z
 _atom_site_occupancy
  In  In0  1  -0.01063568  0.16901940  0.13943102  1
  In  In1  1  0.00007657  0.16251103  0.62040052  1
  In  In2  1  -0.00249374  0.49826179  0.13069453  1
  In  In3  1  -0.00937573  0.50944594  0.62903322  1
  In  In4  1  -0.00069730  0.83895107  0.13160522  1
  In  In5  1  -0.00011202  0.82985104  0.61886159  1
  In  In6  1  0.33551689  0.14976038  0.12946437  1
  In  In7  1  0.32202338  0.16887792  0.63221282  1
  In  In8  1  0.33258692  0.51665473  0.12200045  1
  In  In9  1  0.31689685  0.49652031  0.62819564  1
  In  In10  1  0.34128584  0.82451266  0.12848324  1
  In  In11  1  0.33885446  0.85386354  0.62809789  1
  In  In12  1  0.66653824  0.16500831  0.13067234  1
  In  In13  1  0.67143183  0.16070605  0.61907952  1
  In  In14  1  0.68215556  0.48823277  0.14711440  1
  In  In15  1  0.67763727  0.49391796  0.61816021  1
  In  In16  1  0.65654774  0.84127338  0.13516546  1
  In  In17  1  0.67589693  0.82752425  0.61804803  1
  In  In18  1  0.16689298  0.00268075  0.37697344  1
  In  In19  1  0.16272350  -0.00257644  0.86607921  1
  In  In20  1  0.14642677  0.34065733  0.37618122  1
  In  In21  1  0.16845036  0.33637983  0.87453684  1
  In  In22  1  0.17312017  0.67634201  0.37157497  1
  In  In23  1  0.14874807  0.66558134  0.87933659  1
  In  In24  1  0.50790171  0.01831343  0.35828080  1
  In  In25  1  0.49928875  0.00558581  0.88346850  1
  In  In26  1  0.51936029  0.32464577  0.36753106  1
  In  In27  1  0.48517988  0.32767406  0.87669381  1
  In  In28  1  0.50745116  0.67803668  0.36594167  1
  In  In29  1  0.51074096  0.66950401  0.88278095  1
  In  In30  1  0.83177407  0.00524849  0.37402073  1
  In  In31  1  0.84546496  0.00540423  0.87407664  1
  In  In32  1  0.83807318  0.33256470  0.37442540  1
  In  In33  1  0.83109028  0.31920271  0.87537474  1
  In  In34  1  0.83803908  0.66865777  0.37605377  1
  In  In35  1  0.83939057  0.66274030  0.87315085  1
  In  In36  1  -0.00490765  0.16991106  0.37474300  1
  In  In37  1  -0.00671852  0.16033682  0.86918811  1
  In  In38  1  -0.02145126  0.48642019  0.35678194  1
  In  In39  1  0.00954028  0.50608916  0.87030749  1
  In  In40  1  0.00425380  0.83629428  0.37674593  1
  In  In41  1  -0.00604342  0.83459790  0.86171781  1
  In  In42  1  0.34102438  0.15357403  0.37525478  1
  In  In43  1  0.33228192  0.16841623  0.87548796  1
  In  In44  1  0.32029198  0.50798747  0.37441415  1
  In  In45  1  0.32836780  0.48007258  0.87683748  1
  In  In46  1  0.33190811  0.83768147  0.37199743  1
  In  In47  1  0.33975708  0.84631387  0.87042916  1
  In  In48  1  0.70552752  0.20211340  0.32627999  1
  In  In49  1  0.67095466  0.15915633  0.88795212  1
  In  In50  1  0.71449359  0.52675732  0.33627196  1
  In  In51  1  0.66960120  0.50249992  0.87906767  1
  In  In52  1  0.67280506  0.84308553  0.37475211  1
  In  In53  1  0.66485288  0.82531166  0.88216775  1
  In  In54  1  0.16258949  0.00303234  0.13593918  1
  In  In55  1  0.16329333  -0.00145968  0.62237213  1
  In  In56  1  0.14834804  0.33453971  0.12495781  1
  In  In57  1  0.16824433  0.32290586  0.62934383  1
  In  In58  1  0.16619817  0.66907470  0.12472494  1
  In  In59  1  0.15035816  0.66410322  0.62192874  1
  In  In60  1  0.50432578  0.00106193  0.12574174  1
  In  In61  1  0.48477305  -0.01078596  0.62893816  1
  In  In62  1  0.51203724  0.32964541  0.12703483  1
  In  In63  1  0.49606680  0.31876174  0.62802097  1
  In  In64  1  0.49497688  0.66926668  0.12915040  1
  In  In65  1  0.51187197  0.66777113  0.62424195  1
  In  In66  1  0.81530530  0.01925998  0.14840178  1
  In  In67  1  0.83907913  0.00300023  0.61468247  1
  In  In68  1  0.84877161  0.31800306  0.14918723  1
  In  In69  1  0.84529256  0.34106620  0.61367601  1
  In  In70  1  0.83723767  0.65827613  0.14461814  1
  In  In71  1  0.85613590  0.68815919  0.59896690  1
  In  In72  1  0.83473064  0.83521627  0.00317689  1
  In  In73  1  0.15718675  0.50212446  0.49891500  1
  In  In74  1  0.66225064  0.33367808  0.75144883  1
  In  In75  1  0.50520179  0.49934459  0.00406677  1
  In  In76  1  0.50522415  0.84032728  0.49424162  1
  In  In77  1  0.32762908  0.66890431  0.75905467  1
  In  In78  1  0.67546215  0.67203499  0.74356323  1
  In  In79  1  0.50919581  0.49531405  0.49480841  1
  In  In80  1  0.66696153  -0.00313057  0.74332716  1
  In  In81  1  0.50820640  0.16623198  0.49543548  1
  In  In82  1  0.83471211  0.49827389  0.01285765  1
  In  In83  1  0.16750835  0.83448641  -0.00523494  1
  In  In84  1  0.32986048  0.33552142  0.25080565  1
  In  In85  1  0.16491925  0.16976214  -0.00165651  1
  Cu  Cu86  1  0.66785830  0.00186506  0.01222945  1
  Cu  Cu87  1  0.68293802  0.33307918  0.48483971  1
  Cu  Cu88  1  0.84421899  0.50116279  0.74593617  1
  Cu  Cu89  1  0.33156985  0.32736555  -0.00079248  1
  Cu  Cu90  1  0.49096286  0.50085258  0.75198625  1
  Cu  Cu91  1  0.16411736  0.50938402  0.24988316  1
  Cu  Cu92  1  0.66953087  0.32126971  0.00519329  1
  Cu  Cu93  1  0.83893369  0.16859851  0.74431659  1
  Cu  Cu94  1  0.32714418  0.00177293  0.49881245  1
  Cu  Cu95  1  0.49137027  0.83209154  0.24838030  1
  Cu  Cu96  1  0.16012356  0.16063531  0.74804381  1
  Cu  Cu97  1  0.33201417  0.66679966  0.00375376  1
  Cu  Cu98  1  0.84025634  0.83122482  0.25846398  1
  Cu  Cu99  1  0.33870594  -0.00655035  0.00352537  1
  Cu  Cu100  1  0.00297518  0.66461043  0.49236717  1
  Cu  Cu101  1  0.16700908  0.83687767  0.25221472  1
  Cu  Cu102  1  0.67482049  0.00509090  0.49370989  1
  Cu  Cu103  1  -0.00379199  0.32896060  0.49761154  1
  Cu  Cu104  1  -0.00810128  0.00620023  0.00139304  1
  Cu  Cu105  1  0.16318240  0.16887073  0.25507195  1
  Cu  Cu106  1  0.33203548  0.32614817  0.50735084  1
  Cu  Cu107  1  0.00190525  -0.00113265  0.49610361  1
  Cu  Cu108  1  0.33628548  0.67745795  0.49397694  1
  Cu  Cu109  1  -0.00995769  0.33693383  0.00732879  1
  Cu  Cu110  1  0.16362929  0.83181777  0.74449702  1
  Cu  Cu111  1  0.49612057  0.50107427  0.24725007  1
  Cu  Cu112  1  0.66488809  0.67216618  0.01266140  1
  Cu  Cu113  1  0.15982805  0.48757094  0.74911855  1
  Cu  Cu114  1  0.48809085  0.16209785  0.75466255  1
  Se  Se115  1  0.07670706  0.08233967  0.06157901  1
  Se  Se116  1  0.08512635  0.08227321  0.55115413  1
  Se  Se117  1  0.07655668  0.42214581  0.05431940  1
  Se  Se118  1  0.07535818  0.40927375  0.56150848  1
  Se  Se119  1  0.07472344  0.75209594  0.05589900  1
  Se  Se120  1  0.08481879  0.74851533  0.54693746  1
  Se  Se121  1  0.41899233  0.08186533  0.05431892  1
  Se  Se122  1  0.41221144  0.08172574  0.55785391  1
  Se  Se123  1  0.41004100  0.40929115  0.06177165  1
  Se  Se124  1  0.41197562  0.41265071  0.56126661  1
  Se  Se125  1  0.41944066  0.74806290  0.05299202  1
  Se  Se126  1  0.41683404  0.74943961  0.55945351  1
  Se  Se127  1  0.75518131  0.08559112  0.06056981  1
  Se  Se128  1  0.75637319  0.08999112  0.54757440  1
  Se  Se129  1  0.74579154  0.40224567  0.06649504  1
  Se  Se130  1  0.75699189  0.41782122  0.54504962  1
  Se  Se131  1  0.75121226  0.74690663  0.07031907  1
  Se  Se132  1  0.74407398  0.74647968  0.54420615  1
  Se  Se133  1  0.25339265  0.25321891  0.06552851  1
  Se  Se134  1  0.24563442  0.24326344  0.55500066  1
  Se  Se135  1  0.24308837  0.58522121  0.05085756  1
  Se  Se136  1  0.25708595  0.59349287  0.55351553  1
  Se  Se137  1  0.25051459  0.92182972  0.06231633  1
  Se  Se138  1  0.25049529  0.91508547  0.55364656  1
  Se  Se139  1  0.58163653  0.24155179  0.05601020  1
  Se  Se140  1  0.59811979  0.26530509  0.55306083  1
  Se  Se141  1  0.59605823  0.57868827  0.07026230  1
  Se  Se142  1  0.59705041  0.59095101  0.55325285  1
  Se  Se143  1  0.58229543  0.91223478  0.05530379  1
  Se  Se144  1  0.59148545  0.93294946  0.55865831  1
  Se  Se145  1  0.91507475  0.25034870  0.06409689  1
  Se  Se146  1  0.91399984  0.24249220  0.54965649  1
  Se  Se147  1  0.92180352  0.59876560  0.06128666  1
  Se  Se148  1  0.92158704  0.57622658  0.54493252  1
  Se  Se149  1  0.91470822  0.93006785  0.06545280  1
  Se  Se150  1  0.91821273  0.91378528  0.54876390  1
  Se  Se151  1  0.08331140  0.24799852  0.44697137  1
  Se  Se152  1  0.06895259  0.25793554  0.94289563  1
  Se  Se153  1  0.07614116  0.58269037  0.42807756  1
  Se  Se154  1  0.08069283  0.57779566  0.94968335  1
  Se  Se155  1  0.08984030  0.91572800  0.44717888  1
  Se  Se156  1  0.06968086  0.92575236  0.94068190  1
  Se  Se157  1  0.41437066  0.26019851  0.44013530  1
  Se  Se158  1  0.41604423  0.24237335  0.95021283  1
  Se  Se159  1  0.41473677  0.59067379  0.43969177  1
  Se  Se160  1  0.40984425  0.58340836  0.94071063  1
  Se  Se161  1  0.41738392  0.93427273  0.43715087  1
  Se  Se162  1  0.42094955  0.91133992  0.94864496  1
  Se  Se163  1  0.75016067  0.23636421  0.43125700  1
  Se  Se164  1  0.75755539  0.24363608  0.95195436  1
  Se  Se165  1  0.75536008  0.57296186  0.43498593  1
  Se  Se166  1  0.74402845  0.59440391  0.94927212  1
  Se  Se167  1  0.75767627  0.91587238  0.44730017  1
  Se  Se168  1  0.74436972  0.92808622  0.94273087  1
  Se  Se169  1  0.24865858  0.08990390  0.44661008  1
  Se  Se170  1  0.25157182  0.06936731  0.94399330  1
  Se  Se171  1  0.25451375  0.40866784  0.44535490  1
  Se  Se172  1  0.24470240  0.41229611  0.95214226  1
  Se  Se173  1  0.24987414  0.75900350  0.44455455  1
  Se  Se174  1  0.25981398  0.74360718  0.93500250  1
  Se  Se175  1  0.59718038  0.08441653  0.43315617  1
  Se  Se176  1  0.58327357  0.08274508  0.95479611  1
  Se  Se177  1  0.60010553  0.41611887  0.43058400  1
  Se  Se178  1  0.59248048  0.40285991  0.94237222  1
  Se  Se179  1  0.59429686  0.74282256  0.44317847  1
  Se  Se180  1  0.58246430  0.75227325  0.95674541  1
  Se  Se181  1  0.91735004  0.08366188  0.44511343  1
  Se  Se182  1  0.91218852  0.09267599  0.94817135  1
  Se  Se183  1  0.91879547  0.41792684  0.44406297  1
  Se  Se184  1  0.91458270  0.41414282  0.94054420  1
  Se  Se185  1  0.91926324  0.75370254  0.44518358  1
  Se  Se186  1  0.92492602  0.74744481  0.94146091  1
  Se  Se187  1  0.24302704  0.24989622  0.31605846  1
  Se  Se188  1  0.24116927  0.24201809  0.80791821  1
  Se  Se189  1  0.25163316  0.59044588  0.29988863  1
  Se  Se190  1  0.23927963  0.56960120  0.81148285  1
  Se  Se191  1  0.24991227  0.92237476  0.30465502  1
  Se  Se192  1  0.24669784  0.91247369  0.80058009  1
  Se  Se193  1  0.56043808  0.21597085  0.30323118  1
  Se  Se194  1  0.57756962  0.23804100  0.81198904  1
  Se  Se195  1  0.57992239  0.57920988  0.30452956  1
  Se  Se196  1  0.57978836  0.57716978  0.80620942  1
  Se  Se197  1  0.57667199  0.90875212  0.30547444  1
  Se  Se198  1  0.58321373  0.91434750  0.81342917  1
  Se  Se199  1  0.92732968  0.26072389  0.30342961  1
  Se  Se200  1  0.91724651  0.25243373  0.80111987  1
  Se  Se201  1  0.91895066  0.59469751  0.29952725  1
  Se  Se202  1  0.92152832  0.58615419  0.80254679  1
  Se  Se203  1  0.92033388  0.91977463  0.30910006  1
  Se  Se204  1  0.91177111  0.92250545  0.80019200  1
  Se  Se205  1  0.08175150  0.08436117  0.30863582  1
  Se  Se206  1  0.07556097  0.07778659  0.80070378  1
  Se  Se207  1  0.08221892  0.41731224  0.29535723  1
  Se  Se208  1  0.07663056  0.40706137  0.80475811  1
  Se  Se209  1  0.08352749  0.75270683  0.30435175  1
  Se  Se210  1  0.08474044  0.74859441  0.80177705  1
  Se  Se211  1  0.40670492  0.08272460  0.29413870  1
  Se  Se212  1  0.41167416  0.07697087  0.81064282  1
  Se  Se213  1  0.42019284  0.42352572  0.31413573  1
  Se  Se214  1  0.41346957  0.41080638  0.80230411  1
  Se  Se215  1  0.40900679  0.74904280  0.30321556  1
  Se  Se216  1  0.43134045  0.75292054  0.80929034  1
  Se  Se217  1  0.73940990  0.06315175  0.29811465  1
  Se  Se218  1  0.75185293  0.09356333  0.80417727  1
  Se  Se219  1  0.73209662  0.38805758  0.30510463  1
  Se  Se220  1  0.75847704  0.42699323  0.80669483  1
  Se  Se221  1  0.75011160  0.75236698  0.30872775  1
  Se  Se222  1  0.76040250  0.76114774  0.80911188  1
  Se  Se223  1  0.24696620  0.08526178  0.20314384  1
  Se  Se224  1  0.24607088  0.07678104  0.69667326  1
  Se  Se225  1  0.24271346  0.42604952  0.18792532  1
  Se  Se226  1  0.24966494  0.40799532  0.69932511  1
  Se  Se227  1  0.24663038  0.75276550  0.19430033  1
  Se  Se228  1  0.24632036  0.75069493  0.68637654  1
  Se  Se229  1  0.59956908  0.06485336  0.19522403  1
  Se  Se230  1  0.57123549  0.09299599  0.68876283  1
  Se  Se231  1  0.58025748  0.41067842  0.20312386  1
  Se  Se232  1  0.57352303  0.42564425  0.68862570  1
  Se  Se233  1  0.57916669  0.74749624  0.19916206  1
  Se  Se234  1  0.57735513  0.76612784  0.69363786  1
  Se  Se235  1  0.92994557  0.06931482  0.20566166  1
  Se  Se236  1  0.91542706  0.08060187  0.69035574  1
  Se  Se237  1  0.88987682  0.44402487  0.19446559  1
  Se  Se238  1  0.92043360  0.41019630  0.69399234  1
  Se  Se239  1  0.92290719  0.75204430  0.20134981  1
  Se  Se240  1  0.92066055  0.74178538  0.68689263  1
  Se  Se241  1  0.08126385  0.25309529  0.20116288  1
  Se  Se242  1  0.07809261  0.24485325  0.69441603  1
  Se  Se243  1  0.08097419  0.58891023  0.19348016  1
  Se  Se244  1  0.08441372  0.58003158  0.69772929  1
  Se  Se245  1  0.07975810  0.92020527  0.20254832  1
  Se  Se246  1  0.08024393  0.91369265  0.68994983  1
  Se  Se247  1  0.41888355  0.24585741  0.19168467  1
  Se  Se248  1  0.41010935  0.24952067  0.70015833  1
  Se  Se249  1  0.41155464  0.58636119  0.19835294  1
  Se  Se250  1  0.41700252  0.58253353  0.68931953  1
  Se  Se251  1  0.41447383  0.91930407  0.19282538  1
  Se  Se252  1  0.41685804  0.91607629  0.70818486  1
  Se  Se253  1  0.74499896  0.24542986  0.20570963  1
  Se  Se254  1  0.75327934  0.24932804  0.68768667  1
  Se  Se255  1  0.73969568  0.59221074  0.21123220  1
  Se  Se256  1  0.76195339  0.57881825  0.68581337  1
  Se  Se257  1  0.75241720  0.90830961  0.20278132  1
  Se  Se258  1  0.76111495  0.90892244  0.68770410  1
