# generated using pymatgen
data_In86Cu29Se144
_symmetry_space_group_name_H-M   'P 1'
_cell_length_a   17.57166765
_cell_length_b   17.57888965
_cell_length_c   23.42814383
_cell_angle_alpha   89.99967991
_cell_angle_beta   90.03016255
_cell_angle_gamma   90.01357855
_symmetry_Int_Tables_number   1
_chemical_formula_structural   In86Cu29Se144
_chemical_formula_sum   'In86 Cu29 Se144'
_cell_volume   7236.72766768
_cell_formula_units_Z   1
loop_
 _symmetry_equiv_pos_site_id
 _symmetry_equiv_pos_as_xyz
  1  'x, y, z'
loop_
 _atom_site_type_symbol
 _atom_site_label
 _atom_site_symmetry_multiplicity
 _atom_site_fract_x
 _atom_site_fract_y
 _atom_site_fract_z
 _atom_site_occupancy
  In  In0  1  0.00013303  0.16915961  0.12292985  1
  In  In1  1  0.01348396  0.17294082  0.62430617  1
  In  In2  1  0.00806511  0.50005893  0.11937188  1
  In  In3  1  0.01189978  0.49226097  0.63052838  1
  In  In4  1  0.01264709  0.82225185  0.13368301  1
  In  In5  1  -0.00620530  0.82854201  0.61808480  1
  In  In6  1  0.32743753  0.18363917  0.12427530  1
  In  In7  1  0.32801734  0.16262831  0.61539678  1
  In  In8  1  0.32542463  0.50719994  0.12796202  1
  In  In9  1  0.33579558  0.51111694  0.61738375  1
  In  In10  1  0.32099512  0.82676174  0.11877966  1
  In  In11  1  0.32304007  0.83078983  0.62339039  1
  In  In12  1  0.66679976  0.15548996  0.12600561  1
  In  In13  1  0.67092962  0.18157886  0.62840499  1
  In  In14  1  0.67064217  0.48539852  0.12263088  1
  In  In15  1  0.65508602  0.49693177  0.62418701  1
  In  In16  1  0.66961385  0.84775773  0.12561901  1
  In  In17  1  0.66766728  0.81684799  0.61959810  1
  In  In18  1  0.15662341  0.00847938  0.37817973  1
  In  In19  1  0.16638284  0.00825285  0.89137455  1
  In  In20  1  0.16361170  0.33372805  0.37073767  1
  In  In21  1  0.12875924  0.37288244  0.92951758  1
  In  In22  1  0.16855353  0.66769427  0.37859521  1
  In  In23  1  0.16432384  0.66986614  0.87005015  1
  In  In24  1  0.51564609  -0.00406359  0.37009157  1
  In  In25  1  0.48128175  -0.00745871  0.87904563  1
  In  In26  1  0.48229483  0.34965231  0.38655536  1
  In  In27  1  0.50142428  0.32446685  0.87103844  1
  In  In28  1  0.46211263  0.66508213  0.37892496  1
  In  In29  1  0.49212533  0.68431934  0.87463025  1
  In  In30  1  0.82638639  0.00077290  0.36250932  1
  In  In31  1  0.85279010  0.00417194  0.88070483  1
  In  In32  1  0.84485119  0.31990420  0.36712451  1
  In  In33  1  0.83855023  0.33592597  0.87765528  1
  In  In34  1  0.85548975  0.66600764  0.37187907  1
  In  In35  1  0.83398215  0.64982755  0.87580852  1
  In  In36  1  0.00326243  0.17817580  0.35466435  1
  In  In37  1  -0.01016477  0.19814289  0.91314528  1
  In  In38  1  0.01483767  0.51246403  0.36304533  1
  In  In39  1  -0.00252431  0.50397641  0.87116893  1
  In  In40  1  0.00295876  0.83527917  0.37505351  1
  In  In41  1  0.01290044  0.83727994  0.87452045  1
  In  In42  1  0.31850318  0.17978641  0.37960708  1
  In  In43  1  0.31984596  0.17049159  0.88370816  1
  In  In44  1  0.32490228  0.49973792  0.37768822  1
  In  In45  1  0.30417745  0.50102684  0.87907680  1
  In  In46  1  0.32917315  0.81017213  0.36956789  1
  In  In47  1  0.33821497  0.82964038  0.88339477  1
  In  In48  1  0.66644907  0.15460900  0.37063258  1
  In  In49  1  0.66223542  0.18289978  0.87240582  1
  In  In50  1  0.65809294  0.48802624  0.37545213  1
  In  In51  1  0.68346556  0.50062622  0.87542989  1
  In  In52  1  0.66191265  0.84949351  0.37200538  1
  In  In53  1  0.65345424  0.82735559  0.87635644  1
  In  In54  1  0.16562863  -0.01573954  0.12396447  1
  In  In55  1  0.17165806  0.00248022  0.61544106  1
  In  In56  1  0.16433822  0.33390057  0.11639209  1
  In  In57  1  0.16271912  0.33350930  0.62202337  1
  In  In58  1  0.16846113  0.66561972  0.12291124  1
  In  In59  1  0.16623480  0.66256708  0.62691892  1
  In  In60  1  0.51410182  -0.00080274  0.13148662  1
  In  In61  1  0.48445694  -0.00047274  0.61873659  1
  In  In62  1  0.50127732  0.32255739  0.13100638  1
  In  In63  1  0.50115586  0.33966046  0.62292499  1
  In  In64  1  0.47818430  0.66604245  0.13079256  1
  In  In65  1  0.50216525  0.65824066  0.62566330  1
  In  In66  1  0.82986817  0.01568463  0.13755395  1
  In  In67  1  0.84750056  -0.00443521  0.62316115  1
  In  In68  1  0.85556032  0.33929944  0.10567935  1
  In  In69  1  0.84038631  0.33364478  0.63417677  1
  In  In70  1  0.85282852  0.66558146  0.12468584  1
  In  In71  1  0.82977342  0.67637997  0.61888397  1
  In  In72  1  0.66480188  0.66901626  0.25144664  1
  In  In73  1  0.66819917  0.65889378  0.74548449  1
  In  In74  1  0.49767406  0.50145426  0.00498731  1
  In  In75  1  0.83592834  0.49988345  0.49711343  1
  In  In76  1  0.49783777  0.83271489  0.49485541  1
  In  In77  1  0.66971030  0.32378879  0.25196581  1
  In  In78  1  0.83435971  0.16107075  0.48941157  1
  In  In79  1  0.33514551  -0.00398230  0.25024137  1
  In  In80  1  0.00906858  0.00580941  0.75382163  1
  In  In81  1  0.66588098  0.00086704  0.75797781  1
  In  In82  1  0.49739645  0.15949761  -0.00262279  1
  In  In83  1  0.32920188  0.33627683  0.75585198  1
  In  In84  1  0.32812400  -0.00313692  0.75055239  1
  In  In85  1  0.83786657  0.83589243  0.00448576  1
  Cu  Cu86  1  0.49378265  0.16993884  0.25215353  1
  Cu  Cu87  1  0.00744866  0.66589394  0.00050498  1
  Cu  Cu88  1  0.32466059  0.33233555  0.50095120  1
  Cu  Cu89  1  0.32421398  0.66536831  -0.00003731  1
  Cu  Cu90  1  0.00836001  0.66969549  0.49874540  1
  Cu  Cu91  1  0.66865850  -0.00068960  0.00274305  1
  Cu  Cu92  1  0.16167228  0.50000868  0.75667944  1
  Cu  Cu93  1  0.84339540  0.17825303  0.75947906  1
  Cu  Cu94  1  0.00295243  -0.00094894  0.01026214  1
  Cu  Cu95  1  0.66302343  0.66798928  -0.00136315  1
  Cu  Cu96  1  0.16472431  0.49642704  0.24730315  1
  Cu  Cu97  1  0.83161478  0.82625529  0.74319831  1
  Cu  Cu98  1  0.67710694  0.33363041  -0.00333409  1
  Cu  Cu99  1  0.48703038  0.50028366  0.25650601  1
  Cu  Cu100  1  0.50102128  0.16658260  0.74662297  1
  Cu  Cu101  1  0.84350891  0.49594131  0.24168106  1
  Cu  Cu102  1  0.16423754  0.17262559  0.24657966  1
  Cu  Cu103  1  0.00194379  -0.00450614  0.49671308  1
  Cu  Cu104  1  0.67173805  0.00161197  0.49449142  1
  Cu  Cu105  1  0.49998546  0.49864669  0.74812573  1
  Cu  Cu106  1  0.16626211  0.82538810  0.25030347  1
  Cu  Cu107  1  0.33295921  0.00292852  0.49241219  1
  Cu  Cu108  1  0.15889375  0.17559137  0.75699343  1
  Cu  Cu109  1  0.16631988  0.82940539  0.74921811  1
  Cu  Cu110  1  0.83877817  0.83620964  0.24761728  1
  Cu  Cu111  1  0.84192760  0.49098887  0.75246904  1
  Cu  Cu112  1  0.66812339  0.66986253  0.49506924  1
  Cu  Cu113  1  0.00418038  0.33093013  0.49353602  1
  Cu  Cu114  1  0.65589019  0.33036903  0.50199316  1
  Se  Se115  1  0.08946002  0.08050653  0.06095027  1
  Se  Se116  1  0.07939594  0.08277390  0.55246938  1
  Se  Se117  1  0.07945903  0.41328132  0.04518026  1
  Se  Se118  1  0.08069342  0.41540288  0.55108643  1
  Se  Se119  1  0.08672021  0.75251043  0.05375495  1
  Se  Se120  1  0.08845888  0.75188327  0.55635331  1
  Se  Se121  1  0.41572906  0.08148969  0.06978025  1
  Se  Se122  1  0.41637837  0.08581069  0.54639321  1
  Se  Se123  1  0.41441899  0.40887670  0.06568499  1
  Se  Se124  1  0.41105970  0.41324781  0.55551269  1
  Se  Se125  1  0.41219236  0.74509490  0.05235235  1
  Se  Se126  1  0.41336268  0.74320139  0.55801169  1
  Se  Se127  1  0.75255721  0.08106766  0.05485380  1
  Se  Se128  1  0.74741332  0.07887395  0.56117179  1
  Se  Se129  1  0.75666512  0.42131364  0.04797806  1
  Se  Se130  1  0.74758783  0.40643179  0.55835615  1
  Se  Se131  1  0.74652709  0.74297954  0.06249519  1
  Se  Se132  1  0.75385835  0.75435091  0.54338949  1
  Se  Se133  1  0.23831010  0.24023211  0.04745073  1
  Se  Se134  1  0.24093368  0.24693174  0.55284475  1
  Se  Se135  1  0.24447122  0.57795155  0.05144297  1
  Se  Se136  1  0.23245885  0.57133869  0.55510459  1
  Se  Se137  1  0.25162457  0.91683717  0.04992481  1
  Se  Se138  1  0.25505310  0.91797453  0.54974983  1
  Se  Se139  1  0.59150741  0.25427589  0.05472908  1
  Se  Se140  1  0.57833721  0.24514170  0.55741730  1
  Se  Se141  1  0.58827700  0.59090616  0.06639587  1
  Se  Se142  1  0.58910029  0.58778799  0.55256580  1
  Se  Se143  1  0.58240924  0.91763804  0.05275187  1
  Se  Se144  1  0.59092765  0.92211110  0.55776443  1
  Se  Se145  1  0.93074707  0.24589257  0.04124158  1
  Se  Se146  1  0.91899355  0.25455439  0.55386986  1
  Se  Se147  1  0.92076415  0.58248184  0.05017903  1
  Se  Se148  1  0.92599502  0.58749846  0.55880417  1
  Se  Se149  1  0.92215796  0.91964491  0.07096222  1
  Se  Se150  1  0.91440674  0.91387988  0.54766170  1
  Se  Se151  1  0.07886072  0.24422194  0.43649100  1
  Se  Se152  1  0.12432894  0.22632645  0.95251881  1
  Se  Se153  1  0.08401137  0.57978848  0.44582736  1
  Se  Se154  1  0.08459543  0.58564055  0.94011849  1
  Se  Se155  1  0.08937499  0.91243204  0.44662789  1
  Se  Se156  1  0.08077337  0.91674337  0.95156655  1
  Se  Se157  1  0.41163089  0.24996864  0.44922397  1
  Se  Se158  1  0.41064260  0.26165811  0.94635085  1
  Se  Se159  1  0.42007520  0.56462087  0.44950529  1
  Se  Se160  1  0.41012742  0.58794309  0.93971025  1
  Se  Se161  1  0.40949145  0.92108808  0.43178457  1
  Se  Se162  1  0.41282788  0.91529594  0.95507639  1
  Se  Se163  1  0.74038236  0.25977567  0.43847275  1
  Se  Se164  1  0.75399539  0.24530535  0.94376473  1
  Se  Se165  1  0.74665776  0.58861419  0.43355605  1
  Se  Se166  1  0.75038225  0.58341426  0.95227839  1
  Se  Se167  1  0.75444457  0.92020445  0.44062577  1
  Se  Se168  1  0.74633856  0.92019731  0.93760334  1
  Se  Se169  1  0.24371254  0.08754295  0.44629550  1
  Se  Se170  1  0.28591376  0.05480650  0.94560130  1
  Se  Se171  1  0.24125209  0.41319331  0.44500628  1
  Se  Se172  1  0.26523723  0.41246399  0.95912933  1
  Se  Se173  1  0.26155576  0.73733353  0.44835599  1
  Se  Se174  1  0.24338309  0.74967435  0.94397117  1
  Se  Se175  1  0.58335307  0.08268682  0.44532544  1
  Se  Se176  1  0.59142761  0.07357789  0.93461485  1
  Se  Se177  1  0.57795455  0.42220170  0.45330223  1
  Se  Se178  1  0.58825253  0.41197090  0.94083828  1
  Se  Se179  1  0.58499070  0.74243580  0.43160115  1
  Se  Se180  1  0.57672341  0.75195971  0.95135584  1
  Se  Se181  1  0.92802539  0.07669739  0.43159964  1
  Se  Se182  1  0.91774137  0.08260680  0.95873311  1
  Se  Se183  1  0.92422209  0.41258917  0.43377776  1
  Se  Se184  1  0.91457412  0.42669413  0.94258105  1
  Se  Se185  1  0.92128535  0.75083869  0.44684545  1
  Se  Se186  1  0.92212812  0.74495161  0.94012389  1
  Se  Se187  1  0.24953583  0.25426544  0.29980913  1
  Se  Se188  1  0.23664881  0.25554627  0.81745448  1
  Se  Se189  1  0.24342312  0.57997045  0.30602745  1
  Se  Se190  1  0.25004230  0.58787345  0.80046671  1
  Se  Se191  1  0.24212350  0.91057999  0.31182266  1
  Se  Se192  1  0.23645247  0.91421853  0.81313614  1
  Se  Se193  1  0.57004891  0.25139842  0.31662351  1
  Se  Se194  1  0.58385076  0.25431492  0.79553722  1
  Se  Se195  1  0.57381436  0.57958150  0.31212473  1
  Se  Se196  1  0.57887596  0.57789703  0.81334271  1
  Se  Se197  1  0.58501244  0.91700139  0.29436962  1
  Se  Se198  1  0.56716590  0.90956013  0.80628794  1
  Se  Se199  1  0.90471982  0.24191482  0.28765463  1
  Se  Se200  1  0.93136471  0.24895797  0.81779026  1
  Se  Se201  1  0.92174237  0.58441962  0.29475988  1
  Se  Se202  1  0.91777437  0.58722527  0.79853452  1
  Se  Se203  1  0.92139638  0.91774421  0.30365350  1
  Se  Se204  1  0.91019709  0.90897721  0.80357846  1
  Se  Se205  1  0.08650375  0.08113998  0.29750968  1
  Se  Se206  1  0.08499693  0.09503655  0.82118555  1
  Se  Se207  1  0.07899234  0.41138623  0.29848436  1
  Se  Se208  1  0.09940524  0.41463639  0.82330898  1
  Se  Se209  1  0.08273781  0.74599164  0.30784311  1
  Se  Se210  1  0.07651687  0.74995399  0.79997741  1
  Se  Se211  1  0.41647922  0.08968725  0.31472096  1
  Se  Se212  1  0.41797777  0.09445354  0.80852901  1
  Se  Se213  1  0.40450061  0.41283035  0.30587407  1
  Se  Se214  1  0.41946902  0.42891745  0.81569507  1
  Se  Se215  1  0.43148996  0.76022847  0.30016281  1
  Se  Se216  1  0.40584720  0.75327111  0.80361572  1
  Se  Se217  1  0.75901418  0.10025043  0.29779735  1
  Se  Se218  1  0.76373141  0.08993115  0.81311999  1
  Se  Se219  1  0.76094426  0.42413573  0.30617461  1
  Se  Se220  1  0.75248070  0.41253328  0.80392665  1
  Se  Se221  1  0.75974236  0.75585489  0.31085331  1
  Se  Se222  1  0.75398686  0.75303731  0.80979997  1
  Se  Se223  1  0.24620757  0.08765586  0.19043087  1
  Se  Se224  1  0.23736289  0.09489462  0.69517570  1
  Se  Se225  1  0.24474400  0.41466640  0.18989907  1
  Se  Se226  1  0.24420846  0.42542337  0.69184557  1
  Se  Se227  1  0.25097175  0.74561777  0.19550371  1
  Se  Se228  1  0.25004961  0.74736802  0.69616521  1
  Se  Se229  1  0.58350975  0.08912711  0.20318413  1
  Se  Se230  1  0.57775808  0.08314826  0.68786743  1
  Se  Se231  1  0.57492233  0.42366731  0.19879046  1
  Se  Se232  1  0.58385985  0.41354826  0.69818561  1
  Se  Se233  1  0.57955769  0.75406512  0.18624459  1
  Se  Se234  1  0.57547970  0.75673738  0.69536476  1
  Se  Se235  1  0.92814363  0.08608258  0.19818085  1
  Se  Se236  1  0.91319854  0.09526347  0.69372596  1
  Se  Se237  1  0.92357870  0.41385091  0.18709715  1
  Se  Se238  1  0.92958117  0.40966812  0.70065655  1
  Se  Se239  1  0.92085179  0.74615813  0.20100678  1
  Se  Se240  1  0.91744145  0.74592574  0.69164707  1
  Se  Se241  1  0.08396911  0.25576538  0.19039687  1
  Se  Se242  1  0.08133887  0.25842166  0.69833520  1
  Se  Se243  1  0.08508479  0.58273306  0.19200872  1
  Se  Se244  1  0.08219196  0.58380661  0.69983323  1
  Se  Se245  1  0.08516602  0.91547884  0.20151204  1
  Se  Se246  1  0.09047732  0.91491526  0.68822048  1
  Se  Se247  1  0.41056841  0.25375828  0.20093520  1
  Se  Se248  1  0.41361414  0.24386106  0.68972099  1
  Se  Se249  1  0.40470757  0.58438644  0.20365300  1
  Se  Se250  1  0.41685925  0.58130792  0.69540398  1
  Se  Se251  1  0.41886841  0.90729461  0.18714824  1
  Se  Se252  1  0.42099744  0.90728120  0.69234400  1
  Se  Se253  1  0.75432375  0.25845070  0.17547198  1
  Se  Se254  1  0.75530996  0.25201586  0.70198972  1
  Se  Se255  1  0.75460500  0.57695505  0.18906139  1
  Se  Se256  1  0.76275065  0.56905774  0.68689271  1
  Se  Se257  1  0.75099434  0.91970738  0.19941779  1
  Se  Se258  1  0.75172039  0.91207450  0.68885898  1
