# generated using pymatgen
data_In86Cu29Se144
_symmetry_space_group_name_H-M   'P 1'
_cell_length_a   17.56579884
_cell_length_b   17.57179796
_cell_length_c   23.41883834
_cell_angle_alpha   90.02682114
_cell_angle_beta   89.97809017
_cell_angle_gamma   89.98668529
_symmetry_Int_Tables_number   1
_chemical_formula_structural   In86Cu29Se144
_chemical_formula_sum   'In86 Cu29 Se144'
_cell_volume   7228.51961458
_cell_formula_units_Z   1
loop_
 _symmetry_equiv_pos_site_id
 _symmetry_equiv_pos_as_xyz
  1  'x, y, z'
loop_
 _atom_site_type_symbol
 _atom_site_label
 _atom_site_symmetry_multiplicity
 _atom_site_fract_x
 _atom_site_fract_y
 _atom_site_fract_z
 _atom_site_occupancy
  In  In0  1  0.01140208  0.17614062  0.13068909  1
  In  In1  1  0.00858855  0.15723955  0.63210962  1
  In  In2  1  -0.00477658  0.49517447  0.12191851  1
  In  In3  1  -0.00927080  0.48953492  0.61985541  1
  In  In4  1  -0.00474883  0.83978195  0.11942910  1
  In  In5  1  0.02206707  0.83180982  0.63114804  1
  In  In6  1  0.33556434  0.15475580  0.12543790  1
  In  In7  1  0.33480172  0.17143298  0.61485271  1
  In  In8  1  0.33875449  0.51852862  0.12740090  1
  In  In9  1  0.33323855  0.49932998  0.62125043  1
  In  In10  1  0.33802184  0.82264063  0.13024619  1
  In  In11  1  0.31818139  0.85161722  0.65374923  1
  In  In12  1  0.64618444  0.17120090  0.12177309  1
  In  In13  1  0.66218756  0.18952440  0.62013096  1
  In  In14  1  0.67311821  0.49006567  0.12514642  1
  In  In15  1  0.66352901  0.49776137  0.62140943  1
  In  In16  1  0.66985226  0.83999688  0.11856620  1
  In  In17  1  0.64700013  0.82639451  0.63529577  1
  In  In18  1  0.17945855  -0.01419584  0.38500804  1
  In  In19  1  0.17357942  -0.00500016  0.85698717  1
  In  In20  1  0.16568791  0.34664706  0.39754275  1
  In  In21  1  0.17796187  0.34390899  0.86314816  1
  In  In22  1  0.17433364  0.66224447  0.38307490  1
  In  In23  1  0.16628736  0.66273401  0.87098696  1
  In  In24  1  0.49624824  0.00434963  0.36904143  1
  In  In25  1  0.49319074  0.00756953  0.87819936  1
  In  In26  1  0.48788338  0.34198951  0.40235612  1
  In  In27  1  0.49194426  0.32481146  0.86574411  1
  In  In28  1  0.48943940  0.66855424  0.37513715  1
  In  In29  1  0.51038573  0.67896915  0.85767307  1
  In  In30  1  0.82640560  0.01408135  0.37026065  1
  In  In31  1  0.82988658  -0.01553147  0.87356870  1
  In  In32  1  0.84133743  0.33393720  0.37484141  1
  In  In33  1  0.84307703  0.34427028  0.86803376  1
  In  In34  1  0.82683686  0.65591841  0.37651368  1
  In  In35  1  0.82677777  0.67008126  0.88116981  1
  In  In36  1  -0.00184745  0.18141780  0.37594235  1
  In  In37  1  0.01054524  0.17520282  0.86434101  1
  In  In38  1  0.00489770  0.49594937  0.38263536  1
  In  In39  1  0.00867273  0.49525533  0.87762236  1
  In  In40  1  0.01058851  0.84266112  0.37689050  1
  In  In41  1  -0.00644359  0.82512275  0.87044042  1
  In  In42  1  0.34137714  0.15991454  0.38622469  1
  In  In43  1  0.33870330  0.16912251  0.86526503  1
  In  In44  1  0.33142273  0.50540178  0.38682847  1
  In  In45  1  0.33203317  0.49780744  0.86763091  1
  In  In46  1  0.32097243  0.83104672  0.36339596  1
  In  In47  1  0.35024265  0.84778712  0.85390463  1
  In  In48  1  0.66215700  0.16531192  0.37459763  1
  In  In49  1  0.64750040  0.16574639  0.87200387  1
  In  In50  1  0.66805735  0.49062996  0.39073741  1
  In  In51  1  0.67314167  0.50778535  0.87042511  1
  In  In52  1  0.65121842  0.83790346  0.36987383  1
  In  In53  1  0.67256609  0.82409967  0.87944770  1
  In  In54  1  0.16864111  0.00483531  0.13123594  1
  In  In55  1  0.17135339  0.00451411  0.62292652  1
  In  In56  1  0.15546410  0.33547448  0.12972185  1
  In  In57  1  0.17168734  0.32941322  0.61952617  1
  In  In58  1  0.18712199  0.66355561  0.12708670  1
  In  In59  1  0.18026775  0.67595807  0.62133416  1
  In  In60  1  0.49879685  0.00168317  0.12159367  1
  In  In61  1  0.47385076  -0.00489582  0.63146827  1
  In  In62  1  0.50827666  0.33318875  0.12378973  1
  In  In63  1  0.49493785  0.33781762  0.61195511  1
  In  In64  1  0.47784678  0.66502611  0.12681290  1
  In  In65  1  0.50370451  0.66531779  0.63695700  1
  In  In66  1  0.83415466  -0.01444693  0.12099743  1
  In  In67  1  0.83826151  0.01315016  0.62657939  1
  In  In68  1  0.83970168  0.34834473  0.12474016  1
  In  In69  1  0.82110279  0.34645492  0.63386901  1
  In  In70  1  0.82935075  0.66329791  0.11749278  1
  In  In71  1  0.83429597  0.64788964  0.62587193  1
  In  In72  1  0.33101048  0.33690780  0.26790692  1
  In  In73  1  0.50140329  0.50192937  0.00171004  1
  In  In74  1  0.66049633  0.33254209  0.25492967  1
  In  In75  1  0.00599619  0.66451122  0.75230803  1
  In  In76  1  0.83693971  0.82651806  0.49949151  1
  In  In77  1  0.66951867  0.00364716  0.74869080  1
  In  In78  1  0.00053345  0.00295590  0.24548551  1
  In  In79  1  0.83497479  0.17239033  0.49796142  1
  In  In80  1  0.49135540  0.82886251  0.50793016  1
  In  In81  1  0.66110806  0.66393206  0.24523091  1
  In  In82  1  0.17137674  0.16508309  0.00274549  1
  In  In83  1  0.00660741  0.66160240  0.25803725  1
  In  In84  1  0.16681041  0.82781108  -0.00146968  1
  In  In85  1  0.82955248  0.16581795  -0.00331939  1
  Cu  Cu86  1  -0.00603425  -0.00471703  -0.00638920  1
  Cu  Cu87  1  0.49718470  0.16968434  0.74245702  1
  Cu  Cu88  1  0.16677410  0.16838297  0.25642136  1
  Cu  Cu89  1  0.82388314  0.17093240  0.25115645  1
  Cu  Cu90  1  0.82668098  0.49850864  0.74840274  1
  Cu  Cu91  1  0.49478252  0.84591225  0.24704091  1
  Cu  Cu92  1  0.33165772  0.33402782  -0.00998570  1
  Cu  Cu93  1  0.66664162  0.33514936  -0.00102804  1
  Cu  Cu94  1  0.65874719  0.00084909  0.49474776  1
  Cu  Cu95  1  0.33601744  0.66984631  0.50470814  1
  Cu  Cu96  1  0.01068024  -0.00188936  0.50553601  1
  Cu  Cu97  1  0.83505612  0.83052103  0.75411499  1
  Cu  Cu98  1  0.83000721  0.83297416  0.24331207  1
  Cu  Cu99  1  0.17522194  0.16935309  0.74106012  1
  Cu  Cu100  1  0.33474077  0.66772003  -0.00459792  1
  Cu  Cu101  1  0.16382355  0.49376563  0.74335222  1
  Cu  Cu102  1  0.00938249  0.66180116  0.50415392  1
  Cu  Cu103  1  0.66244996  0.66968616  -0.00272367  1
  Cu  Cu104  1  0.66546099  0.65910936  0.50664272  1
  Cu  Cu105  1  0.33726399  -0.00414073  -0.00303099  1
  Cu  Cu106  1  0.49738231  0.48884769  0.74412908  1
  Cu  Cu107  1  0.33140718  -0.00372933  0.50421797  1
  Cu  Cu108  1  -0.00361591  0.33248369  0.50532900  1
  Cu  Cu109  1  0.00020512  0.66086713  -0.00487758  1
  Cu  Cu110  1  0.17026439  0.49665457  0.26070385  1
  Cu  Cu111  1  0.49273390  0.16647007  0.25192831  1
  Cu  Cu112  1  0.83837013  0.17269716  0.74828909  1
  Cu  Cu113  1  0.00475909  0.34241023  -0.00230387  1
  Cu  Cu114  1  0.66023677  -0.00395207  -0.00412165  1
  Se  Se115  1  0.07161106  0.07337311  0.05718593  1
  Se  Se116  1  0.08861094  0.08970026  0.55369523  1
  Se  Se117  1  0.08932933  0.42067597  0.05441359  1
  Se  Se118  1  0.08490325  0.41668094  0.55365544  1
  Se  Se119  1  0.07838680  0.73713912  0.06148383  1
  Se  Se120  1  0.08850477  0.75188090  0.55300827  1
  Se  Se121  1  0.41650133  0.08508836  0.04982896  1
  Se  Se122  1  0.42113628  0.07899731  0.55135407  1
  Se  Se123  1  0.40708485  0.41066093  0.05935254  1
  Se  Se124  1  0.39785733  0.40971195  0.54515097  1
  Se  Se125  1  0.41486210  0.75223213  0.05079911  1
  Se  Se126  1  0.40385108  0.74835334  0.57375201  1
  Se  Se127  1  0.73999579  0.07696263  0.05886415  1
  Se  Se128  1  0.74074672  0.07938337  0.55591672  1
  Se  Se129  1  0.75284984  0.41642091  0.05017815  1
  Se  Se130  1  0.75775786  0.42361411  0.55503572  1
  Se  Se131  1  0.74912528  0.75081034  0.05206127  1
  Se  Se132  1  0.74138619  0.74727829  0.56437132  1
  Se  Se133  1  0.25852186  0.25946751  0.06179746  1
  Se  Se134  1  0.24485796  0.24549541  0.54668423  1
  Se  Se135  1  0.25435212  0.58224990  0.04935667  1
  Se  Se136  1  0.24875641  0.58334898  0.55192029  1
  Se  Se137  1  0.25207952  0.92346661  0.05876422  1
  Se  Se138  1  0.25684349  0.91000195  0.56254600  1
  Se  Se139  1  0.57654535  0.25310799  0.04596171  1
  Se  Se140  1  0.58135833  0.25398319  0.54422995  1
  Se  Se141  1  0.58952270  0.59218137  0.06544202  1
  Se  Se142  1  0.57384590  0.58529160  0.55900207  1
  Se  Se143  1  0.57743486  0.91446529  0.05205367  1
  Se  Se144  1  0.58590505  0.92401701  0.56168582  1
  Se  Se145  1  0.92714663  0.25346760  0.05457524  1
  Se  Se146  1  0.91802591  0.25310872  0.56834314  1
  Se  Se147  1  0.91668650  0.58084828  0.05275929  1
  Se  Se148  1  0.91744017  0.58113473  0.55008678  1
  Se  Se149  1  0.91182290  0.91044644  0.04511417  1
  Se  Se150  1  0.92230402  0.91997802  0.56074863  1
  Se  Se151  1  0.07990640  0.24825130  0.45271251  1
  Se  Se152  1  0.08669267  0.25870630  0.94116299  1
  Se  Se153  1  0.09093594  0.57756722  0.44946228  1
  Se  Se154  1  0.08934908  0.58267961  0.94445819  1
  Se  Se155  1  0.09020086  0.90937695  0.45432245  1
  Se  Se156  1  0.08283573  0.92237879  0.93528471  1
  Se  Se157  1  0.41993631  0.23783037  0.45860326  1
  Se  Se158  1  0.41485682  0.24718524  0.94168053  1
  Se  Se159  1  0.42159688  0.58823687  0.45210367  1
  Se  Se160  1  0.41732087  0.58748202  0.93594755  1
  Se  Se161  1  0.41038631  0.91687615  0.43991353  1
  Se  Se162  1  0.41612918  0.91103752  0.94137525  1
  Se  Se163  1  0.74126181  0.25999221  0.44079653  1
  Se  Se164  1  0.74341843  0.25550719  0.93474234  1
  Se  Se165  1  0.75356427  0.58130605  0.45311119  1
  Se  Se166  1  0.74707516  0.58214965  0.94894867  1
  Se  Se167  1  0.74467636  0.92102857  0.43994298  1
  Se  Se168  1  0.74974077  0.91326515  0.94854029  1
  Se  Se169  1  0.24826600  0.08101828  0.45158678  1
  Se  Se170  1  0.25382426  0.07447774  0.93743453  1
  Se  Se171  1  0.27342893  0.40739247  0.45856416  1
  Se  Se172  1  0.24924381  0.42047823  0.94194985  1
  Se  Se173  1  0.25753249  0.75355291  0.44567915  1
  Se  Se174  1  0.25971983  0.75082351  0.93352821  1
  Se  Se175  1  0.57701647  0.08341695  0.44169941  1
  Se  Se176  1  0.57854683  0.08605130  0.94887822  1
  Se  Se177  1  0.58554235  0.41682995  0.46168847  1
  Se  Se178  1  0.58442384  0.41200010  0.93649867  1
  Se  Se179  1  0.59061242  0.74475009  0.44603034  1
  Se  Se180  1  0.57643434  0.74756892  0.94299800  1
  Se  Se181  1  0.92657304  0.07317659  0.44286813  1
  Se  Se182  1  0.92362577  0.08299034  0.93349605  1
  Se  Se183  1  0.91540872  0.41521378  0.44899156  1
  Se  Se184  1  0.91554913  0.42081128  0.94592927  1
  Se  Se185  1  0.92982493  0.73808376  0.43783703  1
  Se  Se186  1  0.91833916  0.74972534  0.94642417  1
  Se  Se187  1  0.24001271  0.24505177  0.32366157  1
  Se  Se188  1  0.25529869  0.25244766  0.79849922  1
  Se  Se189  1  0.25463311  0.58208145  0.31051635  1
  Se  Se190  1  0.24240123  0.57704057  0.80066663  1
  Se  Se191  1  0.24728587  0.92630050  0.29965006  1
  Se  Se192  1  0.26174553  0.92435500  0.78787704  1
  Se  Se193  1  0.56383261  0.25124479  0.31493465  1
  Se  Se194  1  0.58289202  0.25063153  0.79608060  1
  Se  Se195  1  0.58548295  0.57864936  0.31742823  1
  Se  Se196  1  0.57890955  0.57285365  0.80026005  1
  Se  Se197  1  0.58306053  0.92541833  0.29855468  1
  Se  Se198  1  0.58690915  0.91845324  0.81529242  1
  Se  Se199  1  0.91342757  0.24982118  0.30071942  1
  Se  Se200  1  0.92230099  0.25702711  0.80042609  1
  Se  Se201  1  0.91027787  0.57038459  0.30848600  1
  Se  Se202  1  0.90969992  0.57802427  0.81026295  1
  Se  Se203  1  0.90791995  0.91140402  0.30784146  1
  Se  Se204  1  0.91983443  0.91654057  0.80188682  1
  Se  Se205  1  0.08437809  0.08542142  0.31471117  1
  Se  Se206  1  0.09078111  0.08883965  0.79810523  1
  Se  Se207  1  0.08969735  0.41261482  0.31506133  1
  Se  Se208  1  0.07840192  0.41542142  0.79993594  1
  Se  Se209  1  0.09584948  0.75747925  0.31050441  1
  Se  Se210  1  0.09710754  0.76379351  0.80255343  1
  Se  Se211  1  0.40588361  0.08422109  0.30330380  1
  Se  Se212  1  0.42060105  0.08205614  0.79856426  1
  Se  Se213  1  0.42923140  0.42547214  0.31845376  1
  Se  Se214  1  0.41064971  0.41057776  0.79943225  1
  Se  Se215  1  0.42145870  0.75659221  0.30322573  1
  Se  Se216  1  0.38940172  0.72246359  0.80492876  1
  Se  Se217  1  0.73944923  0.08547182  0.29935419  1
  Se  Se218  1  0.75896606  0.09360503  0.81189122  1
  Se  Se219  1  0.75348218  0.42399753  0.30941840  1
  Se  Se220  1  0.74495330  0.41353488  0.80275016  1
  Se  Se221  1  0.75360948  0.75586982  0.30851211  1
  Se  Se222  1  0.75085280  0.74608651  0.80431740  1
  Se  Se223  1  0.24819985  0.08836316  0.19993494  1
  Se  Se224  1  0.26032420  0.08638649  0.68907206  1
  Se  Se225  1  0.24991379  0.42094921  0.19458286  1
  Se  Se226  1  0.25090260  0.41401208  0.69056180  1
  Se  Se227  1  0.25146566  0.74910560  0.20021729  1
  Se  Se228  1  0.25102317  0.73930539  0.70415170  1
  Se  Se229  1  0.57676052  0.08693882  0.19514171  1
  Se  Se230  1  0.57950329  0.08774895  0.68359197  1
  Se  Se231  1  0.57202562  0.42938826  0.19605400  1
  Se  Se232  1  0.58104735  0.40974781  0.68726547  1
  Se  Se233  1  0.57349750  0.75960650  0.18794831  1
  Se  Se234  1  0.58268800  0.74460226  0.71054792  1
  Se  Se235  1  0.90508759  0.09318952  0.18655646  1
  Se  Se236  1  0.91951198  0.08127663  0.70235060  1
  Se  Se237  1  0.93022156  0.40880652  0.19684495  1
  Se  Se238  1  0.91801107  0.41775958  0.70012306  1
  Se  Se239  1  0.91469221  0.75003542  0.19118948  1
  Se  Se240  1  0.91277730  0.75186569  0.68846101  1
  Se  Se241  1  0.08404621  0.25467409  0.20616789  1
  Se  Se242  1  0.08649831  0.25311289  0.69320303  1
  Se  Se243  1  0.09535136  0.57505948  0.19353937  1
  Se  Se244  1  0.08627875  0.57787439  0.68374870  1
  Se  Se245  1  0.08970861  0.90354312  0.19254894  1
  Se  Se246  1  0.08184273  0.93229832  0.69452119  1
  Se  Se247  1  0.41551943  0.25301552  0.19374019  1
  Se  Se248  1  0.41795661  0.25304008  0.68570403  1
  Se  Se249  1  0.41813167  0.58299362  0.20520032  1
  Se  Se250  1  0.41344912  0.57664168  0.69563861  1
  Se  Se251  1  0.41047262  0.92436050  0.19061856  1
  Se  Se252  1  0.44677117  0.88791157  0.70136087  1
  Se  Se253  1  0.74939162  0.24911264  0.18499125  1
  Se  Se254  1  0.74720222  0.25030849  0.69848318  1
  Se  Se255  1  0.76085696  0.57363607  0.19456592  1
  Se  Se256  1  0.74286068  0.58174377  0.69601314  1
  Se  Se257  1  0.74623926  0.91932369  0.19477016  1
  Se  Se258  1  0.75845534  0.90901963  0.68800574  1
