# generated using pymatgen
data_In86Cu29Se144
_symmetry_space_group_name_H-M   'P 1'
_cell_length_a   17.61916161
_cell_length_b   17.61872752
_cell_length_c   23.46511645
_cell_angle_alpha   89.98983237
_cell_angle_beta   89.95267985
_cell_angle_gamma   89.98560196
_symmetry_Int_Tables_number   1
_chemical_formula_structural   In86Cu29Se144
_chemical_formula_sum   'In86 Cu29 Se144'
_cell_volume   7284.20774625
_cell_formula_units_Z   1
loop_
 _symmetry_equiv_pos_site_id
 _symmetry_equiv_pos_as_xyz
  1  'x, y, z'
loop_
 _atom_site_type_symbol
 _atom_site_label
 _atom_site_symmetry_multiplicity
 _atom_site_fract_x
 _atom_site_fract_y
 _atom_site_fract_z
 _atom_site_occupancy
  In  In0  1  0.00126177  0.16696333  0.11929463  1
  In  In1  1  0.00098430  0.17894791  0.62882818  1
  In  In2  1  0.00276298  0.49738896  0.13239957  1
  In  In3  1  0.00836093  0.49481618  0.62746104  1
  In  In4  1  -0.00109987  0.83104957  0.11733365  1
  In  In5  1  0.00715983  0.82143867  0.63077982  1
  In  In6  1  0.32334582  0.16411692  0.12007599  1
  In  In7  1  0.33324277  0.16002855  0.62849172  1
  In  In8  1  0.33782016  0.48415552  0.12379178  1
  In  In9  1  0.34277577  0.50780768  0.62010590  1
  In  In10  1  0.33650991  0.84401818  0.12010435  1
  In  In11  1  0.31484110  0.82738217  0.62358340  1
  In  In12  1  0.67649821  0.17308204  0.12003035  1
  In  In13  1  0.68141073  0.15675345  0.63765670  1
  In  In14  1  0.65940743  0.51261810  0.12293397  1
  In  In15  1  0.65177314  0.50072861  0.62493135  1
  In  In16  1  0.67252308  0.82927597  0.11226459  1
  In  In17  1  0.67749281  0.83918610  0.63441777  1
  In  In18  1  0.15778769  -0.00552578  0.36527364  1
  In  In19  1  0.15597186  -0.01142720  0.89019656  1
  In  In20  1  0.17062194  0.33653834  0.36748936  1
  In  In21  1  0.15255149  0.33129424  0.88564513  1
  In  In22  1  0.15771592  0.67357973  0.37940709  1
  In  In23  1  0.16432823  0.67230714  0.87173962  1
  In  In24  1  0.50148374  0.01437415  0.36450380  1
  In  In25  1  0.50676606  -0.00459645  0.88175551  1
  In  In26  1  0.49982501  0.34502186  0.37092847  1
  In  In27  1  0.50769440  0.32122018  0.88715586  1
  In  In28  1  0.49472372  0.65161787  0.36947872  1
  In  In29  1  0.49044361  0.67982006  0.88478664  1
  In  In30  1  0.84612379  0.00139264  0.37177854  1
  In  In31  1  0.83316252  0.00734693  0.88575822  1
  In  In32  1  0.83429260  0.31724137  0.37561362  1
  In  In33  1  0.83018936  0.33186523  0.87246568  1
  In  In34  1  0.83736078  0.67654695  0.36111454  1
  In  In35  1  0.85171019  0.66802455  0.88174567  1
  In  In36  1  -0.00966750  0.16125319  0.36361073  1
  In  In37  1  -0.01954528  0.17563792  0.90714412  1
  In  In38  1  0.00757908  0.51045481  0.36703210  1
  In  In39  1  0.00021073  0.49947967  0.86928804  1
  In  In40  1  0.00625760  0.84264657  0.36691704  1
  In  In41  1  0.01459645  0.81052735  0.92031569  1
  In  In42  1  0.32829048  0.16479962  0.35865282  1
  In  In43  1  0.33552431  0.17266329  0.88982482  1
  In  In44  1  0.33587776  0.49329174  0.37672379  1
  In  In45  1  0.32311913  0.51693372  0.87382258  1
  In  In46  1  0.31650221  0.82698049  0.36745985  1
  In  In47  1  0.33238454  0.82904845  0.87861205  1
  In  In48  1  0.66664621  0.17682760  0.37615215  1
  In  In49  1  0.67040701  0.16627204  0.87962287  1
  In  In50  1  0.65091009  0.49810083  0.37274210  1
  In  In51  1  0.67164920  0.48496840  0.87107027  1
  In  In52  1  0.68397491  0.83535990  0.36718507  1
  In  In53  1  0.65220791  0.83765919  0.88202250  1
  In  In54  1  0.15975481  0.00423244  0.11494764  1
  In  In55  1  0.17699165  -0.00914196  0.62577358  1
  In  In56  1  0.17168403  0.32399189  0.12603905  1
  In  In57  1  0.15049206  0.33475078  0.62839717  1
  In  In58  1  0.14717361  0.67075994  0.12014086  1
  In  In59  1  0.16860554  0.66496807  0.62586589  1
  In  In60  1  0.49320155  -0.00972884  0.11917768  1
  In  In61  1  0.50330582  0.00929469  0.63181184  1
  In  In62  1  0.47827642  0.31628929  0.10468001  1
  In  In63  1  0.49849642  0.34561244  0.62718576  1
  In  In64  1  0.51674526  0.67786073  0.10661568  1
  In  In65  1  0.50101303  0.65060699  0.62510351  1
  In  In66  1  0.87380935  0.02305774  0.08750570  1
  In  In67  1  0.83014440  -0.00342239  0.63177724  1
  In  In68  1  0.84968105  0.32295117  0.12876217  1
  In  In69  1  0.84668950  0.32463096  0.63256619  1
  In  In70  1  0.83240715  0.67038904  0.12553179  1
  In  In71  1  0.83747683  0.68135833  0.63170748  1
  In  In72  1  0.83130501  0.50149480  0.49825220  1
  In  In73  1  0.00052962  -0.00346926  0.76717884  1
  In  In74  1  0.66922824  0.33754967  0.24101990  1
  In  In75  1  0.16495576  0.17188709  0.50023479  1
  In  In76  1  0.83307319  0.49982613  0.00529809  1
  In  In77  1  0.84022931  0.83460817  0.50653523  1
  In  In78  1  0.67083142  -0.00374649  0.23934033  1
  In  In79  1  0.33414274  -0.00528282  0.76569145  1
  In  In80  1  0.49954673  0.17806492  0.50184726  1
  In  In81  1  0.33467997  0.33999951  0.75393125  1
  In  In82  1  0.66668866  0.66715238  0.75114738  1
  In  In83  1  0.33198657  0.66488115  0.24313229  1
  In  In84  1  0.16861279  0.49530664  0.00440407  1
  In  In85  1  0.49666664  0.83205600  0.49420332  1
  Cu  Cu86  1  0.49343241  0.83428629  0.75727787  1
  Cu  Cu87  1  0.32881036  0.33970481  0.49615117  1
  Cu  Cu88  1  0.83531695  0.83283055  0.23831182  1
  Cu  Cu89  1  0.32923980  0.66108318  0.49763529  1
  Cu  Cu90  1  0.65935961  0.00521738  0.00128096  1
  Cu  Cu91  1  -0.00376273  0.33314118  0.50169229  1
  Cu  Cu92  1  0.16042936  0.16169767  0.24116731  1
  Cu  Cu93  1  0.16084889  0.50298367  0.75152179  1
  Cu  Cu94  1  0.50405556  0.82953607  0.23554870  1
  Cu  Cu95  1  0.15909479  0.16571138  0.76115327  1
  Cu  Cu96  1  0.16660336  0.49934578  0.24665368  1
  Cu  Cu97  1  0.83505443  0.83797314  0.75832945  1
  Cu  Cu98  1  0.65984139  0.66175052  0.49550203  1
  Cu  Cu99  1  0.51328284  0.17042601  0.75578236  1
  Cu  Cu100  1  0.33635065  -0.00697925  0.00113337  1
  Cu  Cu101  1  0.00524912  0.66483728  0.50064856  1
  Cu  Cu102  1  0.50064800  0.49959081  0.75161196  1
  Cu  Cu103  1  0.00702481  0.00224046  0.49229001  1
  Cu  Cu104  1  0.33082519  0.67008471  0.00070034  1
  Cu  Cu105  1  0.15957922  0.84237209  0.24344205  1
  Cu  Cu106  1  0.84082444  0.49861689  0.75069268  1
  Cu  Cu107  1  0.66968692  0.33393965  0.50048771  1
  Cu  Cu108  1  0.67210411  0.33246255  -0.00074496  1
  Cu  Cu109  1  0.49886892  0.49985527  0.24530042  1
  Cu  Cu110  1  0.32748064  -0.00607692  0.49301734  1
  Cu  Cu111  1  0.84076023  0.16942470  0.76221725  1
  Cu  Cu112  1  0.83317352  0.50110537  0.24686515  1
  Cu  Cu113  1  0.67050130  0.00458820  0.50908497  1
  Cu  Cu114  1  0.49137106  0.16910484  0.23890140  1
  Se  Se115  1  0.11113157  0.11810605  0.05124938  1
  Se  Se116  1  0.08080304  0.07787050  0.56253896  1
  Se  Se117  1  0.07434323  0.40637242  0.05938604  1
  Se  Se118  1  0.08262177  0.41594190  0.55141052  1
  Se  Se119  1  0.08168242  0.75272016  0.04432051  1
  Se  Se120  1  0.08583447  0.74954770  0.55522215  1
  Se  Se121  1  0.41405918  0.08057506  0.05474725  1
  Se  Se122  1  0.40914271  0.07263091  0.55342790  1
  Se  Se123  1  0.43022276  0.43300858  0.04849504  1
  Se  Se124  1  0.41695686  0.41515637  0.55201609  1
  Se  Se125  1  0.41436131  0.75569665  0.05202204  1
  Se  Se126  1  0.41198865  0.74195742  0.55789674  1
  Se  Se127  1  0.74930523  0.08620748  0.04921575  1
  Se  Se128  1  0.75804923  0.08352170  0.55979284  1
  Se  Se129  1  0.74676635  0.40727414  0.06717088  1
  Se  Se130  1  0.74752787  0.41259899  0.56351741  1
  Se  Se131  1  0.75173402  0.73713448  0.04703092  1
  Se  Se132  1  0.73749717  0.74196940  0.55713202  1
  Se  Se133  1  0.26386547  0.26552774  0.05219877  1
  Se  Se134  1  0.25882123  0.25849260  0.56283499  1
  Se  Se135  1  0.25552190  0.59035626  0.06471440  1
  Se  Se136  1  0.24817475  0.57996114  0.55479313  1
  Se  Se137  1  0.24525780  0.91461005  0.05138277  1
  Se  Se138  1  0.24698431  0.91248652  0.54832298  1
  Se  Se139  1  0.58796268  0.24766437  0.05110199  1
  Se  Se140  1  0.59394927  0.25441163  0.56678131  1
  Se  Se141  1  0.58076519  0.57561908  0.04392367  1
  Se  Se142  1  0.57853939  0.57816903  0.54804987  1
  Se  Se143  1  0.58120569  0.91423187  0.05132711  1
  Se  Se144  1  0.58770447  0.91910006  0.56103686  1
  Se  Se145  1  0.91389244  0.24630062  0.04997515  1
  Se  Se146  1  0.91629143  0.24652875  0.55358831  1
  Se  Se147  1  0.92902549  0.58758784  0.05989573  1
  Se  Se148  1  0.91778408  0.59334712  0.56060349  1
  Se  Se149  1  0.88905717  0.88423292  0.05219443  1
  Se  Se150  1  0.93231365  0.92645774  0.56250699  1
  Se  Se151  1  0.07490240  0.25496168  0.43737936  1
  Se  Se152  1  0.10189280  0.22904671  0.95652150  1
  Se  Se153  1  0.08446860  0.57978052  0.44624398  1
  Se  Se154  1  0.08020894  0.58307400  0.94209278  1
  Se  Se155  1  0.08741883  0.91457250  0.44295417  1
  Se  Se156  1  0.06456092  0.93277339  0.96563081  1
  Se  Se157  1  0.40474354  0.25500482  0.43597175  1
  Se  Se158  1  0.41389741  0.25690743  0.95654595  1
  Se  Se159  1  0.41625349  0.58043308  0.44501732  1
  Se  Se160  1  0.41030948  0.58528939  0.94631871  1
  Se  Se161  1  0.41285898  0.92392338  0.43085693  1
  Se  Se162  1  0.41833287  0.91148170  0.94454472  1
  Se  Se163  1  0.75014205  0.24648072  0.45028026  1
  Se  Se164  1  0.75638689  0.24996743  0.94669589  1
  Se  Se165  1  0.74706099  0.59238518  0.43370005  1
  Se  Se166  1  0.74896807  0.58213570  0.93581881  1
  Se  Se167  1  0.74790351  0.92447120  0.44568708  1
  Se  Se168  1  0.73920530  0.92275755  0.94484122  1
  Se  Se169  1  0.25221579  0.08229261  0.43708897  1
  Se  Se170  1  0.25530031  0.07258532  0.94373914  1
  Se  Se171  1  0.24296654  0.41822285  0.44297699  1
  Se  Se172  1  0.25783691  0.41156757  0.93921166  1
  Se  Se173  1  0.25014751  0.74956023  0.44615087  1
  Se  Se174  1  0.24521956  0.74883746  0.94601132  1
  Se  Se175  1  0.58859761  0.07808735  0.44556801  1
  Se  Se176  1  0.57794680  0.09073716  0.94706893  1
  Se  Se177  1  0.58271919  0.41250313  0.44734009  1
  Se  Se178  1  0.58963315  0.41624411  0.94701498  1
  Se  Se179  1  0.59076208  0.74759657  0.43259874  1
  Se  Se180  1  0.58721192  0.74371327  0.95062893  1
  Se  Se181  1  0.91976781  0.08467079  0.44423682  1
  Se  Se182  1  0.91999972  0.06628890  0.96476326  1
  Se  Se183  1  0.92088231  0.41370266  0.43768363  1
  Se  Se184  1  0.92200045  0.41314155  0.94183747  1
  Se  Se185  1  0.92357970  0.74572958  0.44076501  1
  Se  Se186  1  0.88515440  0.76295468  0.96362768  1
  Se  Se187  1  0.24190403  0.24767145  0.29617181  1
  Se  Se188  1  0.24749249  0.24706700  0.81294571  1
  Se  Se189  1  0.24510292  0.58045897  0.30911583  1
  Se  Se190  1  0.24398074  0.59023871  0.79969238  1
  Se  Se191  1  0.24886632  0.91805025  0.29802286  1
  Se  Se192  1  0.23296400  0.90676876  0.81232072  1
  Se  Se193  1  0.57327596  0.24498614  0.30212502  1
  Se  Se194  1  0.59135765  0.25539165  0.81001943  1
  Se  Se195  1  0.58338116  0.58294249  0.29734816  1
  Se  Se196  1  0.57808163  0.58109268  0.81338852  1
  Se  Se197  1  0.57847935  0.90852731  0.30421566  1
  Se  Se198  1  0.58048161  0.91736394  0.80451311  1
  Se  Se199  1  0.91748792  0.25589910  0.29960908  1
  Se  Se200  1  0.92772853  0.24518176  0.81720220  1
  Se  Se201  1  0.91785014  0.58568760  0.29922945  1
  Se  Se202  1  0.91821376  0.58642530  0.80328518  1
  Se  Se203  1  0.91320116  0.91423877  0.29924946  1
  Se  Se204  1  0.91400022  0.90605775  0.82564689  1
  Se  Se205  1  0.07834668  0.08012872  0.29882775  1
  Se  Se206  1  0.08230246  0.09325128  0.82617544  1
  Se  Se207  1  0.08272091  0.41747573  0.30150833  1
  Se  Se208  1  0.08803494  0.41346300  0.80674673  1
  Se  Se209  1  0.08710923  0.75331497  0.30215624  1
  Se  Se210  1  0.06153576  0.75781805  0.82475667  1
  Se  Se211  1  0.41346343  0.08134002  0.29307236  1
  Se  Se212  1  0.42438365  0.09547130  0.81347217  1
  Se  Se213  1  0.41472428  0.41857716  0.29989321  1
  Se  Se214  1  0.42324870  0.42382317  0.81734598  1
  Se  Se215  1  0.42453106  0.75620890  0.30373679  1
  Se  Se216  1  0.41160617  0.74772083  0.80566136  1
  Se  Se217  1  0.74851077  0.08559157  0.31051546  1
  Se  Se218  1  0.75526504  0.08420597  0.81028286  1
  Se  Se219  1  0.75430148  0.42283806  0.31093602  1
  Se  Se220  1  0.75500723  0.41326045  0.79784888  1
  Se  Se221  1  0.74886014  0.75138796  0.29184374  1
  Se  Se222  1  0.75405839  0.75260125  0.81533248  1
  Se  Se223  1  0.24517663  0.07833437  0.18971497  1
  Se  Se224  1  0.24191728  0.08801947  0.70131070  1
  Se  Se225  1  0.24907729  0.41505709  0.19483451  1
  Se  Se226  1  0.24387556  0.42415847  0.69002946  1
  Se  Se227  1  0.24042011  0.75702737  0.18660728  1
  Se  Se228  1  0.24823953  0.74633992  0.69734817  1
  Se  Se229  1  0.57763773  0.09068537  0.18429143  1
  Se  Se230  1  0.58890503  0.07987808  0.70290401  1
  Se  Se231  1  0.57107685  0.41547678  0.18222435  1
  Se  Se232  1  0.58464222  0.41569120  0.70039611  1
  Se  Se233  1  0.59070416  0.74964774  0.18631896  1
  Se  Se234  1  0.57250044  0.75758213  0.69064681  1
  Se  Se235  1  0.92106029  0.07513586  0.18304675  1
  Se  Se236  1  0.91756737  0.08736708  0.69807114  1
  Se  Se237  1  0.91724670  0.41497351  0.19899361  1
  Se  Se238  1  0.92509118  0.41472616  0.69717202  1
  Se  Se239  1  0.92322750  0.74678252  0.19217546  1
  Se  Se240  1  0.91816704  0.75501054  0.70439327  1
  Se  Se241  1  0.07901375  0.25034871  0.19278884  1
  Se  Se242  1  0.08271957  0.25031362  0.70357642  1
  Se  Se243  1  0.08352064  0.58657606  0.19782968  1
  Se  Se244  1  0.07976678  0.58631466  0.69533720  1
  Se  Se245  1  0.07780370  0.91957575  0.18485309  1
  Se  Se246  1  0.08916330  0.91479320  0.69652559  1
  Se  Se247  1  0.40724907  0.25241599  0.18859157  1
  Se  Se248  1  0.42539689  0.24186261  0.69470622  1
  Se  Se249  1  0.42641209  0.58425908  0.18217593  1
  Se  Se250  1  0.41603331  0.58225867  0.69916694  1
  Se  Se251  1  0.41507800  0.91741026  0.19662541  1
  Se  Se252  1  0.41671555  0.91295776  0.69064046  1
  Se  Se253  1  0.76325774  0.23665749  0.19921415  1
  Se  Se254  1  0.75938084  0.24798048  0.70161561  1
  Se  Se255  1  0.75014618  0.58221135  0.19266620  1
  Se  Se256  1  0.75745967  0.57599767  0.68874471  1
  Se  Se257  1  0.76110497  0.91600571  0.17710593  1
  Se  Se258  1  0.75088854  0.92143392  0.70692311  1
