# generated using pymatgen
data_In86Cu29Se144
_symmetry_space_group_name_H-M   'P 1'
_cell_length_a   17.58671673
_cell_length_b   17.59053756
_cell_length_c   23.45511057
_cell_angle_alpha   90.01459126
_cell_angle_beta   89.98911111
_cell_angle_gamma   89.99165829
_symmetry_Int_Tables_number   1
_chemical_formula_structural   In86Cu29Se144
_chemical_formula_sum   'In86 Cu29 Se144'
_cell_volume   7256.06790008
_cell_formula_units_Z   1
loop_
 _symmetry_equiv_pos_site_id
 _symmetry_equiv_pos_as_xyz
  1  'x, y, z'
loop_
 _atom_site_type_symbol
 _atom_site_label
 _atom_site_symmetry_multiplicity
 _atom_site_fract_x
 _atom_site_fract_y
 _atom_site_fract_z
 _atom_site_occupancy
  In  In0  1  -0.00163764  0.15593610  0.12554539  1
  In  In1  1  -0.00909054  0.17643088  0.62706249  1
  In  In2  1  -0.00198257  0.51286692  0.11967153  1
  In  In3  1  0.00326224  0.48268764  0.63012160  1
  In  In4  1  -0.00084800  0.83598227  0.13049879  1
  In  In5  1  0.00427462  0.83959136  0.62277665  1
  In  In6  1  0.33564868  0.18073232  0.12404680  1
  In  In7  1  0.32764035  0.15372745  0.62262395  1
  In  In8  1  0.34138107  0.49753238  0.12662325  1
  In  In9  1  0.33878836  0.51373967  0.62948200  1
  In  In10  1  0.33839673  0.81369091  0.13111789  1
  In  In11  1  0.33547878  0.83308598  0.62232458  1
  In  In12  1  0.66901972  0.16423670  0.13741120  1
  In  In13  1  0.66510025  0.16403680  0.62290525  1
  In  In14  1  0.65825594  0.50349366  0.12118736  1
  In  In15  1  0.64926675  0.49691522  0.63555005  1
  In  In16  1  0.65832906  0.83974411  0.12784847  1
  In  In17  1  0.67923166  0.84974915  0.61251593  1
  In  In18  1  0.14994192  -0.00050753  0.37645255  1
  In  In19  1  0.17385599  0.00242006  0.86712198  1
  In  In20  1  0.18992401  0.33441216  0.38048687  1
  In  In21  1  0.15006065  0.33945410  0.87018541  1
  In  In22  1  0.17473284  0.65781016  0.38256793  1
  In  In23  1  0.18972221  0.66051801  0.87060354  1
  In  In24  1  0.51308719  -0.00933306  0.38461126  1
  In  In25  1  0.49190039  -0.01060588  0.86578406  1
  In  In26  1  0.49553009  0.32754470  0.37387289  1
  In  In27  1  0.51435188  0.33299091  0.87120736  1
  In  In28  1  0.51130908  0.67617557  0.36493161  1
  In  In29  1  0.50176860  0.67198524  0.88853874  1
  In  In30  1  0.83413224  -0.00301356  0.37642436  1
  In  In31  1  0.83661739  -0.00556758  0.85621393  1
  In  In32  1  0.81734426  0.33633679  0.37782335  1
  In  In33  1  0.83865202  0.33715392  0.87129050  1
  In  In34  1  0.83084204  0.68529970  0.37299362  1
  In  In35  1  0.81176807  0.66391113  0.87879253  1
  In  In36  1  0.00137491  0.14698330  0.37692106  1
  In  In37  1  0.00586068  0.17240646  0.86714333  1
  In  In38  1  0.00893116  0.51422036  0.37742197  1
  In  In39  1  0.00034239  0.48572570  0.87068557  1
  In  In40  1  -0.01164784  0.84560636  0.38673297  1
  In  In41  1  -0.00668526  0.84060354  0.86485006  1
  In  In42  1  0.34027939  0.18594242  0.38059802  1
  In  In43  1  0.33189184  0.14827651  0.87398049  1
  In  In44  1  0.33412937  0.49453437  0.37133356  1
  In  In45  1  0.34335823  0.52417509  0.86796732  1
  In  In46  1  0.34516453  0.82290281  0.38157261  1
  In  In47  1  0.34261280  0.83179727  0.87296284  1
  In  In48  1  0.66673672  0.16726362  0.37981365  1
  In  In49  1  0.67211832  0.16534201  0.86661026  1
  In  In50  1  0.66083459  0.49995199  0.36407250  1
  In  In51  1  0.67236576  0.49875232  0.88574711  1
  In  In52  1  0.66850395  0.83504672  0.37229635  1
  In  In53  1  0.65620041  0.83180850  0.87032966  1
  In  In54  1  0.15332974  0.00065043  0.12405003  1
  In  In55  1  0.17836690  -0.00830033  0.62996991  1
  In  In56  1  0.18552201  0.33831225  0.12264832  1
  In  In57  1  0.15962558  0.32565739  0.62268885  1
  In  In58  1  0.16812943  0.67171362  0.12759684  1
  In  In59  1  0.17620817  0.67630176  0.62017205  1
  In  In60  1  0.51411244  0.00088012  0.12644086  1
  In  In61  1  0.50012090  -0.00114655  0.62159402  1
  In  In62  1  0.49168995  0.34311258  0.13209416  1
  In  In63  1  0.51326404  0.34084250  0.62846130  1
  In  In64  1  0.49661876  0.66661997  0.11952871  1
  In  In65  1  0.48832117  0.66774332  0.62689492  1
  In  In66  1  0.83063928  -0.00468502  0.13882295  1
  In  In67  1  0.82787232  -0.00123422  0.62620413  1
  In  In68  1  0.81571071  0.33286376  0.12736701  1
  In  In69  1  0.83801725  0.32279670  0.62766279  1
  In  In70  1  0.83576141  0.66027035  0.12189252  1
  In  In71  1  0.82454710  0.67818272  0.62077201  1
  In  In72  1  0.33095078  0.33059903  0.74824695  1
  In  In73  1  0.82456311  0.83336049  0.00468786  1
  In  In74  1  0.83224133  0.16807481  0.00151487  1
  In  In75  1  0.49860022  0.16701794  0.00041778  1
  In  In76  1  0.16852198  0.49944250  -0.00486321  1
  In  In77  1  0.00192215  0.66719213  0.74534402  1
  In  In78  1  0.17144574  0.83396833  -0.00309479  1
  In  In79  1  0.16638731  0.16287437  0.49896617  1
  In  In80  1  0.66278914  0.67157925  0.75497369  1
  In  In81  1  0.49581435  0.49898825  0.50415372  1
  In  In82  1  0.33328999  0.00235339  0.26043059  1
  In  In83  1  0.00102471  0.32975262  0.24975355  1
  In  In84  1  -0.00472831  0.67396010  0.24863687  1
  In  In85  1  0.83451328  0.50289023  0.50333394  1
  Cu  Cu86  1  0.50075636  0.83230505  0.25159610  1
  Cu  Cu87  1  0.50182529  0.50505770  0.24492276  1
  Cu  Cu88  1  0.66806939  0.32808260  0.50426158  1
  Cu  Cu89  1  0.50624466  0.17004545  0.25408174  1
  Cu  Cu90  1  0.32725824  0.33101004  -0.00382794  1
  Cu  Cu91  1  -0.00515414  -0.00229291  0.50396746  1
  Cu  Cu92  1  0.33405623  -0.00324763  0.50169409  1
  Cu  Cu93  1  0.82757026  0.16442818  0.74471041  1
  Cu  Cu94  1  0.33597428  0.66905700  0.49993519  1
  Cu  Cu95  1  0.82955842  0.49691654  0.75370416  1
  Cu  Cu96  1  0.17682152  0.82879783  0.74569332  1
  Cu  Cu97  1  0.49943538  0.83391736  0.74653042  1
  Cu  Cu98  1  -0.00078888  0.33161512  -0.00751043  1
  Cu  Cu99  1  -0.00092944  0.33093135  0.50240006  1
  Cu  Cu100  1  0.17078878  0.16700880  0.25652858  1
  Cu  Cu101  1  0.66436992  0.67447929  0.49342216  1
  Cu  Cu102  1  0.66063017  0.34003769  0.00398577  1
  Cu  Cu103  1  0.00549564  0.66954217  0.50232921  1
  Cu  Cu104  1  0.16117879  0.16238009  0.74526909  1
  Cu  Cu105  1  -0.00587782  0.66447161  -0.00568190  1
  Cu  Cu106  1  0.33238723  -0.00676294  -0.00446645  1
  Cu  Cu107  1  0.00018014  0.00918105  -0.00206620  1
  Cu  Cu108  1  0.16022110  0.83035368  0.25305645  1
  Cu  Cu109  1  0.17868084  0.49717183  0.25460165  1
  Cu  Cu110  1  0.50290185  0.15994965  0.74746943  1
  Cu  Cu111  1  0.66249857  -0.00232462  -0.00072196  1
  Cu  Cu112  1  0.66702455  0.00349168  0.49897937  1
  Cu  Cu113  1  0.83172525  0.16211749  0.25582585  1
  Cu  Cu114  1  0.82437681  0.50110902  0.24589202  1
  Se  Se115  1  0.08522596  0.08931654  0.05073533  1
  Se  Se116  1  0.07880283  0.07786007  0.56393471  1
  Se  Se117  1  0.07755558  0.40977225  0.05843410  1
  Se  Se118  1  0.08347311  0.41368995  0.55252354  1
  Se  Se119  1  0.07225818  0.74443184  0.05562165  1
  Se  Se120  1  0.08667977  0.75534626  0.55482108  1
  Se  Se121  1  0.40888285  0.07458030  0.06029969  1
  Se  Se122  1  0.41619510  0.08302191  0.55209364  1
  Se  Se123  1  0.41028757  0.40859466  0.05361014  1
  Se  Se124  1  0.40837859  0.40906304  0.56384907  1
  Se  Se125  1  0.41838877  0.75713982  0.05203508  1
  Se  Se126  1  0.42045150  0.75181629  0.55203794  1
  Se  Se127  1  0.74286670  0.07577052  0.06032935  1
  Se  Se128  1  0.75109841  0.08427881  0.55411712  1
  Se  Se129  1  0.74944976  0.41972253  0.05503293  1
  Se  Se130  1  0.74099849  0.41692106  0.56403779  1
  Se  Se131  1  0.73637552  0.74154131  0.06046510  1
  Se  Se132  1  0.75219205  0.75528738  0.54489224  1
  Se  Se133  1  0.24709788  0.24579454  0.04919807  1
  Se  Se134  1  0.25794693  0.25448531  0.55479770  1
  Se  Se135  1  0.25270730  0.58852442  0.05907573  1
  Se  Se136  1  0.25589007  0.58490210  0.55459972  1
  Se  Se137  1  0.25595183  0.91998312  0.06486941  1
  Se  Se138  1  0.24877088  0.91352326  0.55259409  1
  Se  Se139  1  0.58876568  0.25175857  0.06433776  1
  Se  Se140  1  0.57959314  0.25063387  0.55649856  1
  Se  Se141  1  0.55923619  0.56475401  0.05348037  1
  Se  Se142  1  0.59239176  0.59274536  0.55815300  1
  Se  Se143  1  0.57874149  0.91525621  0.05096097  1
  Se  Se144  1  0.58024613  0.91795533  0.54861427  1
  Se  Se145  1  0.92233800  0.25973834  0.06168757  1
  Se  Se146  1  0.91184758  0.24754161  0.54930405  1
  Se  Se147  1  0.91219576  0.58069329  0.04677000  1
  Se  Se148  1  0.92648697  0.58977662  0.56526138  1
  Se  Se149  1  0.92190453  0.92808395  0.05831625  1
  Se  Se150  1  0.91126496  0.91422791  0.55664843  1
  Se  Se151  1  0.07850248  0.25492035  0.43625440  1
  Se  Se152  1  0.08433269  0.24842323  0.94299705  1
  Se  Se153  1  0.08831614  0.58152454  0.45422766  1
  Se  Se154  1  0.07891763  0.59129760  0.93368734  1
  Se  Se155  1  0.08434548  0.91686787  0.45355462  1
  Se  Se156  1  0.07567954  0.92208890  0.94037523  1
  Se  Se157  1  0.42028847  0.25948017  0.45302394  1
  Se  Se158  1  0.41004117  0.25291494  0.93549095  1
  Se  Se159  1  0.41906431  0.59247817  0.43757540  1
  Se  Se160  1  0.42046804  0.57862175  0.95048464  1
  Se  Se161  1  0.41889204  0.91443812  0.44835717  1
  Se  Se162  1  0.42090568  0.91472835  0.94524227  1
  Se  Se163  1  0.75293342  0.24784218  0.45082711  1
  Se  Se164  1  0.73952084  0.25717522  0.94368736  1
  Se  Se165  1  0.74333478  0.58571474  0.43864127  1
  Se  Se166  1  0.74686622  0.58587708  0.95559256  1
  Se  Se167  1  0.74762212  0.91685733  0.44469443  1
  Se  Se168  1  0.74875782  0.92755972  0.93707510  1
  Se  Se169  1  0.25781705  0.07548219  0.43605872  1
  Se  Se170  1  0.24638624  0.07731153  0.94716815  1
  Se  Se171  1  0.25032242  0.43004290  0.44827536  1
  Se  Se172  1  0.25634783  0.41294782  0.93150484  1
  Se  Se173  1  0.24953559  0.75205811  0.44803758  1
  Se  Se174  1  0.26494682  0.73996352  0.94706191  1
  Se  Se175  1  0.58068383  0.08911289  0.45006650  1
  Se  Se176  1  0.58633894  0.07912412  0.93714081  1
  Se  Se177  1  0.59294114  0.41486696  0.44379728  1
  Se  Se178  1  0.57678403  0.41762160  0.94814415  1
  Se  Se179  1  0.57906226  0.75676351  0.44236198  1
  Se  Se180  1  0.59821837  0.75019569  0.94829641  1
  Se  Se181  1  0.91375364  0.08149836  0.44964172  1
  Se  Se182  1  0.91523539  0.07944220  0.93559563  1
  Se  Se183  1  0.92367700  0.41416567  0.43914945  1
  Se  Se184  1  0.91443490  0.41823165  0.94563649  1
  Se  Se185  1  0.91595687  0.74736677  0.45041113  1
  Se  Se186  1  0.91835678  0.75132007  0.93790442  1
  Se  Se187  1  0.25668066  0.25228776  0.30323020  1
  Se  Se188  1  0.24173143  0.23968017  0.81029561  1
  Se  Se189  1  0.25555703  0.58743557  0.30599143  1
  Se  Se190  1  0.24308255  0.57000233  0.79600394  1
  Se  Se191  1  0.24198557  0.90769064  0.31476615  1
  Se  Se192  1  0.25602516  0.91167702  0.80510169  1
  Se  Se193  1  0.58902903  0.25341542  0.30807683  1
  Se  Se194  1  0.58461661  0.24527920  0.80000123  1
  Se  Se195  1  0.58736467  0.58890141  0.29576606  1
  Se  Se196  1  0.58080518  0.57999921  0.81620835  1
  Se  Se197  1  0.58202799  0.91836120  0.30371434  1
  Se  Se198  1  0.58502271  0.91773022  0.79795407  1
  Se  Se199  1  0.91263622  0.24504519  0.31466349  1
  Se  Se200  1  0.91010246  0.24572316  0.80305564  1
  Se  Se201  1  0.90725913  0.57680714  0.30777131  1
  Se  Se202  1  0.90726913  0.58348512  0.81080554  1
  Se  Se203  1  0.92014225  0.91739531  0.30770254  1
  Se  Se204  1  0.93015848  0.92438687  0.79020186  1
  Se  Se205  1  0.08213145  0.08057811  0.29858915  1
  Se  Se206  1  0.08095704  0.07865402  0.80188765  1
  Se  Se207  1  0.09054709  0.42047740  0.31083187  1
  Se  Se208  1  0.07877285  0.41708254  0.79482585  1
  Se  Se209  1  0.08367020  0.75148355  0.31752241  1
  Se  Se210  1  0.09601166  0.75289387  0.80996335  1
  Se  Se211  1  0.42661270  0.09135223  0.31693265  1
  Se  Se212  1  0.41468465  0.07962087  0.79895383  1
  Se  Se213  1  0.42502509  0.41992954  0.30418691  1
  Se  Se214  1  0.42051822  0.41767305  0.80948964  1
  Se  Se215  1  0.41292102  0.74909396  0.30042596  1
  Se  Se216  1  0.42828190  0.74737129  0.80779026  1
  Se  Se217  1  0.74761897  0.08239702  0.31066326  1
  Se  Se218  1  0.74526956  0.07844532  0.79633665  1
  Se  Se219  1  0.74753005  0.41392464  0.30030904  1
  Se  Se220  1  0.74544215  0.41740685  0.80944088  1
  Se  Se221  1  0.73657729  0.74100083  0.30246324  1
  Se  Se222  1  0.76208637  0.76428945  0.80456683  1
  Se  Se223  1  0.24794767  0.08723884  0.19102648  1
  Se  Se224  1  0.25255967  0.08055771  0.69997998  1
  Se  Se225  1  0.25894228  0.41486579  0.19806269  1
  Se  Se226  1  0.24387883  0.41894824  0.68682681  1
  Se  Se227  1  0.24555114  0.74730047  0.20214023  1
  Se  Se228  1  0.26106253  0.74511659  0.69513250  1
  Se  Se229  1  0.58438119  0.08050899  0.20301408  1
  Se  Se230  1  0.58512947  0.07780350  0.69211596  1
  Se  Se231  1  0.58657695  0.41655858  0.19616310  1
  Se  Se232  1  0.58249662  0.41229246  0.70827358  1
  Se  Se233  1  0.57701658  0.74968476  0.19177788  1
  Se  Se234  1  0.58319716  0.75811602  0.68506778  1
  Se  Se235  1  0.91705066  0.08451289  0.19953193  1
  Se  Se236  1  0.91469141  0.08466489  0.69210088  1
  Se  Se237  1  0.91426293  0.42483374  0.18970669  1
  Se  Se238  1  0.91060000  0.41348230  0.69800812  1
  Se  Se239  1  0.89909382  0.76253875  0.19343128  1
  Se  Se240  1  0.90879282  0.75860142  0.69179524  1
  Se  Se241  1  0.09517469  0.24500343  0.18898673  1
  Se  Se242  1  0.07967605  0.25119978  0.69707684  1
  Se  Se243  1  0.09131726  0.57442554  0.19676463  1
  Se  Se244  1  0.09141322  0.57959687  0.68647812  1
  Se  Se245  1  0.08244732  0.91669704  0.19866925  1
  Se  Se246  1  0.08982793  0.91161752  0.69627088  1
  Se  Se247  1  0.41890479  0.24837953  0.19927380  1
  Se  Se248  1  0.42125267  0.24038965  0.68773300  1
  Se  Se249  1  0.41454889  0.58793217  0.19471643  1
  Se  Se250  1  0.43499129  0.57277564  0.69930380  1
  Se  Se251  1  0.41911758  0.91654273  0.19320063  1
  Se  Se252  1  0.41634695  0.91705186  0.69202474  1
  Se  Se253  1  0.75108841  0.24972981  0.20402762  1
  Se  Se254  1  0.74424935  0.25061375  0.69383632  1
  Se  Se255  1  0.74722458  0.58403953  0.18923210  1
  Se  Se256  1  0.75570676  0.57967907  0.69151546  1
  Se  Se257  1  0.73530446  0.92250332  0.19875484  1
  Se  Se258  1  0.74526187  0.91639243  0.69521072  1
