# generated using pymatgen
data_In86Cu29Se144
_symmetry_space_group_name_H-M   'P 1'
_cell_length_a   17.57952837
_cell_length_b   17.57997222
_cell_length_c   23.44192249
_cell_angle_alpha   90.00354873
_cell_angle_beta   90.00784948
_cell_angle_gamma   89.99005144
_symmetry_Int_Tables_number   1
_chemical_formula_structural   In86Cu29Se144
_chemical_formula_sum   'In86 Cu29 Se144'
_cell_volume   7244.67017181
_cell_formula_units_Z   1
loop_
 _symmetry_equiv_pos_site_id
 _symmetry_equiv_pos_as_xyz
  1  'x, y, z'
loop_
 _atom_site_type_symbol
 _atom_site_label
 _atom_site_symmetry_multiplicity
 _atom_site_fract_x
 _atom_site_fract_y
 _atom_site_fract_z
 _atom_site_occupancy
  In  In0  1  0.00736322  0.15812896  0.12558340  1
  In  In1  1  -0.00271458  0.16599000  0.63725002  1
  In  In2  1  -0.00943323  0.48975443  0.12217812  1
  In  In3  1  0.00891783  0.48347363  0.62806980  1
  In  In4  1  0.01510287  0.84665739  0.12043295  1
  In  In5  1  0.01125223  0.83248000  0.62806388  1
  In  In6  1  0.33518431  0.16608354  0.11281607  1
  In  In7  1  0.33488032  0.17139502  0.64157419  1
  In  In8  1  0.33520840  0.51923550  0.12726046  1
  In  In9  1  0.32548705  0.48565666  0.61391573  1
  In  In10  1  0.33177485  0.82985998  0.12622133  1
  In  In11  1  0.33894063  0.83979445  0.61840341  1
  In  In12  1  0.65347063  0.16997692  0.11674759  1
  In  In13  1  0.65457835  0.16762934  0.64129719  1
  In  In14  1  0.66933409  0.50438266  0.12681658  1
  In  In15  1  0.65733631  0.50911039  0.62580626  1
  In  In16  1  0.66206264  0.83048762  0.12620160  1
  In  In17  1  0.65636927  0.84338447  0.62610455  1
  In  In18  1  0.15238915  -0.00330090  0.37343668  1
  In  In19  1  0.16883925  0.00443654  0.87634418  1
  In  In20  1  0.16692955  0.34720443  0.37507110  1
  In  In21  1  0.16692824  0.33356897  0.87862173  1
  In  In22  1  0.17597533  0.66102993  0.37685287  1
  In  In23  1  0.16383135  0.66923180  0.88762679  1
  In  In24  1  0.49266936  -0.02081534  0.36807238  1
  In  In25  1  0.49620659  0.00224905  0.87252139  1
  In  In26  1  0.50206512  0.33776829  0.38287284  1
  In  In27  1  0.48343939  0.30855524  0.85247442  1
  In  In28  1  0.49088104  0.66684209  0.36692602  1
  In  In29  1  0.50867684  0.67370781  0.87841465  1
  In  In30  1  0.82344397  -0.00671777  0.36166863  1
  In  In31  1  0.82803932  -0.00958541  0.87524818  1
  In  In32  1  0.83593442  0.32039682  0.37271133  1
  In  In33  1  0.83793910  0.34157149  0.86593177  1
  In  In34  1  0.83449438  0.67617150  0.36733020  1
  In  In35  1  0.83385933  0.66261555  0.89069636  1
  In  In36  1  -0.00511666  0.15935695  0.36653939  1
  In  In37  1  0.01190781  0.17713312  0.87265833  1
  In  In38  1  0.01603894  0.50765577  0.37092215  1
  In  In39  1  0.00209772  0.49623753  0.88191192  1
  In  In40  1  -0.00058569  0.83948359  0.37052653  1
  In  In41  1  -0.00595865  0.83717801  0.88718248  1
  In  In42  1  0.33975156  0.17073273  0.37834623  1
  In  In43  1  0.33529739  0.16224728  0.87454247  1
  In  In44  1  0.32541152  0.50208250  0.37820445  1
  In  In45  1  0.33543336  0.48634765  0.87445470  1
  In  In46  1  0.33977425  0.82410161  0.37836949  1
  In  In47  1  0.32169219  0.84591269  0.88414886  1
  In  In48  1  0.67289175  0.16407433  0.37197896  1
  In  In49  1  0.65290061  0.15349318  0.86127822  1
  In  In50  1  0.65230646  0.50275504  0.36777270  1
  In  In51  1  0.67674333  0.49059169  0.87808050  1
  In  In52  1  0.63544862  0.80736040  0.34213278  1
  In  In53  1  0.65801405  0.84287355  0.88774407  1
  In  In54  1  0.16003574  -0.01150896  0.11728404  1
  In  In55  1  0.17058958  -0.00182761  0.63230099  1
  In  In56  1  0.15852085  0.32419920  0.11553130  1
  In  In57  1  0.16419112  0.33439617  0.63205111  1
  In  In58  1  0.18055628  0.68010924  0.12230598  1
  In  In59  1  0.17633723  0.66993505  0.61830189  1
  In  In60  1  0.50396921  0.00356431  0.12079059  1
  In  In61  1  0.50195617  -0.00205402  0.63191013  1
  In  In62  1  0.50817712  0.32971921  0.11847341  1
  In  In63  1  0.48620256  0.34270062  0.64039302  1
  In  In64  1  0.48056339  0.68344412  0.15151501  1
  In  In65  1  0.50066388  0.66599758  0.61314938  1
  In  In66  1  0.84107822  -0.00803182  0.12364889  1
  In  In67  1  0.82240454  0.00350686  0.63694056  1
  In  In68  1  0.83627587  0.35572037  0.11744047  1
  In  In69  1  0.84284756  0.33625006  0.64016435  1
  In  In70  1  0.82309860  0.65713958  0.12164664  1
  In  In71  1  0.82158858  0.66985930  0.62280664  1
  In  In72  1  0.32929304  0.33665629  0.25560942  1
  In  In73  1  0.49837987  0.16769742  0.50798931  1
  In  In74  1  0.33390588  0.66492615  0.74580318  1
  In  In75  1  0.83351188  0.16096451  0.51406832  1
  In  In76  1  0.67047758  0.66322554  0.75146519  1
  In  In77  1  0.50427826  0.50253366  0.00135794  1
  In  In78  1  0.00028403  0.66583443  0.75810826  1
  In  In79  1  0.83995069  0.50268913  0.50001836  1
  In  In80  1  0.83169143  0.16949343  -0.01097210  1
  In  In81  1  0.32598529  -0.00851034  0.24323745  1
  In  In82  1  0.83208110  0.83957627  0.48797165  1
  In  In83  1  0.16817950  0.16811215  0.51159882  1
  In  In84  1  -0.00263705  0.66349227  0.24463752  1
  In  In85  1  0.67165146  0.33478670  0.24203494  1
  Cu  Cu86  1  -0.00188824  0.33522245  -0.00380437  1
  Cu  Cu87  1  0.00076746  0.66467214  0.01005153  1
  Cu  Cu88  1  0.33507459  0.67234568  0.00542021  1
  Cu  Cu89  1  0.65984347  0.67291761  0.48764385  1
  Cu  Cu90  1  0.15663817  0.16570729  0.24442721  1
  Cu  Cu91  1  -0.00634297  -0.00692444  0.49821153  1
  Cu  Cu92  1  0.83760396  0.84121439  0.24050217  1
  Cu  Cu93  1  0.16504962  0.16898658  0.75678296  1
  Cu  Cu94  1  0.16733342  0.84884097  0.75452070  1
  Cu  Cu95  1  0.66682685  -0.00459269  -0.00267847  1
  Cu  Cu96  1  0.01026895  0.00145496  0.00010034  1
  Cu  Cu97  1  0.83893159  0.15981755  0.75848598  1
  Cu  Cu98  1  0.16505660  0.49880090  0.24827158  1
  Cu  Cu99  1  0.65255165  -0.00708665  0.49782291  1
  Cu  Cu100  1  0.32497075  -0.00538788  0.50192812  1
  Cu  Cu101  1  0.50133885  0.16423203  0.24496810  1
  Cu  Cu102  1  0.34075806  0.00325421  -0.00149073  1
  Cu  Cu103  1  0.16703442  0.49582598  0.75258567  1
  Cu  Cu104  1  0.01221271  0.33708033  0.49981070  1
  Cu  Cu105  1  0.49334765  0.83825884  0.75278250  1
  Cu  Cu106  1  0.83825602  0.16625728  0.24294474  1
  Cu  Cu107  1  0.01448790  0.66112693  0.50244985  1
  Cu  Cu108  1  0.66611880  0.34174909  0.50486063  1
  Cu  Cu109  1  0.83210690  0.83325675  0.75767398  1
  Cu  Cu110  1  0.50011936  0.49152953  0.74657326  1
  Cu  Cu111  1  0.65957292  0.33449648  -0.00699677  1
  Cu  Cu112  1  0.33625893  0.66625252  0.49495024  1
  Cu  Cu113  1  0.33111124  0.33459342  -0.00699896  1
  Cu  Cu114  1  0.66078576  0.67112358  0.00583198  1
  Se  Se115  1  0.09188785  0.08772603  0.05139992  1
  Se  Se116  1  0.06885368  0.07564171  0.56044642  1
  Se  Se117  1  0.08093271  0.41788710  0.05163414  1
  Se  Se118  1  0.09546632  0.41764414  0.55368587  1
  Se  Se119  1  0.08823258  0.75247409  0.05401188  1
  Se  Se120  1  0.08772689  0.75386786  0.55465156  1
  Se  Se121  1  0.42616638  0.08740982  0.04930408  1
  Se  Se122  1  0.40291292  0.07691937  0.56275141  1
  Se  Se123  1  0.40724301  0.41315660  0.05954524  1
  Se  Se124  1  0.43524263  0.42378362  0.55767197  1
  Se  Se125  1  0.42240603  0.74745718  0.06143118  1
  Se  Se126  1  0.41592026  0.75194113  0.55029565  1
  Se  Se127  1  0.74747364  0.08033320  0.05511325  1
  Se  Se128  1  0.72981362  0.07275117  0.56084970  1
  Se  Se129  1  0.73665224  0.41852872  0.05005171  1
  Se  Se130  1  0.75400508  0.41341360  0.56391996  1
  Se  Se131  1  0.74973283  0.75170201  0.05632392  1
  Se  Se132  1  0.73878793  0.75125771  0.55116173  1
  Se  Se133  1  0.24999412  0.24989985  0.04809612  1
  Se  Se134  1  0.26316471  0.25728661  0.56467762  1
  Se  Se135  1  0.24954158  0.58508181  0.05229490  1
  Se  Se136  1  0.25353502  0.58340161  0.55070706  1
  Se  Se137  1  0.26038067  0.91896837  0.05492535  1
  Se  Se138  1  0.23974948  0.91503370  0.55636785  1
  Se  Se139  1  0.57648499  0.24783308  0.04220239  1
  Se  Se140  1  0.59014452  0.25863704  0.56469424  1
  Se  Se141  1  0.57723694  0.59648019  0.06814170  1
  Se  Se142  1  0.58833056  0.58534349  0.54699380  1
  Se  Se143  1  0.58384984  0.91513421  0.05416869  1
  Se  Se144  1  0.56984839  0.91321773  0.55380378  1
  Se  Se145  1  0.91855602  0.25266621  0.05708611  1
  Se  Se146  1  0.92896016  0.26027921  0.56045693  1
  Se  Se147  1  0.91251387  0.57850704  0.05431290  1
  Se  Se148  1  0.92821564  0.59133718  0.56451268  1
  Se  Se149  1  0.92345732  0.91816155  0.05021452  1
  Se  Se150  1  0.91189555  0.92031132  0.56295356  1
  Se  Se151  1  0.07900950  0.24545187  0.43937530  1
  Se  Se152  1  0.08630758  0.25010849  0.95032081  1
  Se  Se153  1  0.09397854  0.57691646  0.44769899  1
  Se  Se154  1  0.08054175  0.58244319  0.95098293  1
  Se  Se155  1  0.07984508  0.91226201  0.44709239  1
  Se  Se156  1  0.09196958  0.91538634  0.94671184  1
  Se  Se157  1  0.40678980  0.26197300  0.45101150  1
  Se  Se158  1  0.41753452  0.25225904  0.94197148  1
  Se  Se159  1  0.41827266  0.58283237  0.44100669  1
  Se  Se160  1  0.40899058  0.59130085  0.94007263  1
  Se  Se161  1  0.41312133  0.91715780  0.44794362  1
  Se  Se162  1  0.42183854  0.91678695  0.94581115  1
  Se  Se163  1  0.74363635  0.25348543  0.44989672  1
  Se  Se164  1  0.74016568  0.25682109  0.93114567  1
  Se  Se165  1  0.74980398  0.59128469  0.43791921  1
  Se  Se166  1  0.73834144  0.58314298  0.95124704  1
  Se  Se167  1  0.73240016  0.92058878  0.43289671  1
  Se  Se168  1  0.75767241  0.91104466  0.95279025  1
  Se  Se169  1  0.25134510  0.07922764  0.44117195  1
  Se  Se170  1  0.25253135  0.08474675  0.94698923  1
  Se  Se171  1  0.25733292  0.40745839  0.44645072  1
  Se  Se172  1  0.24617424  0.42308756  0.94775100  1
  Se  Se173  1  0.24841956  0.75082217  0.44698208  1
  Se  Se174  1  0.24929244  0.75379148  0.95180353  1
  Se  Se175  1  0.57988218  0.08132657  0.43776645  1
  Se  Se176  1  0.58565528  0.08028948  0.94303222  1
  Se  Se177  1  0.58723543  0.42233464  0.44744754  1
  Se  Se178  1  0.57205906  0.40782081  0.93185915  1
  Se  Se179  1  0.57664442  0.75493272  0.43494459  1
  Se  Se180  1  0.57655245  0.75489561  0.95415099  1
  Se  Se181  1  0.91145717  0.07436531  0.44078963  1
  Se  Se182  1  0.92774107  0.07699697  0.93737911  1
  Se  Se183  1  0.92622932  0.40956210  0.43851967  1
  Se  Se184  1  0.90939477  0.41614467  0.94630932  1
  Se  Se185  1  0.92951763  0.73865599  0.44326105  1
  Se  Se186  1  0.91745030  0.74821449  0.95487256  1
  Se  Se187  1  0.23802181  0.23802902  0.30983922  1
  Se  Se188  1  0.24996173  0.25154781  0.80947789  1
  Se  Se189  1  0.24996563  0.57981613  0.30196903  1
  Se  Se190  1  0.24321912  0.58180201  0.81159429  1
  Se  Se191  1  0.24345710  0.90911379  0.31239037  1
  Se  Se192  1  0.25707584  0.92673352  0.80533838  1
  Se  Se193  1  0.57708150  0.24743155  0.30711081  1
  Se  Se194  1  0.60651406  0.26824055  0.80195490  1
  Se  Se195  1  0.59410603  0.60131466  0.30152764  1
  Se  Se196  1  0.57455472  0.57405649  0.80927521  1
  Se  Se197  1  0.59822628  0.93757444  0.30018917  1
  Se  Se198  1  0.58272896  0.91227460  0.80800731  1
  Se  Se199  1  0.91839659  0.24907283  0.29906532  1
  Se  Se200  1  0.92118246  0.25029866  0.80429692  1
  Se  Se201  1  0.90984584  0.57296237  0.30733713  1
  Se  Se202  1  0.90670287  0.57805167  0.81367408  1
  Se  Se203  1  0.92029434  0.91929998  0.29886876  1
  Se  Se204  1  0.92071969  0.91273839  0.80886983  1
  Se  Se205  1  0.07953240  0.07804613  0.29901166  1
  Se  Se206  1  0.08176335  0.08137750  0.80590891  1
  Se  Se207  1  0.08188932  0.41412704  0.29981835  1
  Se  Se208  1  0.08308475  0.41785742  0.80925905  1
  Se  Se209  1  0.08678219  0.74828433  0.30860347  1
  Se  Se210  1  0.09229728  0.76033983  0.81208715  1
  Se  Se211  1  0.41736784  0.08789646  0.30476615  1
  Se  Se212  1  0.42769656  0.09540751  0.80334690  1
  Se  Se213  1  0.42580503  0.42281430  0.31024777  1
  Se  Se214  1  0.40876446  0.41356714  0.79643720  1
  Se  Se215  1  0.42101405  0.76276407  0.29995608  1
  Se  Se216  1  0.41620352  0.75498137  0.81199126  1
  Se  Se217  1  0.74952647  0.08914346  0.29701280  1
  Se  Se218  1  0.75149975  0.07380259  0.80396428  1
  Se  Se219  1  0.75532940  0.41792653  0.31181365  1
  Se  Se220  1  0.74648895  0.41788317  0.79973344  1
  Se  Se221  1  0.75880612  0.75481454  0.29481333  1
  Se  Se222  1  0.75309938  0.75252875  0.81776526  1
  Se  Se223  1  0.24453967  0.09247442  0.18618076  1
  Se  Se224  1  0.24631831  0.08529270  0.70128135  1
  Se  Se225  1  0.24418966  0.41825711  0.18598989  1
  Se  Se226  1  0.25337705  0.41806767  0.69676688  1
  Se  Se227  1  0.25967099  0.74613142  0.19973301  1
  Se  Se228  1  0.24226972  0.76284819  0.69423277  1
  Se  Se229  1  0.58689258  0.08529719  0.19213442  1
  Se  Se230  1  0.59052361  0.06670326  0.70296902  1
  Se  Se231  1  0.57071420  0.42333134  0.19224778  1
  Se  Se232  1  0.59279113  0.41586804  0.69599909  1
  Se  Se233  1  0.59870667  0.74019064  0.20088924  1
  Se  Se234  1  0.57188451  0.75134710  0.69467748  1
  Se  Se235  1  0.92021499  0.07867909  0.19223432  1
  Se  Se236  1  0.91850947  0.07509064  0.70137038  1
  Se  Se237  1  0.91366074  0.41566159  0.19798864  1
  Se  Se238  1  0.92620051  0.42116726  0.70378755  1
  Se  Se239  1  0.91543766  0.75701006  0.18141979  1
  Se  Se240  1  0.90768823  0.75415948  0.69337167  1
  Se  Se241  1  0.07805189  0.25465595  0.19290882  1
  Se  Se242  1  0.08260998  0.25171394  0.70059306  1
  Se  Se243  1  0.09036384  0.57822538  0.18340068  1
  Se  Se244  1  0.09405691  0.58378275  0.69262472  1
  Se  Se245  1  0.09231605  0.91656070  0.19792448  1
  Se  Se246  1  0.07714356  0.92282446  0.69970374  1
  Se  Se247  1  0.41862180  0.24723761  0.19025808  1
  Se  Se248  1  0.43895938  0.23209130  0.70334604  1
  Se  Se249  1  0.41650364  0.57438101  0.20713400  1
  Se  Se250  1  0.42387062  0.57661953  0.68591572  1
  Se  Se251  1  0.42996864  0.91057793  0.19219247  1
  Se  Se252  1  0.40971707  0.91721988  0.69632607  1
  Se  Se253  1  0.75929014  0.24441724  0.17954204  1
  Se  Se254  1  0.76134024  0.23928298  0.69645277  1
  Se  Se255  1  0.76070201  0.56976869  0.19701345  1
  Se  Se256  1  0.76361037  0.57211996  0.69446243  1
  Se  Se257  1  0.74720958  0.92065639  0.19037101  1
  Se  Se258  1  0.74529536  0.90798725  0.69942492  1
