# generated using pymatgen
data_In86Cu29Se144
_symmetry_space_group_name_H-M   'P 1'
_cell_length_a   17.58506631
_cell_length_b   17.58204350
_cell_length_c   23.45045610
_cell_angle_alpha   89.95571870
_cell_angle_beta   90.03978402
_cell_angle_gamma   89.99314352
_symmetry_Int_Tables_number   1
_chemical_formula_structural   In86Cu29Se144
_chemical_formula_sum   'In86 Cu29 Se144'
_cell_volume   7250.44090269
_cell_formula_units_Z   1
loop_
 _symmetry_equiv_pos_site_id
 _symmetry_equiv_pos_as_xyz
  1  'x, y, z'
loop_
 _atom_site_type_symbol
 _atom_site_label
 _atom_site_symmetry_multiplicity
 _atom_site_fract_x
 _atom_site_fract_y
 _atom_site_fract_z
 _atom_site_occupancy
  In  In0  1  -0.01913172  0.15863487  0.11103592  1
  In  In1  1  0.01373636  0.16278206  0.62665436  1
  In  In2  1  0.00814875  0.50407978  0.12707807  1
  In  In3  1  -0.01361893  0.51234752  0.63181133  1
  In  In4  1  -0.01292890  0.84594154  0.13585180  1
  In  In5  1  -0.01355065  0.82272755  0.61423299  1
  In  In6  1  0.34980458  0.16926401  0.11811815  1
  In  In7  1  0.32863942  0.17271944  0.63222635  1
  In  In8  1  0.33162090  0.50293905  0.13266919  1
  In  In9  1  0.34332505  0.49362884  0.62890050  1
  In  In10  1  0.32800880  0.82095850  0.12138044  1
  In  In11  1  0.32874285  0.84015226  0.63380334  1
  In  In12  1  0.65812081  0.15251868  0.11557196  1
  In  In13  1  0.68011154  0.16804708  0.62958609  1
  In  In14  1  0.67453276  0.51074295  0.12586921  1
  In  In15  1  0.66328163  0.50902803  0.62318789  1
  In  In16  1  0.67140771  0.82929963  0.12239925  1
  In  In17  1  0.66040716  0.79043085  0.62191441  1
  In  In18  1  0.15872063  0.01064807  0.37864225  1
  In  In19  1  0.17008516  -0.01036012  0.87602983  1
  In  In20  1  0.16444319  0.31924485  0.37874178  1
  In  In21  1  0.17456472  0.33761660  0.86543531  1
  In  In22  1  0.17623762  0.67662533  0.37478945  1
  In  In23  1  0.16408461  0.66712185  0.86470679  1
  In  In24  1  0.50565116  -0.01487309  0.37008341  1
  In  In25  1  0.49039619  0.00310809  0.88781978  1
  In  In26  1  0.50535944  0.35188389  0.37536948  1
  In  In27  1  0.49215860  0.31943152  0.87230395  1
  In  In28  1  0.49692777  0.66638671  0.37091094  1
  In  In29  1  0.51026276  0.68478961  0.85971423  1
  In  In30  1  0.82553268  -0.01172974  0.36244495  1
  In  In31  1  0.83744906  -0.00027010  0.88886665  1
  In  In32  1  0.84214662  0.33716010  0.37749094  1
  In  In33  1  0.82807151  0.33323607  0.87043846  1
  In  In34  1  0.83280099  0.66671717  0.37267442  1
  In  In35  1  0.83267745  0.67163151  0.87089405  1
  In  In36  1  0.00956779  0.16990549  0.37293301  1
  In  In37  1  -0.01274836  0.17358811  0.88399146  1
  In  In38  1  -0.01875467  0.50449466  0.38184490  1
  In  In39  1  0.00167240  0.50170935  0.86498165  1
  In  In40  1  0.00122077  0.83258634  0.37339523  1
  In  In41  1  0.00069482  0.82798095  0.87614998  1
  In  In42  1  0.31860407  0.16491004  0.37177659  1
  In  In43  1  0.34394689  0.17513518  0.87575728  1
  In  In44  1  0.34306150  0.50709166  0.37283942  1
  In  In45  1  0.33638072  0.49950281  0.86646504  1
  In  In46  1  0.33801429  0.82190473  0.37747266  1
  In  In47  1  0.35128806  0.84812121  0.85314146  1
  In  In48  1  0.67789506  0.16107842  0.37063283  1
  In  In49  1  0.65865400  0.16817834  0.88165571  1
  In  In50  1  0.65388009  0.51736033  0.39129323  1
  In  In51  1  0.66917368  0.50814210  0.86744160  1
  In  In52  1  0.66967269  0.83383910  0.36777420  1
  In  In53  1  0.66783631  0.82534812  0.88237852  1
  In  In54  1  0.16796559  -0.01144386  0.12634135  1
  In  In55  1  0.16949003  0.00640684  0.62043156  1
  In  In56  1  0.16607933  0.34367965  0.12773587  1
  In  In57  1  0.17590472  0.32321567  0.63071075  1
  In  In58  1  0.16706933  0.66701149  0.13568052  1
  In  In59  1  0.15343477  0.67573057  0.62707716  1
  In  In60  1  0.50635513  0.00931954  0.11464745  1
  In  In61  1  0.49539841  -0.02479404  0.63436015  1
  In  In62  1  0.49732246  0.32140780  0.11996526  1
  In  In63  1  0.49199264  0.34383326  0.63153462  1
  In  In64  1  0.49741308  0.67072819  0.12576872  1
  In  In65  1  0.51084066  0.66104702  0.64071068  1
  In  In66  1  0.83460407  -0.00861055  0.12040531  1
  In  In67  1  0.84117703  -0.00608634  0.62323871  1
  In  In68  1  0.84262581  0.32225433  0.11723776  1
  In  In69  1  0.81818264  0.34927219  0.63832438  1
  In  In70  1  0.81638583  0.68659307  0.13994601  1
  In  In71  1  0.83053702  0.66846312  0.62179252  1
  In  In72  1  0.50139728  0.50114280  0.00183716  1
  In  In73  1  0.33643118  -0.00241916  0.24523954  1
  In  In74  1  0.17248397  0.16746600  -0.00256755  1
  In  In75  1  0.66424085  0.33752633  0.24700283  1
  In  In76  1  0.50246858  0.82509276  0.50167088  1
  In  In77  1  0.84266000  0.16997458  0.49725569  1
  In  In78  1  0.16576389  0.49755702  0.50755483  1
  In  In79  1  0.66681612  -0.00129466  0.75192216  1
  In  In80  1  0.83473717  0.50653390  -0.00558658  1
  In  In81  1  0.00278811  0.33506991  0.25077779  1
  In  In82  1  0.16556992  0.49674443  -0.00831176  1
  In  In83  1  0.16567436  0.83152563  0.00014960  1
  In  In84  1  0.49237559  0.16914940  0.50476114  1
  In  In85  1  0.00319885  -0.00052041  0.75472354  1
  Cu  Cu86  1  0.82949287  0.15469646  0.24159618  1
  Cu  Cu87  1  0.32514519  0.00080188  0.50509379  1
  Cu  Cu88  1  0.83056598  0.50452378  0.25470872  1
  Cu  Cu89  1  0.33645387  0.66544985  0.50014483  1
  Cu  Cu90  1  0.33347949  0.66611030  -0.00382683  1
  Cu  Cu91  1  0.82732469  0.82637567  0.74605533  1
  Cu  Cu92  1  0.33212764  0.33127028  0.50595203  1
  Cu  Cu93  1  0.50504454  0.49754780  0.75148352  1
  Cu  Cu94  1  0.16764703  0.83174710  0.25258107  1
  Cu  Cu95  1  0.67147404  -0.00781266  0.00106126  1
  Cu  Cu96  1  0.83445582  0.17556988  0.75663553  1
  Cu  Cu97  1  0.50407764  0.16777838  0.75521102  1
  Cu  Cu98  1  0.16387491  0.16860147  0.24889172  1
  Cu  Cu99  1  0.83307102  0.50601510  0.74934287  1
  Cu  Cu100  1  0.16621867  0.49646967  0.74181122  1
  Cu  Cu101  1  0.16935223  0.50318609  0.25640052  1
  Cu  Cu102  1  0.17147063  0.16486563  0.75096641  1
  Cu  Cu103  1  -0.00285569  0.67021261  0.49944503  1
  Cu  Cu104  1  0.66530595  -0.00622070  0.49350747  1
  Cu  Cu105  1  0.00214813  -0.00697163  0.49660932  1
  Cu  Cu106  1  0.66814123  0.33063507  -0.00525743  1
  Cu  Cu107  1  0.16118241  0.83132887  0.74711425  1
  Cu  Cu108  1  0.50737085  0.83045949  0.24610959  1
  Cu  Cu109  1  0.83841580  0.83246615  0.24953171  1
  Cu  Cu110  1  0.49621991  0.50597283  0.25141133  1
  Cu  Cu111  1  0.66531251  0.34268553  0.50689205  1
  Cu  Cu112  1  0.00014446  0.32969952  0.50631366  1
  Cu  Cu113  1  0.50181747  0.16596698  0.24213909  1
  Cu  Cu114  1  -0.00912713  0.67267037  0.00375064  1
  Se  Se115  1  0.08454630  0.07446943  0.05694916  1
  Se  Se116  1  0.08054157  0.08119619  0.55000035  1
  Se  Se117  1  0.07197458  0.41004009  0.05348112  1
  Se  Se118  1  0.07604899  0.41053637  0.56901599  1
  Se  Se119  1  0.07732027  0.74527697  0.06492382  1
  Se  Se120  1  0.08477031  0.75356411  0.54819254  1
  Se  Se121  1  0.41527564  0.08160372  0.04694843  1
  Se  Se122  1  0.41342565  0.07058960  0.56602476  1
  Se  Se123  1  0.40691670  0.41405189  0.05945780  1
  Se  Se124  1  0.41866869  0.41708359  0.55189123  1
  Se  Se125  1  0.41577220  0.74692210  0.05177535  1
  Se  Se126  1  0.41107528  0.74477048  0.56580318  1
  Se  Se127  1  0.75406658  0.08030135  0.05208210  1
  Se  Se128  1  0.74611117  0.07660905  0.55291473  1
  Se  Se129  1  0.74452070  0.41132920  0.05686921  1
  Se  Se130  1  0.75219456  0.42379020  0.55734958  1
  Se  Se131  1  0.75660607  0.74917345  0.05341208  1
  Se  Se132  1  0.76506511  0.76289383  0.55080845  1
  Se  Se133  1  0.25502423  0.26166384  0.06019554  1
  Se  Se134  1  0.24942981  0.24384835  0.55412405  1
  Se  Se135  1  0.25053707  0.58875126  0.05690337  1
  Se  Se136  1  0.25655342  0.58958463  0.56413526  1
  Se  Se137  1  0.26203627  0.92416109  0.05401398  1
  Se  Se138  1  0.24753900  0.91156988  0.55722435  1
  Se  Se139  1  0.58550568  0.24923232  0.05085166  1
  Se  Se140  1  0.59015844  0.25354350  0.56280122  1
  Se  Se141  1  0.59361708  0.59438835  0.05554170  1
  Se  Se142  1  0.58895942  0.60471977  0.55904206  1
  Se  Se143  1  0.58498121  0.91278276  0.05500131  1
  Se  Se144  1  0.59397882  0.91660542  0.56094131  1
  Se  Se145  1  0.92093858  0.25453489  0.04152636  1
  Se  Se146  1  0.91662593  0.25597199  0.56997830  1
  Se  Se147  1  0.91631593  0.59059391  0.06557624  1
  Se  Se148  1  0.91557914  0.58480027  0.55228609  1
  Se  Se149  1  0.91851605  0.90862604  0.05283104  1
  Se  Se150  1  0.91187233  0.91578404  0.54716055  1
  Se  Se151  1  0.08006738  0.24633154  0.45167851  1
  Se  Se152  1  0.08615464  0.26247293  0.93923061  1
  Se  Se153  1  0.08146587  0.58748044  0.44264320  1
  Se  Se154  1  0.07183419  0.59498394  0.94209223  1
  Se  Se155  1  0.08804138  0.91332178  0.44285850  1
  Se  Se156  1  0.07144289  0.92542601  0.94543801  1
  Se  Se157  1  0.40961951  0.25670681  0.43763252  1
  Se  Se158  1  0.42514106  0.24522499  0.95195680  1
  Se  Se159  1  0.42092256  0.58577102  0.44625455  1
  Se  Se160  1  0.41517709  0.58778456  0.93702558  1
  Se  Se161  1  0.41058099  0.92446006  0.44570683  1
  Se  Se162  1  0.41236401  0.90165122  0.94348012  1
  Se  Se163  1  0.74027844  0.26027298  0.44396744  1
  Se  Se164  1  0.75402741  0.24844783  0.94318690  1
  Se  Se165  1  0.77219429  0.56691206  0.44149712  1
  Se  Se166  1  0.73822140  0.59638430  0.94300538  1
  Se  Se167  1  0.75019968  0.91454201  0.43992794  1
  Se  Se168  1  0.75399824  0.90839124  0.94853271  1
  Se  Se169  1  0.24846259  0.08611235  0.44836384  1
  Se  Se170  1  0.25992473  0.07517330  0.93890365  1
  Se  Se171  1  0.25376867  0.41167274  0.44211653  1
  Se  Se172  1  0.26462118  0.40858190  0.94150638  1
  Se  Se173  1  0.25293454  0.75229913  0.45135704  1
  Se  Se174  1  0.25066055  0.74378378  0.93664146  1
  Se  Se175  1  0.58459164  0.08004619  0.44066587  1
  Se  Se176  1  0.58670791  0.07870194  0.95062641  1
  Se  Se177  1  0.57717863  0.42252238  0.45505884  1
  Se  Se178  1  0.58968233  0.41413481  0.93657607  1
  Se  Se179  1  0.59386341  0.74197572  0.43957255  1
  Se  Se180  1  0.56801307  0.75448693  0.94504843  1
  Se  Se181  1  0.92143845  0.07430802  0.43449991  1
  Se  Se182  1  0.92154435  0.08271045  0.95308701  1
  Se  Se183  1  0.91616634  0.41265023  0.45411891  1
  Se  Se184  1  0.92429315  0.41526271  0.93789862  1
  Se  Se185  1  0.91580991  0.75143423  0.44159115  1
  Se  Se186  1  0.91234168  0.75173399  0.94417590  1
  Se  Se187  1  0.24693422  0.25323187  0.30054230  1
  Se  Se188  1  0.25758462  0.24829257  0.80290344  1
  Se  Se189  1  0.25437845  0.58748194  0.30773135  1
  Se  Se190  1  0.24480652  0.57719130  0.80125503  1
  Se  Se191  1  0.24915399  0.91437183  0.31231295  1
  Se  Se192  1  0.24333351  0.91859327  0.79747527  1
  Se  Se193  1  0.57695325  0.24428738  0.30964343  1
  Se  Se194  1  0.58995350  0.25079981  0.80512727  1
  Se  Se195  1  0.58487945  0.58170957  0.30606587  1
  Se  Se196  1  0.58711694  0.58886694  0.79771692  1
  Se  Se197  1  0.58929556  0.91752715  0.29646008  1
  Se  Se198  1  0.58057653  0.91828743  0.81805791  1
  Se  Se199  1  0.90539101  0.23928068  0.30341223  1
  Se  Se200  1  0.92320708  0.25592930  0.80548890  1
  Se  Se201  1  0.92061264  0.58555002  0.30245452  1
  Se  Se202  1  0.91656123  0.58914639  0.80271352  1
  Se  Se203  1  0.92397635  0.91713359  0.30035373  1
  Se  Se204  1  0.90398414  0.91036380  0.80706342  1
  Se  Se205  1  0.08130248  0.08375837  0.30067792  1
  Se  Se206  1  0.08934345  0.09255761  0.81511292  1
  Se  Se207  1  0.08708789  0.42459936  0.31754664  1
  Se  Se208  1  0.08467871  0.41581828  0.79949713  1
  Se  Se209  1  0.08502647  0.74732381  0.30546169  1
  Se  Se210  1  0.07541338  0.75094600  0.80053608  1
  Se  Se211  1  0.42462312  0.08864645  0.30932276  1
  Se  Se212  1  0.42224536  0.08430656  0.80905109  1
  Se  Se213  1  0.41635546  0.41668884  0.30235760  1
  Se  Se214  1  0.42158817  0.41253315  0.80323171  1
  Se  Se215  1  0.41955153  0.75346246  0.30144032  1
  Se  Se216  1  0.38751576  0.72185097  0.80617277  1
  Se  Se217  1  0.74330408  0.07653480  0.29625825  1
  Se  Se218  1  0.75903609  0.08627007  0.81285986  1
  Se  Se219  1  0.75135917  0.42115430  0.31302447  1
  Se  Se220  1  0.75032265  0.42082867  0.80223458  1
  Se  Se221  1  0.75269288  0.74912265  0.30132605  1
  Se  Se222  1  0.74276831  0.74995275  0.80334076  1
  Se  Se223  1  0.24691838  0.09227396  0.18748405  1
  Se  Se224  1  0.25025683  0.07917952  0.69603847  1
  Se  Se225  1  0.24778512  0.41879541  0.20006804  1
  Se  Se226  1  0.25556687  0.41269941  0.69537558  1
  Se  Se227  1  0.25422170  0.74994826  0.20094658  1
  Se  Se228  1  0.24554664  0.74742825  0.69554319  1
  Se  Se229  1  0.58421737  0.07883777  0.19408005  1
  Se  Se230  1  0.57580561  0.08779049  0.68813414  1
  Se  Se231  1  0.57257165  0.42695931  0.18594849  1
  Se  Se232  1  0.58847310  0.41857707  0.69379664  1
  Se  Se233  1  0.58902895  0.74531088  0.19336785  1
  Se  Se234  1  0.55942122  0.77742500  0.69880847  1
  Se  Se235  1  0.91852491  0.07759371  0.19013686  1
  Se  Se236  1  0.90892865  0.09121726  0.69486452  1
  Se  Se237  1  0.90575952  0.42214320  0.19157805  1
  Se  Se238  1  0.91883798  0.41768378  0.70114983  1
  Se  Se239  1  0.92476250  0.74435047  0.20155077  1
  Se  Se240  1  0.91646160  0.74827158  0.69363121  1
  Se  Se241  1  0.08102970  0.24213756  0.18482540  1
  Se  Se242  1  0.08515404  0.24727717  0.69930451  1
  Se  Se243  1  0.08314012  0.58176960  0.20174989  1
  Se  Se244  1  0.08091244  0.58590942  0.69673842  1
  Se  Se245  1  0.08628849  0.91748844  0.20020740  1
  Se  Se246  1  0.08025794  0.91148847  0.68516884  1
  Se  Se247  1  0.41544681  0.25182616  0.19658100  1
  Se  Se248  1  0.42049449  0.24871069  0.69741375  1
  Se  Se249  1  0.41429141  0.58972326  0.19652999  1
  Se  Se250  1  0.41657075  0.57995015  0.70047004  1
  Se  Se251  1  0.42464131  0.90850092  0.18474099  1
  Se  Se252  1  0.41170999  0.91181533  0.70887483  1
  Se  Se253  1  0.75189798  0.24394876  0.18692294  1
  Se  Se254  1  0.74554203  0.25337875  0.70408841  1
  Se  Se255  1  0.74442724  0.58697641  0.20356450  1
  Se  Se256  1  0.74973221  0.58784922  0.69379025  1
  Se  Se257  1  0.75322903  0.91268310  0.19321115  1
  Se  Se258  1  0.74940363  0.90899474  0.68553981  1
