# generated using pymatgen
data_In86Cu29Se144
_symmetry_space_group_name_H-M   'P 1'
_cell_length_a   17.57745432
_cell_length_b   17.58252973
_cell_length_c   23.44566329
_cell_angle_alpha   89.98180027
_cell_angle_beta   89.99333847
_cell_angle_gamma   90.01030842
_symmetry_Int_Tables_number   1
_chemical_formula_structural   In86Cu29Se144
_chemical_formula_sum   'In86 Cu29 Se144'
_cell_volume   7246.02503245
_cell_formula_units_Z   1
loop_
 _symmetry_equiv_pos_site_id
 _symmetry_equiv_pos_as_xyz
  1  'x, y, z'
loop_
 _atom_site_type_symbol
 _atom_site_label
 _atom_site_symmetry_multiplicity
 _atom_site_fract_x
 _atom_site_fract_y
 _atom_site_fract_z
 _atom_site_occupancy
  In  In0  1  0.00815701  0.17538838  0.12477056  1
  In  In1  1  -0.00734439  0.16882993  0.63193139  1
  In  In2  1  0.00662625  0.49516982  0.12784136  1
  In  In3  1  -0.00630343  0.50670755  0.62961561  1
  In  In4  1  -0.01670428  0.83560636  0.12658188  1
  In  In5  1  -0.00415004  0.82892248  0.62499874  1
  In  In6  1  0.34559084  0.16929320  0.12403136  1
  In  In7  1  0.34078610  0.15878819  0.62984516  1
  In  In8  1  0.32228618  0.50068264  0.12351809  1
  In  In9  1  0.32627116  0.49770049  0.62812244  1
  In  In10  1  0.34264522  0.81566990  0.12393305  1
  In  In11  1  0.34838558  0.84143244  0.61527976  1
  In  In12  1  0.67457291  0.16298686  0.13935706  1
  In  In13  1  0.65939792  0.17389277  0.62697754  1
  In  In14  1  0.66764490  0.50050889  0.13267361  1
  In  In15  1  0.67133082  0.49611135  0.62738353  1
  In  In16  1  0.67221413  0.82972497  0.12841708  1
  In  In17  1  0.67133113  0.83183944  0.62582017  1
  In  In18  1  0.15655833  -0.01122054  0.37747232  1
  In  In19  1  0.16913301  0.00449310  0.86129660  1
  In  In20  1  0.16215570  0.33416919  0.37081630  1
  In  In21  1  0.16757130  0.33874745  0.87406933  1
  In  In22  1  0.16063457  0.67935184  0.38079817  1
  In  In23  1  0.14987852  0.66589574  0.87242957  1
  In  In24  1  0.51426109  -0.01287637  0.38570834  1
  In  In25  1  0.49436387  -0.00878000  0.86771729  1
  In  In26  1  0.49670133  0.32754543  0.37555957  1
  In  In27  1  0.50362349  0.34845395  0.85729181  1
  In  In28  1  0.51302283  0.66807189  0.38243963  1
  In  In29  1  0.53018954  0.67531973  0.86403527  1
  In  In30  1  0.81654547  0.00269811  0.37736006  1
  In  In31  1  0.81999779  -0.01087782  0.86308321  1
  In  In32  1  0.84129389  0.34295320  0.36723127  1
  In  In33  1  0.83483305  0.33878206  0.86754063  1
  In  In34  1  0.83060944  0.66266926  0.38035795  1
  In  In35  1  0.83295135  0.67105042  0.87232664  1
  In  In36  1  -0.01355630  0.18202613  0.37424729  1
  In  In37  1  0.00249357  0.17076995  0.86533193  1
  In  In38  1  -0.02013370  0.48741563  0.37243694  1
  In  In39  1  0.00066072  0.50363472  0.87320544  1
  In  In40  1  0.00688771  0.82345148  0.38462342  1
  In  In41  1  -0.01393303  0.81988512  0.86507514  1
  In  In42  1  0.33597257  0.18014496  0.37589945  1
  In  In43  1  0.33658466  0.17118775  0.86772950  1
  In  In44  1  0.34404486  0.49241153  0.37445906  1
  In  In45  1  0.33583276  0.48620931  0.87354680  1
  In  In46  1  0.34047879  0.82200204  0.39467506  1
  In  In47  1  0.33540819  0.84259726  0.86998808  1
  In  In48  1  0.66630624  0.15499087  0.36881857  1
  In  In49  1  0.66673848  0.16687976  0.86827334  1
  In  In50  1  0.67912172  0.51577758  0.37205739  1
  In  In51  1  0.67235626  0.50829223  0.86223347  1
  In  In52  1  0.66719284  0.82906873  0.38056686  1
  In  In53  1  0.66546503  0.83028337  0.87295543  1
  In  In54  1  0.15679529  -0.00266744  0.12107817  1
  In  In55  1  0.17244680  -0.00571364  0.63241885  1
  In  In56  1  0.15210120  0.35392045  0.13681314  1
  In  In57  1  0.16123284  0.33680396  0.63138520  1
  In  In58  1  0.17233806  0.65000242  0.12394768  1
  In  In59  1  0.15818876  0.66160132  0.62445779  1
  In  In60  1  0.51909609  0.00163885  0.12504198  1
  In  In61  1  0.50215932  0.00195694  0.62580310  1
  In  In62  1  0.50406110  0.32775495  0.13448697  1
  In  In63  1  0.51346619  0.32764212  0.63152360  1
  In  In64  1  0.50801843  0.67785035  0.12296211  1
  In  In65  1  0.50472695  0.68289619  0.61919829  1
  In  In66  1  0.83427020  -0.02008324  0.12323340  1
  In  In67  1  0.84148979  -0.01195612  0.63146091  1
  In  In68  1  0.83509404  0.33135377  0.13661051  1
  In  In69  1  0.83053335  0.34017023  0.62561806  1
  In  In70  1  0.82461927  0.67739637  0.13507188  1
  In  In71  1  0.82973939  0.66969764  0.62318944  1
  In  In72  1  0.82741199  0.16691728  0.49824909  1
  In  In73  1  0.83676990  0.16727280  0.00580671  1
  In  In74  1  0.17201453  0.17116147  -0.00787661  1
  In  In75  1  0.50187900  0.16547056  -0.00983796  1
  In  In76  1  0.83343892  0.50698926  -0.00614449  1
  In  In77  1  0.33453348  0.66453300  0.73896617  1
  In  In78  1  0.50087953  0.50568808  -0.00359506  1
  In  In79  1  0.50534805  0.50676526  0.50452416  1
  In  In80  1  0.33278812  0.00157498  0.25058626  1
  In  In81  1  0.16578167  0.16233053  0.49458482  1
  In  In82  1  -0.01341508  0.01120669  0.25511468  1
  In  In83  1  0.16321200  0.50517993  0.50804259  1
  In  In84  1  0.33907686  0.65962036  0.25098867  1
  In  In85  1  0.16085655  0.83027457  -0.00550692  1
  Cu  Cu86  1  0.33673540  0.00198532  0.50754857  1
  Cu  Cu87  1  0.50458609  0.83871946  0.74391944  1
  Cu  Cu88  1  0.00028149  -0.00685855  0.50484817  1
  Cu  Cu89  1  0.16150490  0.83283326  0.25682678  1
  Cu  Cu90  1  0.50065664  0.16602561  0.25349202  1
  Cu  Cu91  1  -0.00236286  0.66327410  -0.00123946  1
  Cu  Cu92  1  0.16443038  0.16885299  0.74746644  1
  Cu  Cu93  1  0.16426598  0.49995221  0.25142400  1
  Cu  Cu94  1  0.82897293  0.83097859  0.25469577  1
  Cu  Cu95  1  0.67150299  -0.01706504  -0.00090874  1
  Cu  Cu96  1  -0.00747220  0.66395161  0.50340611  1
  Cu  Cu97  1  0.83473195  0.50106724  0.74740709  1
  Cu  Cu98  1  0.83371026  0.50675659  0.25152176  1
  Cu  Cu99  1  0.82981434  0.82804227  0.74656836  1
  Cu  Cu100  1  0.66568190  0.33602645  0.50227962  1
  Cu  Cu101  1  0.16877728  0.17504507  0.25064833  1
  Cu  Cu102  1  0.50034213  0.16572993  0.74834569  1
  Cu  Cu103  1  0.66525982  0.33435962  0.00299886  1
  Cu  Cu104  1  0.33525367  0.32793761  0.50160080  1
  Cu  Cu105  1  0.51009483  0.83672197  0.25351208  1
  Cu  Cu106  1  0.33863135  0.66277756  -0.00284739  1
  Cu  Cu107  1  -0.00843961  -0.00363537  -0.01073118  1
  Cu  Cu108  1  0.32835795  0.33710837  -0.00036242  1
  Cu  Cu109  1  0.16359601  0.49774081  0.74987475  1
  Cu  Cu110  1  0.33907017  -0.01449493  -0.00463054  1
  Cu  Cu111  1  0.66396363  -0.00385128  0.50320707  1
  Cu  Cu112  1  0.82916713  0.16779219  0.74622499  1
  Cu  Cu113  1  0.16206679  0.83600078  0.74749981  1
  Cu  Cu114  1  0.50532087  0.49445389  0.25524631  1
  Se  Se115  1  0.07252508  0.07685790  0.04857017  1
  Se  Se116  1  0.07747912  0.07916785  0.56151763  1
  Se  Se117  1  0.09074855  0.42408454  0.05393485  1
  Se  Se118  1  0.07224935  0.41002237  0.55923799  1
  Se  Se119  1  0.07753136  0.74399727  0.06227415  1
  Se  Se120  1  0.07937340  0.74561489  0.55504459  1
  Se  Se121  1  0.41445478  0.07134904  0.05443898  1
  Se  Se122  1  0.42201367  0.08782871  0.55472685  1
  Se  Se123  1  0.41718729  0.40944755  0.05999987  1
  Se  Se124  1  0.41332468  0.41122333  0.56023452  1
  Se  Se125  1  0.42230108  0.74695946  0.04790314  1
  Se  Se126  1  0.41594066  0.74797268  0.54742485  1
  Se  Se127  1  0.74127762  0.07380132  0.05893833  1
  Se  Se128  1  0.74648874  0.07566832  0.56371129  1
  Se  Se129  1  0.74892249  0.41305780  0.05957039  1
  Se  Se130  1  0.75059591  0.41872434  0.55256024  1
  Se  Se131  1  0.76317072  0.76003967  0.05793855  1
  Se  Se132  1  0.76445563  0.76658204  0.55509442  1
  Se  Se133  1  0.25404264  0.25533853  0.06220309  1
  Se  Se134  1  0.24976250  0.25165526  0.56060908  1
  Se  Se135  1  0.25202347  0.58069413  0.04682235  1
  Se  Se136  1  0.26266263  0.59550954  0.55696219  1
  Se  Se137  1  0.25590687  0.91505333  0.05966942  1
  Se  Se138  1  0.24836374  0.91957881  0.55587805  1
  Se  Se139  1  0.58949098  0.24728874  0.05959934  1
  Se  Se140  1  0.58135267  0.25044832  0.55126649  1
  Se  Se141  1  0.59532982  0.58901355  0.05686990  1
  Se  Se142  1  0.59988956  0.59618002  0.55771593  1
  Se  Se143  1  0.58459610  0.90857294  0.05643386  1
  Se  Se144  1  0.58220117  0.91414776  0.55881982  1
  Se  Se145  1  0.92569996  0.26518656  0.05777639  1
  Se  Se146  1  0.92037434  0.25414469  0.55646758  1
  Se  Se147  1  0.91761441  0.58950501  0.06379097  1
  Se  Se148  1  0.91108330  0.57929590  0.55605968  1
  Se  Se149  1  0.91598428  0.91161025  0.04632973  1
  Se  Se150  1  0.91280895  0.91097236  0.55377902  1
  Se  Se151  1  0.07368995  0.26056484  0.44590561  1
  Se  Se152  1  0.07223653  0.25791866  0.94241990  1
  Se  Se153  1  0.07209352  0.58358732  0.44068870  1
  Se  Se154  1  0.08243188  0.58136554  0.94747344  1
  Se  Se155  1  0.08689002  0.91039624  0.45371835  1
  Se  Se156  1  0.07798510  0.92129367  0.93067359  1
  Se  Se157  1  0.42145577  0.24616189  0.45099403  1
  Se  Se158  1  0.41408991  0.26526243  0.93792095  1
  Se  Se159  1  0.40822174  0.59032742  0.44286166  1
  Se  Se160  1  0.41656698  0.59160992  0.92969379  1
  Se  Se161  1  0.41962132  0.91825714  0.45322603  1
  Se  Se162  1  0.42547959  0.90643506  0.94392924  1
  Se  Se163  1  0.74173759  0.25743698  0.43669015  1
  Se  Se164  1  0.74598582  0.25503036  0.94221489  1
  Se  Se165  1  0.74664097  0.58622684  0.45206942  1
  Se  Se166  1  0.73574154  0.59483504  0.94162861  1
  Se  Se167  1  0.74992545  0.91541072  0.45023065  1
  Se  Se168  1  0.75694555  0.90784179  0.94227122  1
  Se  Se169  1  0.25969540  0.07182373  0.43699006  1
  Se  Se170  1  0.26206697  0.07171855  0.93925982  1
  Se  Se171  1  0.25378372  0.41103137  0.44529655  1
  Se  Se172  1  0.24648121  0.42071981  0.94694193  1
  Se  Se173  1  0.24121743  0.75086139  0.45363739  1
  Se  Se174  1  0.25591775  0.74236731  0.93603335  1
  Se  Se175  1  0.58828445  0.08569419  0.44819044  1
  Se  Se176  1  0.59520420  0.06934799  0.93986079  1
  Se  Se177  1  0.58791849  0.41685191  0.43901561  1
  Se  Se178  1  0.59158567  0.41264954  0.93828857  1
  Se  Se179  1  0.57066630  0.76548128  0.45058131  1
  Se  Se180  1  0.57960518  0.75609748  0.94546336  1
  Se  Se181  1  0.92544999  0.07542172  0.44190477  1
  Se  Se182  1  0.91400088  0.08173696  0.93309937  1
  Se  Se183  1  0.90668863  0.41455193  0.44971067  1
  Se  Se184  1  0.92206020  0.40872044  0.94299672  1
  Se  Se185  1  0.91256844  0.74987102  0.44902090  1
  Se  Se186  1  0.91598994  0.74763906  0.94588935  1
  Se  Se187  1  0.25255531  0.25577415  0.30474863  1
  Se  Se188  1  0.24529334  0.25082740  0.80541293  1
  Se  Se189  1  0.24374112  0.57810870  0.31425365  1
  Se  Se190  1  0.24493276  0.58189970  0.80774689  1
  Se  Se191  1  0.25100830  0.90556645  0.31313102  1
  Se  Se192  1  0.25202686  0.91615821  0.79765177  1
  Se  Se193  1  0.58346170  0.24859962  0.30746652  1
  Se  Se194  1  0.58432516  0.25032391  0.80101665  1
  Se  Se195  1  0.58075755  0.58644332  0.30567247  1
  Se  Se196  1  0.56517422  0.56368858  0.79987437  1
  Se  Se197  1  0.59238136  0.91874455  0.30747834  1
  Se  Se198  1  0.58773564  0.91769267  0.80217168  1
  Se  Se199  1  0.91044947  0.24967773  0.29779242  1
  Se  Se200  1  0.91346935  0.25120181  0.80042775  1
  Se  Se201  1  0.91696634  0.58853824  0.30668517  1
  Se  Se202  1  0.91437786  0.58375077  0.80605622  1
  Se  Se203  1  0.91206949  0.90984827  0.31581395  1
  Se  Se204  1  0.91499385  0.91418856  0.79853196  1
  Se  Se205  1  0.09043700  0.09426448  0.31218054  1
  Se  Se206  1  0.07887993  0.08268195  0.79718884  1
  Se  Se207  1  0.07892005  0.41860727  0.30544512  1
  Se  Se208  1  0.08000793  0.41613686  0.80525152  1
  Se  Se209  1  0.07718377  0.74688215  0.30458042  1
  Se  Se210  1  0.08050836  0.74813392  0.79773232  1
  Se  Se211  1  0.42314153  0.08350570  0.31477194  1
  Se  Se212  1  0.41641413  0.08284006  0.80275362  1
  Se  Se213  1  0.41740129  0.41058961  0.30237605  1
  Se  Se214  1  0.40366739  0.41321761  0.79433479  1
  Se  Se215  1  0.42182967  0.75791180  0.30941532  1
  Se  Se216  1  0.42260947  0.75432573  0.80315627  1
  Se  Se217  1  0.76370359  0.09082571  0.30078820  1
  Se  Se218  1  0.74544459  0.08354546  0.79867430  1
  Se  Se219  1  0.74869928  0.42262244  0.30351547  1
  Se  Se220  1  0.74940582  0.41531572  0.79861525  1
  Se  Se221  1  0.74842251  0.74710777  0.31005126  1
  Se  Se222  1  0.74586023  0.74600803  0.80197506  1
  Se  Se223  1  0.23922074  0.09015158  0.18781831  1
  Se  Se224  1  0.25088357  0.08417125  0.69816122  1
  Se  Se225  1  0.25492204  0.41908300  0.20080062  1
  Se  Se226  1  0.24926949  0.41496098  0.69888461  1
  Se  Se227  1  0.24239342  0.75378700  0.19494064  1
  Se  Se228  1  0.24472898  0.76021410  0.68471216  1
  Se  Se229  1  0.58487728  0.08011105  0.20292974  1
  Se  Se230  1  0.58536122  0.08330723  0.69586664  1
  Se  Se231  1  0.58757889  0.41284942  0.19897077  1
  Se  Se232  1  0.58581387  0.41910768  0.69699660  1
  Se  Se233  1  0.58719612  0.74860465  0.19918032  1
  Se  Se234  1  0.58676658  0.74980940  0.69653237  1
  Se  Se235  1  0.90764132  0.09130412  0.18151665  1
  Se  Se236  1  0.91519147  0.08097657  0.69883613  1
  Se  Se237  1  0.91752231  0.42270848  0.19798483  1
  Se  Se238  1  0.91811875  0.41490439  0.69682297  1
  Se  Se239  1  0.91827860  0.75194221  0.20257845  1
  Se  Se240  1  0.91695159  0.74504711  0.69604023  1
  Se  Se241  1  0.08005034  0.25508548  0.19989540  1
  Se  Se242  1  0.07829451  0.25234449  0.69772192  1
  Se  Se243  1  0.08424383  0.58518200  0.19711274  1
  Se  Se244  1  0.08155810  0.58452422  0.69893798  1
  Se  Se245  1  0.08299496  0.91589382  0.19761136  1
  Se  Se246  1  0.07640797  0.91718614  0.69411289  1
  Se  Se247  1  0.41477205  0.24767684  0.20082034  1
  Se  Se248  1  0.41764978  0.25058760  0.69523140  1
  Se  Se249  1  0.42945056  0.57283158  0.18735204  1
  Se  Se250  1  0.43013672  0.57745201  0.68384174  1
  Se  Se251  1  0.42368660  0.90930578  0.19127021  1
  Se  Se252  1  0.41517334  0.91988521  0.69471817  1
  Se  Se253  1  0.73845537  0.26398895  0.20062654  1
  Se  Se254  1  0.74856230  0.25379520  0.69268354  1
  Se  Se255  1  0.74585546  0.58761129  0.20038707  1
  Se  Se256  1  0.75100284  0.58469845  0.69477938  1
  Se  Se257  1  0.74983863  0.91700576  0.19992383  1
  Se  Se258  1  0.74697059  0.91766544  0.69889491  1
