# generated using pymatgen
data_In86Cu29Se144
_symmetry_space_group_name_H-M   'P 1'
_cell_length_a   17.57086799
_cell_length_b   17.57960738
_cell_length_c   23.43332553
_cell_angle_alpha   90.01805327
_cell_angle_beta   89.99304258
_cell_angle_gamma   89.99910491
_symmetry_Int_Tables_number   1
_chemical_formula_structural   In86Cu29Se144
_chemical_formula_sum   'In86 Cu29 Se144'
_cell_volume   7238.29515610
_cell_formula_units_Z   1
loop_
 _symmetry_equiv_pos_site_id
 _symmetry_equiv_pos_as_xyz
  1  'x, y, z'
loop_
 _atom_site_type_symbol
 _atom_site_label
 _atom_site_symmetry_multiplicity
 _atom_site_fract_x
 _atom_site_fract_y
 _atom_site_fract_z
 _atom_site_occupancy
  In  In0  1  -0.00139850  0.17019847  0.12490729  1
  In  In1  1  0.00605813  0.16913840  0.61768217  1
  In  In2  1  0.00219453  0.48572931  0.12727705  1
  In  In3  1  0.00843466  0.50109484  0.61846472  1
  In  In4  1  -0.00008239  0.85164684  0.12722033  1
  In  In5  1  -0.01064827  0.82484298  0.62618959  1
  In  In6  1  0.32178454  0.14934988  0.10667084  1
  In  In7  1  0.33157336  0.16351492  0.63282050  1
  In  In8  1  0.32926869  0.50912238  0.11590527  1
  In  In9  1  0.33461035  0.50085526  0.63689180  1
  In  In10  1  0.34785421  0.84289430  0.11558570  1
  In  In11  1  0.33434276  0.82675475  0.64080821  1
  In  In12  1  0.65299062  0.15144912  0.11547628  1
  In  In13  1  0.66775518  0.16746009  0.61871132  1
  In  In14  1  0.68071609  0.50140572  0.12613880  1
  In  In15  1  0.66497530  0.49033246  0.63548628  1
  In  In16  1  0.67049749  0.83549638  0.12536840  1
  In  In17  1  0.65600346  0.84129777  0.62600778  1
  In  In18  1  0.17465807  0.01510111  0.36528553  1
  In  In19  1  0.18586389  0.00818473  0.87458440  1
  In  In20  1  0.16329445  0.33681778  0.38324597  1
  In  In21  1  0.18328713  0.31800880  0.87643986  1
  In  In22  1  0.16260756  0.65980369  0.38033510  1
  In  In23  1  0.15433161  0.66598205  0.86784511  1
  In  In24  1  0.50947352  0.00890131  0.36524729  1
  In  In25  1  0.47019644  0.01759477  0.89703080  1
  In  In26  1  0.49031478  0.32713300  0.37800516  1
  In  In27  1  0.47232447  0.30300493  0.83701042  1
  In  In28  1  0.51219319  0.66503203  0.37806244  1
  In  In29  1  0.50758100  0.67235825  0.87013834  1
  In  In30  1  0.83800802  0.00618077  0.36340851  1
  In  In31  1  0.82574127  0.00383917  0.88811721  1
  In  In32  1  0.84153680  0.32186191  0.38271731  1
  In  In33  1  0.82003517  0.33322986  0.86981706  1
  In  In34  1  0.82538561  0.67323316  0.37973112  1
  In  In35  1  0.83098509  0.66874075  0.87385507  1
  In  In36  1  -0.00147635  0.16903613  0.37004233  1
  In  In37  1  0.00422297  0.16167309  0.88092541  1
  In  In38  1  0.00990135  0.48589408  0.38526727  1
  In  In39  1  -0.00064813  0.51192766  0.87301565  1
  In  In40  1  -0.01610240  0.84673094  0.36751264  1
  In  In41  1  -0.00163655  0.82125204  0.87902365  1
  In  In42  1  0.34243370  0.15870124  0.38450451  1
  In  In43  1  0.33268260  0.15997253  0.87129070  1
  In  In44  1  0.32950854  0.48944215  0.38399257  1
  In  In45  1  0.33013059  0.48367180  0.85806933  1
  In  In46  1  0.32263058  0.83961940  0.37443272  1
  In  In47  1  0.34682674  0.85588917  0.86503120  1
  In  In48  1  0.67703662  0.15302271  0.39027820  1
  In  In49  1  0.65662763  0.17060861  0.87529208  1
  In  In50  1  0.67134327  0.51766295  0.37757550  1
  In  In51  1  0.65207271  0.48965498  0.85708023  1
  In  In52  1  0.68306168  0.83959666  0.35850947  1
  In  In53  1  0.66461535  0.83139220  0.88410088  1
  In  In54  1  0.15579495  0.01116676  0.13132394  1
  In  In55  1  0.17212960  0.00927588  0.62702846  1
  In  In56  1  0.16477012  0.32498853  0.11721413  1
  In  In57  1  0.17496793  0.33262405  0.62587012  1
  In  In58  1  0.17589204  0.66318610  0.11620415  1
  In  In59  1  0.18538523  0.64863939  0.64546276  1
  In  In60  1  0.50112138  0.00114784  0.12603814  1
  In  In61  1  0.49246326  0.00164556  0.62502018  1
  In  In62  1  0.51003470  0.32061387  0.12258671  1
  In  In63  1  0.50806862  0.31495592  0.65126601  1
  In  In64  1  0.50783086  0.68174878  0.11444187  1
  In  In65  1  0.50579481  0.65833875  0.64922538  1
  In  In66  1  0.83085887  -0.00009266  0.12387798  1
  In  In67  1  0.82625034  0.01773128  0.61845330  1
  In  In68  1  0.84904582  0.33783042  0.12633988  1
  In  In69  1  0.82640478  0.32617536  0.61650039  1
  In  In70  1  0.81977309  0.66748924  0.12648463  1
  In  In71  1  0.84125275  0.65786883  0.63072037  1
  In  In72  1  0.83526592  0.83944912  0.49257052  1
  In  In73  1  0.49762619  0.49449886  0.51425566  1
  In  In74  1  0.01149301  -0.00860715  0.75878230  1
  In  In75  1  0.50018472  0.83734929  0.50798079  1
  In  In76  1  0.00294302  0.33266475  0.74048178  1
  In  In77  1  0.83530807  0.49809185  -0.00198584  1
  In  In78  1  0.33808219  0.67630293  0.24246778  1
  In  In79  1  -0.00071608  0.66982074  0.25360113  1
  In  In80  1  0.67178082  0.32751490  0.25313097  1
  In  In81  1  0.66081258  0.00132748  0.75017064  1
  In  In82  1  0.33383010  0.33082371  0.25093343  1
  In  In83  1  0.16042473  0.83263183  0.50358555  1
  In  In84  1  0.16638324  0.83844097  -0.00450223  1
  In  In85  1  0.49691378  0.48992614  -0.01551358  1
  Cu  Cu86  1  0.16737060  0.49774279  0.25542368  1
  Cu  Cu87  1  0.66543204  0.31951295  -0.00717517  1
  Cu  Cu88  1  0.82821849  0.50167713  0.75044127  1
  Cu  Cu89  1  0.16365577  0.17178960  0.24636675  1
  Cu  Cu90  1  0.50973940  0.51066732  0.25106088  1
  Cu  Cu91  1  0.83577716  0.16818047  0.74309305  1
  Cu  Cu92  1  0.66712427  -0.00843392  0.00510498  1
  Cu  Cu93  1  0.34007635  0.32959985  -0.01183332  1
  Cu  Cu94  1  0.83840337  0.50197754  0.25223703  1
  Cu  Cu95  1  0.16741074  0.84393071  0.24933137  1
  Cu  Cu96  1  0.66484932  0.66388238  -0.00347464  1
  Cu  Cu97  1  0.32903825  0.32646525  0.50724150  1
  Cu  Cu98  1  0.65662972  0.33766079  0.50703255  1
  Cu  Cu99  1  -0.00392645  0.32653717  0.50051410  1
  Cu  Cu100  1  0.33472719  0.00454153  0.50198459  1
  Cu  Cu101  1  0.15695022  0.49831700  0.74964711  1
  Cu  Cu102  1  0.33216265  0.65851171  0.51457326  1
  Cu  Cu103  1  0.49684219  0.15955091  0.24997112  1
  Cu  Cu104  1  0.82940176  0.82909998  0.75397491  1
  Cu  Cu105  1  0.00811218  0.33152780  0.00031799  1
  Cu  Cu106  1  0.67115714  0.67215670  0.50318248  1
  Cu  Cu107  1  0.32422541  0.66425618  -0.00949805  1
  Cu  Cu108  1  0.50572607  0.83638745  0.75673952  1
  Cu  Cu109  1  0.50395933  0.83394327  0.24247297  1
  Cu  Cu110  1  0.00259795  0.00876808  0.49297958  1
  Cu  Cu111  1  -0.00180706  0.00678191  0.00474268  1
  Cu  Cu112  1  -0.00269314  0.66728250  -0.00426751  1
  Cu  Cu113  1  0.00604811  0.65431978  0.50490616  1
  Cu  Cu114  1  0.83078171  0.16677393  0.24696654  1
  Se  Se115  1  0.08462426  0.09035269  0.05452742  1
  Se  Se116  1  0.08818925  0.08100882  0.55260207  1
  Se  Se117  1  0.08748812  0.41987224  0.05237143  1
  Se  Se118  1  0.08266552  0.40505508  0.55611457  1
  Se  Se119  1  0.07526209  0.74798669  0.05928614  1
  Se  Se120  1  0.08257257  0.73595468  0.56591875  1
  Se  Se121  1  0.43624277  0.09395837  0.05408128  1
  Se  Se122  1  0.41507322  0.08827026  0.55695732  1
  Se  Se123  1  0.41311652  0.40612468  0.05829658  1
  Se  Se124  1  0.41093204  0.40103509  0.57065876  1
  Se  Se125  1  0.40776846  0.74260784  0.04774886  1
  Se  Se126  1  0.41706219  0.74049505  0.56760511  1
  Se  Se127  1  0.75136922  0.08219170  0.05129905  1
  Se  Se128  1  0.74754448  0.08986842  0.54570452  1
  Se  Se129  1  0.74229133  0.40223186  0.05432825  1
  Se  Se130  1  0.74297682  0.42129856  0.55687741  1
  Se  Se131  1  0.74636590  0.74646157  0.05221002  1
  Se  Se132  1  0.75030683  0.75459652  0.56266659  1
  Se  Se133  1  0.25441894  0.25384043  0.04725056  1
  Se  Se134  1  0.24706160  0.23936821  0.55837989  1
  Se  Se135  1  0.24368742  0.57740359  0.04194719  1
  Se  Se136  1  0.24804087  0.57331794  0.56224683  1
  Se  Se137  1  0.24819198  0.92757556  0.06081302  1
  Se  Se138  1  0.26202658  0.91357082  0.55978677  1
  Se  Se139  1  0.57787157  0.24118778  0.04589257  1
  Se  Se140  1  0.57378867  0.25675050  0.56202415  1
  Se  Se141  1  0.58709133  0.57556586  0.05410142  1
  Se  Se142  1  0.58749114  0.59517564  0.56375415  1
  Se  Se143  1  0.57980115  0.91140143  0.05764534  1
  Se  Se144  1  0.59504136  0.93683823  0.55331832  1
  Se  Se145  1  0.91824375  0.25384248  0.05246979  1
  Se  Se146  1  0.91217828  0.24154159  0.55164378  1
  Se  Se147  1  0.92315885  0.58709893  0.06230292  1
  Se  Se148  1  0.91283558  0.57824471  0.55429913  1
  Se  Se149  1  0.91560099  0.91783542  0.05229906  1
  Se  Se150  1  0.92535665  0.92853940  0.55633682  1
  Se  Se151  1  0.08038629  0.24573997  0.44439287  1
  Se  Se152  1  0.08946834  0.24771516  0.94475321  1
  Se  Se153  1  0.09262728  0.57398852  0.45179702  1
  Se  Se154  1  0.08309595  0.58436127  0.94624821  1
  Se  Se155  1  0.07937301  0.92234772  0.43541413  1
  Se  Se156  1  0.07415170  0.92950618  0.93746163  1
  Se  Se157  1  0.41674045  0.24941060  0.45290031  1
  Se  Se158  1  0.42364118  0.24997224  0.93298662  1
  Se  Se159  1  0.41396148  0.58876488  0.44617956  1
  Se  Se160  1  0.40740362  0.58598865  0.93140314  1
  Se  Se161  1  0.41206683  0.92167704  0.44107527  1
  Se  Se162  1  0.40734199  0.91080133  0.95546168  1
  Se  Se163  1  0.74160468  0.25881072  0.44985551  1
  Se  Se164  1  0.75552781  0.24170186  0.94147341  1
  Se  Se165  1  0.75494055  0.58619358  0.45318308  1
  Se  Se166  1  0.73776111  0.57611602  0.93679786  1
  Se  Se167  1  0.74293462  0.92901553  0.43719262  1
  Se  Se168  1  0.75283064  0.90902703  0.95270453  1
  Se  Se169  1  0.24637831  0.08245053  0.44806160  1
  Se  Se170  1  0.25628428  0.08667478  0.94944810  1
  Se  Se171  1  0.24842000  0.41437840  0.45523998  1
  Se  Se172  1  0.25563673  0.41708849  0.94014705  1
  Se  Se173  1  0.25998840  0.73962646  0.44792148  1
  Se  Se174  1  0.25033319  0.74983721  0.93154522  1
  Se  Se175  1  0.56276992  0.09591480  0.44404786  1
  Se  Se176  1  0.59147515  0.07393032  0.94420601  1
  Se  Se177  1  0.58459854  0.41746423  0.43935993  1
  Se  Se178  1  0.58656697  0.39702630  0.93082094  1
  Se  Se179  1  0.59625151  0.75603776  0.44240271  1
  Se  Se180  1  0.57628133  0.74879482  0.95071723  1
  Se  Se181  1  0.91425404  0.08459656  0.43845050  1
  Se  Se182  1  0.91432127  0.08926643  0.95001504  1
  Se  Se183  1  0.91354547  0.41524344  0.45074738  1
  Se  Se184  1  0.92473673  0.40663548  0.93705332  1
  Se  Se185  1  0.93437404  0.74256125  0.44353539  1
  Se  Se186  1  0.90814366  0.74889161  0.94871977  1
  Se  Se187  1  0.24528270  0.24376570  0.31300790  1
  Se  Se188  1  0.27158075  0.26003935  0.79940043  1
  Se  Se189  1  0.25357077  0.58088509  0.30811039  1
  Se  Se190  1  0.24202435  0.57931727  0.80404212  1
  Se  Se191  1  0.25548712  0.92415460  0.30032850  1
  Se  Se192  1  0.23495570  0.90752597  0.80454252  1
  Se  Se193  1  0.57527170  0.24223383  0.31025851  1
  Se  Se194  1  0.59630007  0.24934637  0.79475106  1
  Se  Se195  1  0.59237620  0.59360425  0.30241833  1
  Se  Se196  1  0.59727859  0.60145504  0.80070721  1
  Se  Se197  1  0.58504718  0.91691527  0.29950040  1
  Se  Se198  1  0.57690423  0.92060775  0.81945496  1
  Se  Se199  1  0.91235864  0.25166775  0.30139055  1
  Se  Se200  1  0.91599812  0.24439710  0.80641346  1
  Se  Se201  1  0.91803161  0.57673990  0.31763941  1
  Se  Se202  1  0.91136210  0.58402289  0.80373654  1
  Se  Se203  1  0.89769177  0.90802880  0.29375548  1
  Se  Se204  1  0.90454714  0.91409647  0.81399287  1
  Se  Se205  1  0.07990702  0.08591831  0.29912662  1
  Se  Se206  1  0.09669135  0.09588612  0.80638271  1
  Se  Se207  1  0.08553836  0.41297137  0.30674748  1
  Se  Se208  1  0.08528185  0.41359397  0.81295552  1
  Se  Se209  1  0.09404093  0.76158800  0.31266209  1
  Se  Se210  1  0.07266523  0.75178379  0.80160456  1
  Se  Se211  1  0.40813642  0.08139217  0.30356099  1
  Se  Se212  1  0.41682638  0.07388220  0.80514936  1
  Se  Se213  1  0.42607449  0.43011243  0.30700283  1
  Se  Se214  1  0.44840359  0.44003032  0.80085959  1
  Se  Se215  1  0.42670328  0.75881918  0.31143700  1
  Se  Se216  1  0.41697055  0.75301109  0.80495072  1
  Se  Se217  1  0.74376988  0.09097346  0.30344236  1
  Se  Se218  1  0.75949861  0.08766549  0.80667214  1
  Se  Se219  1  0.75671745  0.42248041  0.31371918  1
  Se  Se220  1  0.74579842  0.40966932  0.79425092  1
  Se  Se221  1  0.75824561  0.74289327  0.29884298  1
  Se  Se222  1  0.74320694  0.75253722  0.80922290  1
  Se  Se223  1  0.25129185  0.09079353  0.19383630  1
  Se  Se224  1  0.26615515  0.06382621  0.69966073  1
  Se  Se225  1  0.24813157  0.42488441  0.18988332  1
  Se  Se226  1  0.24568399  0.41585424  0.70052920  1
  Se  Se227  1  0.24234519  0.76416496  0.18526013  1
  Se  Se228  1  0.23856856  0.75823159  0.70515011  1
  Se  Se229  1  0.58609600  0.08052785  0.19819673  1
  Se  Se230  1  0.57413886  0.09426081  0.69197006  1
  Se  Se231  1  0.58081858  0.42154798  0.19173750  1
  Se  Se232  1  0.55299920  0.44086478  0.69694409  1
  Se  Se233  1  0.58626236  0.74652587  0.19302614  1
  Se  Se234  1  0.59118188  0.75726828  0.70176957  1
  Se  Se235  1  0.91501841  0.08584153  0.19177872  1
  Se  Se236  1  0.92145123  0.08335472  0.69255442  1
  Se  Se237  1  0.92170405  0.41562161  0.20347856  1
  Se  Se238  1  0.90715354  0.42235230  0.68658151  1
  Se  Se239  1  0.91410786  0.75437918  0.18822590  1
  Se  Se240  1  0.91442526  0.74723332  0.70124522  1
  Se  Se241  1  0.08235744  0.25679944  0.19348195  1
  Se  Se242  1  0.09628913  0.23504780  0.69350989  1
  Se  Se243  1  0.09366814  0.58200457  0.19276343  1
  Se  Se244  1  0.07225447  0.58153528  0.69797933  1
  Se  Se245  1  0.07830631  0.92593061  0.20201442  1
  Se  Se246  1  0.08704030  0.90794910  0.68538857  1
  Se  Se247  1  0.41893525  0.24046979  0.18882176  1
  Se  Se248  1  0.39354167  0.25904605  0.70726881  1
  Se  Se249  1  0.42771276  0.58031062  0.18542706  1
  Se  Se250  1  0.39066693  0.60646603  0.70203751  1
  Se  Se251  1  0.41569026  0.91765304  0.19565412  1
  Se  Se252  1  0.42408487  0.91562464  0.69839409  1
  Se  Se253  1  0.75253582  0.24437118  0.18241779  1
  Se  Se254  1  0.74911148  0.24821816  0.69128760  1
  Se  Se255  1  0.75124601  0.58205630  0.20146723  1
  Se  Se256  1  0.74567909  0.58577902  0.69624360  1
  Se  Se257  1  0.74719686  0.92181445  0.19390649  1
  Se  Se258  1  0.76084120  0.91570167  0.69007351  1
