# generated using pymatgen
data_In86Cu29Se144
_symmetry_space_group_name_H-M   'P 1'
_cell_length_a   17.57662092
_cell_length_b   17.57920315
_cell_length_c   23.43655899
_cell_angle_alpha   89.99096366
_cell_angle_beta   89.98635055
_cell_angle_gamma   90.01835500
_symmetry_Int_Tables_number   1
_chemical_formula_structural   In86Cu29Se144
_chemical_formula_sum   'In86 Cu29 Se144'
_cell_volume   7241.49739783
_cell_formula_units_Z   1
loop_
 _symmetry_equiv_pos_site_id
 _symmetry_equiv_pos_as_xyz
  1  'x, y, z'
loop_
 _atom_site_type_symbol
 _atom_site_label
 _atom_site_symmetry_multiplicity
 _atom_site_fract_x
 _atom_site_fract_y
 _atom_site_fract_z
 _atom_site_occupancy
  In  In0  1  -0.00245867  0.16059078  0.11490003  1
  In  In1  1  -0.01028180  0.15568663  0.61920611  1
  In  In2  1  0.00359819  0.52424657  0.12184129  1
  In  In3  1  0.00341790  0.51415076  0.62847758  1
  In  In4  1  -0.00501916  0.83002229  0.11754384  1
  In  In5  1  0.01226474  0.83087968  0.63697720  1
  In  In6  1  0.32007369  0.16355525  0.12311048  1
  In  In7  1  0.33123547  0.16744227  0.62554657  1
  In  In8  1  0.33698024  0.49035077  0.11912376  1
  In  In9  1  0.30919471  0.51240194  0.65112155  1
  In  In10  1  0.34172105  0.84181499  0.11369913  1
  In  In11  1  0.29554245  0.86334293  0.66048037  1
  In  In12  1  0.68154719  0.15687406  0.14206994  1
  In  In13  1  0.65335591  0.16280909  0.61101577  1
  In  In14  1  0.66934329  0.50206039  0.12450919  1
  In  In15  1  0.67396062  0.50283962  0.62633610  1
  In  In16  1  0.65884533  0.84136447  0.12848488  1
  In  In17  1  0.66576496  0.83180057  0.63271118  1
  In  In18  1  0.17084094  -0.00427472  0.38244155  1
  In  In19  1  0.16910775  -0.01019472  0.87049883  1
  In  In20  1  0.15689116  0.32465118  0.37610587  1
  In  In21  1  0.16645824  0.31783365  0.87286340  1
  In  In22  1  0.16948386  0.67388651  0.37613367  1
  In  In23  1  0.19022368  0.68873756  0.85060086  1
  In  In24  1  0.50891517  0.00959879  0.36711204  1
  In  In25  1  0.49040214  -0.01489655  0.86713724  1
  In  In26  1  0.50456763  0.32183772  0.37753314  1
  In  In27  1  0.50309238  0.34253932  0.87839716  1
  In  In28  1  0.50520978  0.65998757  0.37338850  1
  In  In29  1  0.50168599  0.66590956  0.87960023  1
  In  In30  1  0.82849513  0.01038608  0.37237146  1
  In  In31  1  0.84112560  0.00639972  0.87055972  1
  In  In32  1  0.82021755  0.32274918  0.36670339  1
  In  In33  1  0.84325361  0.33029257  0.88522214  1
  In  In34  1  0.83736956  0.67147341  0.36567244  1
  In  In35  1  0.83031705  0.66643338  0.87334232  1
  In  In36  1  -0.00361659  0.16684736  0.38607758  1
  In  In37  1  0.01709042  0.14300283  0.89649821  1
  In  In38  1  -0.00401589  0.50192615  0.36921720  1
  In  In39  1  -0.00735869  0.50694151  0.87729278  1
  In  In40  1  0.01330009  0.83320475  0.37592138  1
  In  In41  1  0.02418580  0.85142502  0.85447890  1
  In  In42  1  0.34417221  0.15934479  0.38542798  1
  In  In43  1  0.32521639  0.14650727  0.86186944  1
  In  In44  1  0.34160624  0.50978269  0.37809144  1
  In  In45  1  0.34140778  0.50992323  0.86594741  1
  In  In46  1  0.31509744  0.83917941  0.38222960  1
  In  In47  1  0.33377079  0.83836500  0.87233850  1
  In  In48  1  0.66896585  0.16496093  0.37296676  1
  In  In49  1  0.68199083  0.16417303  0.87760202  1
  In  In50  1  0.66781979  0.50297048  0.36190330  1
  In  In51  1  0.66297271  0.50467479  0.88498702  1
  In  In52  1  0.66715587  0.83448371  0.36264449  1
  In  In53  1  0.65890447  0.82296904  0.87220356  1
  In  In54  1  0.17245898  0.00938888  0.11650960  1
  In  In55  1  0.16011604  0.00270871  0.62806490  1
  In  In56  1  0.17591434  0.32624953  0.12278250  1
  In  In57  1  0.17969983  0.33695684  0.62890102  1
  In  In58  1  0.15221505  0.67092995  0.12405023  1
  In  In59  1  0.14405050  0.68773020  0.65712862  1
  In  In60  1  0.50559587  -0.00454579  0.12646369  1
  In  In61  1  0.49071997  0.00769722  0.63157661  1
  In  In62  1  0.50626397  0.34636438  0.12128598  1
  In  In63  1  0.49115283  0.32159372  0.61989912  1
  In  In64  1  0.50785729  0.67690362  0.11512459  1
  In  In65  1  0.49212761  0.66912831  0.63134475  1
  In  In66  1  0.82842056  -0.00416980  0.12143289  1
  In  In67  1  0.82417442  0.00660556  0.63247631  1
  In  In68  1  0.82120611  0.32501414  0.12261684  1
  In  In69  1  0.83714628  0.32630851  0.62098628  1
  In  In70  1  0.84300451  0.66097828  0.12321351  1
  In  In71  1  0.83304823  0.66447747  0.63314947  1
  In  In72  1  0.66292533  0.33167682  0.74826774  1
  In  In73  1  -0.00251973  0.33105532  0.74909538  1
  In  In74  1  -0.00565042  -0.00409261  0.24736949  1
  In  In75  1  0.33407714  0.66979926  0.25257881  1
  In  In76  1  0.49241173  0.83543206  0.50489512  1
  In  In77  1  -0.00558434  0.33488272  0.25223599  1
  In  In78  1  0.16615890  0.50542601  -0.00596053  1
  In  In79  1  0.49633204  0.49045618  0.49908658  1
  In  In80  1  0.16745382  0.49665497  0.50245328  1
  In  In81  1  0.33589687  0.33140467  0.24432853  1
  In  In82  1  0.83911552  0.83709761  -0.00180639  1
  In  In83  1  0.50357856  0.16907875  -0.00252483  1
  In  In84  1  0.83617681  0.49284404  0.50360490  1
  In  In85  1  0.84151773  0.83771696  0.49569948  1
  Cu  Cu86  1  0.16714155  0.15916009  0.24989095  1
  Cu  Cu87  1  0.83181483  0.83325278  0.75372550  1
  Cu  Cu88  1  0.32971390  -0.00251077  -0.00729014  1
  Cu  Cu89  1  0.33319070  0.33179883  0.50657321  1
  Cu  Cu90  1  0.33406024  0.32899928  -0.00210588  1
  Cu  Cu91  1  0.50211943  0.50149882  0.75809685  1
  Cu  Cu92  1  0.16492068  0.16070877  0.75059278  1
  Cu  Cu93  1  -0.00263402  0.33781985  0.00120823  1
  Cu  Cu94  1  0.66239452  0.00974588  0.49969805  1
  Cu  Cu95  1  0.32255813  0.68011076  0.51212122  1
  Cu  Cu96  1  0.16936582  0.83647107  0.25197931  1
  Cu  Cu97  1  0.00255683  -0.00381162  0.50238478  1
  Cu  Cu98  1  0.66841886  0.66490881  -0.00051484  1
  Cu  Cu99  1  0.00648242  0.67753618  -0.00786212  1
  Cu  Cu100  1  0.83656752  0.16256923  0.75188743  1
  Cu  Cu101  1  0.50480539  0.50274110  0.24554982  1
  Cu  Cu102  1  0.33037283  0.00211444  0.50982330  1
  Cu  Cu103  1  0.83612908  0.50521949  0.24423144  1
  Cu  Cu104  1  0.67098956  0.66462872  0.49846280  1
  Cu  Cu105  1  0.33180608  0.66802633  -0.01075185  1
  Cu  Cu106  1  0.66379220  -0.00333786  0.00332208  1
  Cu  Cu107  1  -0.00019993  0.32452446  0.50037558  1
  Cu  Cu108  1  0.50185721  0.16332806  0.74431942  1
  Cu  Cu109  1  0.82495872  0.50370407  0.75514192  1
  Cu  Cu110  1  0.49269059  0.83420683  0.24387367  1
  Cu  Cu111  1  0.67096063  0.33592085  0.00361333  1
  Cu  Cu112  1  0.83165467  0.82772958  0.24151405  1
  Cu  Cu113  1  0.50546234  0.82386272  0.75349586  1
  Cu  Cu114  1  0.49960232  0.16517885  0.25427783  1
  Se  Se115  1  0.09035510  0.09135207  0.04923315  1
  Se  Se116  1  0.08471071  0.08374395  0.55301528  1
  Se  Se117  1  0.08158943  0.41549213  0.06134569  1
  Se  Se118  1  0.07247344  0.40763157  0.56263269  1
  Se  Se119  1  0.08744773  0.75774211  0.04897862  1
  Se  Se120  1  0.08391830  0.74253725  0.56653949  1
  Se  Se121  1  0.41017017  0.07825274  0.05515116  1
  Se  Se122  1  0.41852370  0.08732894  0.55572322  1
  Se  Se123  1  0.41851832  0.41403513  0.04730376  1
  Se  Se124  1  0.39915691  0.42317660  0.56751198  1
  Se  Se125  1  0.41494740  0.74822015  0.04773870  1
  Se  Se126  1  0.40247254  0.75851712  0.57140390  1
  Se  Se127  1  0.74289250  0.08234331  0.05723969  1
  Se  Se128  1  0.75362537  0.08392630  0.55359145  1
  Se  Se129  1  0.75465192  0.42183317  0.05469743  1
  Se  Se130  1  0.73771718  0.40432013  0.55612250  1
  Se  Se131  1  0.74684733  0.74942337  0.05992216  1
  Se  Se132  1  0.74835531  0.74739852  0.55735209  1
  Se  Se133  1  0.24843229  0.24596454  0.04796617  1
  Se  Se134  1  0.24575101  0.24887964  0.55549129  1
  Se  Se135  1  0.25662424  0.59296586  0.05873300  1
  Se  Se136  1  0.24878416  0.58802998  0.56542831  1
  Se  Se137  1  0.24694509  0.91641382  0.04956839  1
  Se  Se138  1  0.24944239  0.91651826  0.56278325  1
  Se  Se139  1  0.59403088  0.24985532  0.06316433  1
  Se  Se140  1  0.58405472  0.26173054  0.54954023  1
  Se  Se141  1  0.58383297  0.58062802  0.05312875  1
  Se  Se142  1  0.58612513  0.58825771  0.55650248  1
  Se  Se143  1  0.57765745  0.91215490  0.05177966  1
  Se  Se144  1  0.58867975  0.92379610  0.56060267  1
  Se  Se145  1  0.91503618  0.25351268  0.05480033  1
  Se  Se146  1  0.91139215  0.24279427  0.54961832  1
  Se  Se147  1  0.92304450  0.59255736  0.04438123  1
  Se  Se148  1  0.92181658  0.59455450  0.55509362  1
  Se  Se149  1  0.93008396  0.93421746  0.05157966  1
  Se  Se150  1  0.92172392  0.92123743  0.56619594  1
  Se  Se151  1  0.08930029  0.24277299  0.45191057  1
  Se  Se152  1  0.08333329  0.25426463  0.95073697  1
  Se  Se153  1  0.07794330  0.58492425  0.44113269  1
  Se  Se154  1  0.08897765  0.60049276  0.93072637  1
  Se  Se155  1  0.08670831  0.91263708  0.45059109  1
  Se  Se156  1  0.08386814  0.91385777  0.94197807  1
  Se  Se157  1  0.41862471  0.25332707  0.45097346  1
  Se  Se158  1  0.40797002  0.24743593  0.93373746  1
  Se  Se159  1  0.40874369  0.60327100  0.45247529  1
  Se  Se160  1  0.41718444  0.57818658  0.94590085  1
  Se  Se161  1  0.41014984  0.92887603  0.44179271  1
  Se  Se162  1  0.41869924  0.91285876  0.94691777  1
  Se  Se163  1  0.75414440  0.24381083  0.44299638  1
  Se  Se164  1  0.75145518  0.25092210  0.94969208  1
  Se  Se165  1  0.74995099  0.58599291  0.43830913  1
  Se  Se166  1  0.75580175  0.58458009  0.94801388  1
  Se  Se167  1  0.73766527  0.92088652  0.44210900  1
  Se  Se168  1  0.74301914  0.92058671  0.93826946  1
  Se  Se169  1  0.25003917  0.08373930  0.44993474  1
  Se  Se170  1  0.24657152  0.08113260  0.94082943  1
  Se  Se171  1  0.26015113  0.40859731  0.43840472  1
  Se  Se172  1  0.25553974  0.41140882  0.93675275  1
  Se  Se173  1  0.23937451  0.75520741  0.45300484  1
  Se  Se174  1  0.24773167  0.75300184  0.93972120  1
  Se  Se175  1  0.57830994  0.08890422  0.44418543  1
  Se  Se176  1  0.58633009  0.07323294  0.93709668  1
  Se  Se177  1  0.59557008  0.41488861  0.43777281  1
  Se  Se178  1  0.58349623  0.41610581  0.95215182  1
  Se  Se179  1  0.58940601  0.74867492  0.44235180  1
  Se  Se180  1  0.58312714  0.74991216  0.94997261  1
  Se  Se181  1  0.91516699  0.07461280  0.44811925  1
  Se  Se182  1  0.89683988  0.09562763  0.94727355  1
  Se  Se183  1  0.92341153  0.40481084  0.43751131  1
  Se  Se184  1  0.91658200  0.42518054  0.95047240  1
  Se  Se185  1  0.92755911  0.73982388  0.44157771  1
  Se  Se186  1  0.92630416  0.75657963  0.93071990  1
  Se  Se187  1  0.24796959  0.24220080  0.30864489  1
  Se  Se188  1  0.25058950  0.24522513  0.79999405  1
  Se  Se189  1  0.24454084  0.57442282  0.30866826  1
  Se  Se190  1  0.23995202  0.56805824  0.80092348  1
  Se  Se191  1  0.24959698  0.92174072  0.30504638  1
  Se  Se192  1  0.25423534  0.91550168  0.79817836  1
  Se  Se193  1  0.58449235  0.25050976  0.30290135  1
  Se  Se194  1  0.57761566  0.23977814  0.81149194  1
  Se  Se195  1  0.58543662  0.59121251  0.29704754  1
  Se  Se196  1  0.58733628  0.58305147  0.81024032  1
  Se  Se197  1  0.57849553  0.91570939  0.29912330  1
  Se  Se198  1  0.58760844  0.91437385  0.80219307  1
  Se  Se199  1  0.91226799  0.23254508  0.30529027  1
  Se  Se200  1  0.91641764  0.23986904  0.81340160  1
  Se  Se201  1  0.92041558  0.58626932  0.29895952  1
  Se  Se202  1  0.91459573  0.58475891  0.80315974  1
  Se  Se203  1  0.90718584  0.90407220  0.31035698  1
  Se  Se204  1  0.91663189  0.92169156  0.79940711  1
  Se  Se205  1  0.08295527  0.08499503  0.31123384  1
  Se  Se206  1  0.08171278  0.08262505  0.80835937  1
  Se  Se207  1  0.09470542  0.42267618  0.30542666  1
  Se  Se208  1  0.08285205  0.41687950  0.81383529  1
  Se  Se209  1  0.08701308  0.75000461  0.30252942  1
  Se  Se210  1  0.07351709  0.73807179  0.79510931  1
  Se  Se211  1  0.41066274  0.08431615  0.30383758  1
  Se  Se212  1  0.42007016  0.07548472  0.79622447  1
  Se  Se213  1  0.42477417  0.42376965  0.30768993  1
  Se  Se214  1  0.41930397  0.41139289  0.80438320  1
  Se  Se215  1  0.42065569  0.76194699  0.31595608  1
  Se  Se216  1  0.41923299  0.74722155  0.80966792  1
  Se  Se217  1  0.73861511  0.07395483  0.30187475  1
  Se  Se218  1  0.74777830  0.08040059  0.80163390  1
  Se  Se219  1  0.75625073  0.42017763  0.29867805  1
  Se  Se220  1  0.75351422  0.41493619  0.81346750  1
  Se  Se221  1  0.74780789  0.74622483  0.29791660  1
  Se  Se222  1  0.74776744  0.74730872  0.80342546  1
  Se  Se223  1  0.25126351  0.07767798  0.19686897  1
  Se  Se224  1  0.25114562  0.08278107  0.69475363  1
  Se  Se225  1  0.24128005  0.42655486  0.19279836  1
  Se  Se226  1  0.25091323  0.40308874  0.70968720  1
  Se  Se227  1  0.24857184  0.75786670  0.18832081  1
  Se  Se228  1  0.26989271  0.73093156  0.70218575  1
  Se  Se229  1  0.57994721  0.08023754  0.19823523  1
  Se  Se230  1  0.59025727  0.08449817  0.69225063  1
  Se  Se231  1  0.58856795  0.41673967  0.19582486  1
  Se  Se232  1  0.57281442  0.42306779  0.68856264  1
  Se  Se233  1  0.57949627  0.75042166  0.19493178  1
  Se  Se234  1  0.58704930  0.74148696  0.69730086  1
  Se  Se235  1  0.90790622  0.09066613  0.19056105  1
  Se  Se236  1  0.92069462  0.07929489  0.69850249  1
  Se  Se237  1  0.91638119  0.42500504  0.18344443  1
  Se  Se238  1  0.90381425  0.42586044  0.69101807  1
  Se  Se239  1  0.92218297  0.74911978  0.19209891  1
  Se  Se240  1  0.91440862  0.75154126  0.69764461  1
  Se  Se241  1  0.08753105  0.24262917  0.19213703  1
  Se  Se242  1  0.08547419  0.24039565  0.68750314  1
  Se  Se243  1  0.08780159  0.58540378  0.19817257  1
  Se  Se244  1  0.09619251  0.56259808  0.70318361  1
  Se  Se245  1  0.08920761  0.91209550  0.18738732  1
  Se  Se246  1  0.09342140  0.91535522  0.70293228  1
  Se  Se247  1  0.42645302  0.24139768  0.18453559  1
  Se  Se248  1  0.41535850  0.24887394  0.69689092  1
  Se  Se249  1  0.42019549  0.58024192  0.18751995  1
  Se  Se250  1  0.41856430  0.58350843  0.70313066  1
  Se  Se251  1  0.41095843  0.91966985  0.19247968  1
  Se  Se252  1  0.42595370  0.91059559  0.69917315  1
  Se  Se253  1  0.74892787  0.25814710  0.20358182  1
  Se  Se254  1  0.75498992  0.24107893  0.69097053  1
  Se  Se255  1  0.75128216  0.58894092  0.19199561  1
  Se  Se256  1  0.74293360  0.58667550  0.70026450  1
  Se  Se257  1  0.74976288  0.91809531  0.19520385  1
  Se  Se258  1  0.74759267  0.91615476  0.69919175  1
