# generated using pymatgen
data_In86Cu29Se144
_symmetry_space_group_name_H-M   'P 1'
_cell_length_a   17.58249603
_cell_length_b   17.58954088
_cell_length_c   23.44780361
_cell_angle_alpha   89.97513593
_cell_angle_beta   89.99156461
_cell_angle_gamma   89.97989019
_symmetry_Int_Tables_number   1
_chemical_formula_structural   In86Cu29Se144
_chemical_formula_sum   'In86 Cu29 Se144'
_cell_volume   7251.65488119
_cell_formula_units_Z   1
loop_
 _symmetry_equiv_pos_site_id
 _symmetry_equiv_pos_as_xyz
  1  'x, y, z'
loop_
 _atom_site_type_symbol
 _atom_site_label
 _atom_site_symmetry_multiplicity
 _atom_site_fract_x
 _atom_site_fract_y
 _atom_site_fract_z
 _atom_site_occupancy
  In  In0  1  0.02200556  0.18528322  0.10946195  1
  In  In1  1  0.01643827  0.15614550  0.65685945  1
  In  In2  1  0.00748998  0.50578390  0.12903331  1
  In  In3  1  -0.00134389  0.49737705  0.62085988  1
  In  In4  1  -0.00615251  0.82590339  0.11754710  1
  In  In5  1  0.01004586  0.83574353  0.61984903  1
  In  In6  1  0.32666189  0.17766808  0.12416038  1
  In  In7  1  0.32710195  0.14766245  0.62937711  1
  In  In8  1  0.31713454  0.48521466  0.11264132  1
  In  In9  1  0.33292843  0.51564143  0.62597046  1
  In  In10  1  0.32754868  0.84154396  0.12360377  1
  In  In11  1  0.32846660  0.83216762  0.62568081  1
  In  In12  1  0.67009239  0.15435123  0.11966045  1
  In  In13  1  0.66610349  0.17789971  0.62298047  1
  In  In14  1  0.68135876  0.51371998  0.12004432  1
  In  In15  1  0.68182254  0.49788010  0.62390839  1
  In  In16  1  0.67009727  0.81628417  0.12908436  1
  In  In17  1  0.65805497  0.82154782  0.62208692  1
  In  In18  1  0.15743197  -0.00673086  0.37757552  1
  In  In19  1  0.16152827  0.00331374  0.87512785  1
  In  In20  1  0.17826074  0.34595391  0.35891482  1
  In  In21  1  0.15201008  0.34355503  0.87640888  1
  In  In22  1  0.15918230  0.66842947  0.37757151  1
  In  In23  1  0.17712286  0.65529152  0.87861603  1
  In  In24  1  0.50139571  -0.00426993  0.38677299  1
  In  In25  1  0.48574071  0.00389140  0.86975389  1
  In  In26  1  0.48129149  0.33571626  0.37540521  1
  In  In27  1  0.50960071  0.33809772  0.87871400  1
  In  In28  1  0.51081161  0.66986599  0.37043987  1
  In  In29  1  0.48927217  0.66284810  0.87005342  1
  In  In30  1  0.82682993  -0.00297934  0.37859051  1
  In  In31  1  0.84439929  -0.00232620  0.87472893  1
  In  In32  1  0.85464719  0.34062949  0.36995714  1
  In  In33  1  0.85137720  0.32449794  0.88602551  1
  In  In34  1  0.83380783  0.66579910  0.37867103  1
  In  In35  1  0.82901357  0.67220030  0.87810021  1
  In  In36  1  0.00268950  0.17487196  0.36741232  1
  In  In37  1  0.00234250  0.16815942  0.87014089  1
  In  In38  1  0.00086980  0.49812266  0.37878946  1
  In  In39  1  0.01373770  0.48782932  0.88159150  1
  In  In40  1  0.00843329  0.82270984  0.38541205  1
  In  In41  1  -0.00689522  0.84098978  0.87839373  1
  In  In42  1  0.32585764  0.18301440  0.37755794  1
  In  In43  1  0.31971788  0.14699157  0.86744552  1
  In  In44  1  0.32914383  0.49021077  0.37072323  1
  In  In45  1  0.31797742  0.51419531  0.88262056  1
  In  In46  1  0.33032796  0.83162067  0.38289189  1
  In  In47  1  0.32423877  0.83221502  0.87324789  1
  In  In48  1  0.66715100  0.15384048  0.37743232  1
  In  In49  1  0.67067197  0.17847840  0.87764468  1
  In  In50  1  0.66666430  0.51859368  0.37147422  1
  In  In51  1  0.66298090  0.50658634  0.88254527  1
  In  In52  1  0.67094122  0.82646008  0.38185976  1
  In  In53  1  0.68218867  0.82898426  0.87400813  1
  In  In54  1  0.17313091  -0.00223357  0.10753187  1
  In  In55  1  0.17525890  -0.00526091  0.64007856  1
  In  In56  1  0.16503153  0.33540569  0.13005689  1
  In  In57  1  0.15188086  0.33493239  0.63054905  1
  In  In58  1  0.14948976  0.65163304  0.11489761  1
  In  In59  1  0.16983846  0.66782909  0.62112075  1
  In  In60  1  0.49274053  0.00007846  0.12325353  1
  In  In61  1  0.49086226  -0.01411933  0.61923909  1
  In  In62  1  0.47880787  0.33547106  0.12612697  1
  In  In63  1  0.51143327  0.33374715  0.61862229  1
  In  In64  1  0.51787172  0.66592947  0.13162303  1
  In  In65  1  0.48837742  0.67669019  0.63098140  1
  In  In66  1  0.83695047  0.00124157  0.11150915  1
  In  In67  1  0.85130919  -0.00319578  0.62975859  1
  In  In68  1  0.85278787  0.35022961  0.11649499  1
  In  In69  1  0.83913685  0.33506619  0.62386492  1
  In  In70  1  0.84093586  0.66876615  0.12693058  1
  In  In71  1  0.82584506  0.65799831  0.62251926  1
  In  In72  1  0.49725675  0.17262155  -0.00093651  1
  In  In73  1  0.16527172  0.16544448  0.50674756  1
  In  In74  1  0.33560643  0.00133214  0.24214604  1
  In  In75  1  0.66831908  -0.00654850  0.25441747  1
  In  In76  1  0.66629314  -0.00053374  0.75648858  1
  In  In77  1  0.50048105  0.50421497  0.49409959  1
  In  In78  1  0.33067017  0.33569270  0.75559429  1
  In  In79  1  0.83559145  0.16761857  0.50351313  1
  In  In80  1  0.00220336  0.66559203  0.75249601  1
  In  In81  1  0.50156755  0.83176885  0.00285107  1
  In  In82  1  0.00249505  0.00178136  0.24758594  1
  In  In83  1  0.66701694  0.33570481  0.24418494  1
  In  In84  1  0.32781726  0.66111930  0.25012737  1
  In  In85  1  0.67551909  0.33654569  0.74690057  1
  Cu  Cu86  1  0.66935271  0.33246027  0.49777098  1
  Cu  Cu87  1  0.00016289  0.33369101  0.50226388  1
  Cu  Cu88  1  0.33669351  0.66362959  -0.00139021  1
  Cu  Cu89  1  0.49470372  0.16287662  0.74379406  1
  Cu  Cu90  1  0.66718353  0.66740897  0.50040846  1
  Cu  Cu91  1  0.32729324  0.67038970  0.50049465  1
  Cu  Cu92  1  0.83713875  0.82742640  0.25287622  1
  Cu  Cu93  1  -0.00138017  0.66801568  -0.00138876  1
  Cu  Cu94  1  -0.00577614  0.66358404  0.50101346  1
  Cu  Cu95  1  0.32802392  0.33261614  0.49602220  1
  Cu  Cu96  1  0.83836931  0.50864889  0.24678986  1
  Cu  Cu97  1  0.32644829  0.33185799  -0.00322482  1
  Cu  Cu98  1  0.49961871  0.51077282  0.75478678  1
  Cu  Cu99  1  0.00118886  -0.00473441  0.50385521  1
  Cu  Cu100  1  0.83083079  0.82782276  0.75059800  1
  Cu  Cu101  1  0.67007439  0.33929216  0.00227027  1
  Cu  Cu102  1  0.67269829  -0.00173801  -0.00591671  1
  Cu  Cu103  1  0.83578704  0.49786766  0.75067887  1
  Cu  Cu104  1  0.16112832  0.82895420  0.24923288  1
  Cu  Cu105  1  0.49346184  0.83134283  0.74523707  1
  Cu  Cu106  1  0.00115455  0.00202522  -0.00684074  1
  Cu  Cu107  1  0.33336416  -0.00397825  0.50630149  1
  Cu  Cu108  1  0.49451945  0.16883154  0.25509916  1
  Cu  Cu109  1  0.67362583  0.66546494  0.00292718  1
  Cu  Cu110  1  0.84297391  0.17390414  0.23858302  1
  Cu  Cu111  1  0.16755159  0.83418489  0.74995066  1
  Cu  Cu112  1  0.49600777  0.50173396  0.24892389  1
  Cu  Cu113  1  0.00197215  0.33451885  0.00206972  1
  Cu  Cu114  1  0.66548432  -0.00580986  0.50226645  1
  Se  Se115  1  0.08686622  0.08417300  0.04532309  1
  Se  Se116  1  0.07504137  0.07759174  0.56772191  1
  Se  Se117  1  0.08329240  0.41753287  0.05861217  1
  Se  Se118  1  0.08691819  0.41701169  0.55251517  1
  Se  Se119  1  0.08527472  0.75250877  0.04923329  1
  Se  Se120  1  0.08298424  0.74535962  0.55193159  1
  Se  Se121  1  0.40614198  0.07992598  0.05534347  1
  Se  Se122  1  0.41630292  0.08383585  0.55567946  1
  Se  Se123  1  0.41494831  0.41445636  0.04643155  1
  Se  Se124  1  0.41075352  0.41410579  0.55643710  1
  Se  Se125  1  0.41379361  0.73992740  0.06401600  1
  Se  Se126  1  0.41261145  0.75102522  0.55450066  1
  Se  Se127  1  0.75333928  0.08672550  0.04485142  1
  Se  Se128  1  0.74621761  0.07375027  0.56344459  1
  Se  Se129  1  0.75558751  0.42285026  0.05309672  1
  Se  Se130  1  0.75368462  0.41143419  0.55232209  1
  Se  Se131  1  0.75608609  0.75070693  0.05529135  1
  Se  Se132  1  0.75123559  0.74946498  0.55456921  1
  Se  Se133  1  0.24349177  0.25325625  0.05367208  1
  Se  Se134  1  0.25624632  0.25706222  0.56531225  1
  Se  Se135  1  0.24668229  0.58229523  0.04854656  1
  Se  Se136  1  0.24816401  0.58079509  0.55020857  1
  Se  Se137  1  0.25517916  0.90989183  0.04475944  1
  Se  Se138  1  0.24395204  0.91953419  0.55977400  1
  Se  Se139  1  0.58782800  0.25976410  0.06343459  1
  Se  Se140  1  0.58435426  0.24816759  0.54687786  1
  Se  Se141  1  0.58452557  0.58510893  0.05384275  1
  Se  Se142  1  0.58609291  0.58684580  0.56235096  1
  Se  Se143  1  0.59568921  0.92421330  0.06126632  1
  Se  Se144  1  0.58071364  0.90937006  0.55332625  1
  Se  Se145  1  0.91377124  0.24797510  0.05034065  1
  Se  Se146  1  0.93368923  0.24396570  0.56485603  1
  Se  Se147  1  0.92105301  0.58431788  0.05787261  1
  Se  Se148  1  0.91201551  0.57887610  0.55435328  1
  Se  Se149  1  0.92007594  0.91569015  0.04755715  1
  Se  Se150  1  0.91516587  0.91174822  0.55361700  1
  Se  Se151  1  0.08232055  0.25486237  0.44167106  1
  Se  Se152  1  0.08058315  0.25099050  0.94446775  1
  Se  Se153  1  0.08150863  0.58301149  0.44786357  1
  Se  Se154  1  0.08465913  0.58432023  0.94743746  1
  Se  Se155  1  0.08711798  0.91286437  0.45244426  1
  Se  Se156  1  0.08529259  0.91325590  0.94570041  1
  Se  Se157  1  0.41707954  0.24778219  0.45049100  1
  Se  Se158  1  0.40585733  0.25352512  0.93326527  1
  Se  Se159  1  0.40654047  0.59305285  0.43539794  1
  Se  Se160  1  0.42136753  0.58027434  0.94678897  1
  Se  Se161  1  0.41484394  0.91239924  0.45104203  1
  Se  Se162  1  0.41099684  0.92109777  0.94421256  1
  Se  Se163  1  0.75114239  0.25536382  0.43496957  1
  Se  Se164  1  0.75069846  0.25322135  0.94998295  1
  Se  Se165  1  0.74931650  0.58159285  0.44863032  1
  Se  Se166  1  0.75570532  0.58238574  0.94829472  1
  Se  Se167  1  0.75172923  0.91419060  0.44919507  1
  Se  Se168  1  0.75687509  0.91551185  0.94248912  1
  Se  Se169  1  0.25498495  0.07591661  0.44276927  1
  Se  Se170  1  0.24737258  0.08035387  0.94660647  1
  Se  Se171  1  0.24543394  0.41547929  0.44330711  1
  Se  Se172  1  0.24336620  0.41809242  0.94516355  1
  Se  Se173  1  0.24155576  0.75177043  0.44710427  1
  Se  Se174  1  0.25273960  0.74688359  0.94649049  1
  Se  Se175  1  0.58517947  0.08304890  0.45138699  1
  Se  Se176  1  0.58644160  0.07662092  0.93830158  1
  Se  Se177  1  0.59071933  0.41092958  0.43405359  1
  Se  Se178  1  0.58250298  0.42005731  0.95155486  1
  Se  Se179  1  0.57941517  0.74823588  0.44863619  1
  Se  Se180  1  0.59108662  0.74395183  0.94094486  1
  Se  Se181  1  0.92832769  0.07896733  0.44021658  1
  Se  Se182  1  0.91728376  0.08840671  0.94283424  1
  Se  Se183  1  0.91506698  0.41769413  0.45111124  1
  Se  Se184  1  0.91849036  0.42241489  0.95191287  1
  Se  Se185  1  0.91218217  0.75107307  0.44977268  1
  Se  Se186  1  0.91480309  0.75187892  0.94585720  1
  Se  Se187  1  0.25155512  0.24716558  0.29848349  1
  Se  Se188  1  0.23762087  0.24708748  0.81092715  1
  Se  Se189  1  0.23477009  0.57312530  0.30729026  1
  Se  Se190  1  0.25644199  0.58803838  0.80077487  1
  Se  Se191  1  0.24403024  0.91047873  0.30559699  1
  Se  Se192  1  0.24744557  0.92005172  0.80486870  1
  Se  Se193  1  0.58150870  0.24606726  0.31133735  1
  Se  Se194  1  0.57524247  0.24398917  0.80212776  1
  Se  Se195  1  0.58249261  0.58616026  0.29624415  1
  Se  Se196  1  0.58816189  0.58758668  0.80801689  1
  Se  Se197  1  0.57595290  0.90814972  0.31291591  1
  Se  Se198  1  0.57334960  0.90483405  0.81202434  1
  Se  Se199  1  0.92217808  0.25409594  0.29598068  1
  Se  Se200  1  0.92214350  0.26000653  0.80491350  1
  Se  Se201  1  0.91788954  0.58436336  0.31030960  1
  Se  Se202  1  0.91409282  0.57614531  0.81415669  1
  Se  Se203  1  0.91492101  0.91266569  0.31178040  1
  Se  Se204  1  0.91465345  0.91232278  0.80045038  1
  Se  Se205  1  0.09759522  0.09078316  0.30526588  1
  Se  Se206  1  0.06863122  0.06906406  0.80417417  1
  Se  Se207  1  0.06108996  0.39960199  0.30908172  1
  Se  Se208  1  0.08641887  0.42573167  0.79900197  1
  Se  Se209  1  0.07874961  0.74970899  0.30521140  1
  Se  Se210  1  0.09029785  0.75512867  0.81373802  1
  Se  Se211  1  0.41926627  0.08407919  0.31450385  1
  Se  Se212  1  0.41001584  0.07972335  0.79427915  1
  Se  Se213  1  0.41339091  0.41524476  0.29824608  1
  Se  Se214  1  0.42349329  0.42595715  0.81366169  1
  Se  Se215  1  0.41573338  0.75553329  0.30855391  1
  Se  Se216  1  0.41127720  0.75242426  0.80465921  1
  Se  Se217  1  0.76558681  0.09421770  0.30173768  1
  Se  Se218  1  0.75555962  0.09359975  0.81069964  1
  Se  Se219  1  0.75597992  0.42518913  0.30630723  1
  Se  Se220  1  0.75698652  0.42042638  0.81559047  1
  Se  Se221  1  0.75120719  0.74988880  0.30831672  1
  Se  Se222  1  0.74789453  0.74181403  0.79957252  1
  Se  Se223  1  0.23806165  0.08579255  0.18754842  1
  Se  Se224  1  0.23091410  0.10179481  0.70272938  1
  Se  Se225  1  0.25478390  0.41640432  0.19555513  1
  Se  Se226  1  0.24778185  0.42412265  0.69046192  1
  Se  Se227  1  0.24168217  0.75201396  0.18727678  1
  Se  Se228  1  0.24661156  0.74849417  0.69491685  1
  Se  Se229  1  0.57453955  0.08903840  0.19540204  1
  Se  Se230  1  0.58040165  0.08459675  0.68708066  1
  Se  Se231  1  0.57706599  0.42495665  0.18458041  1
  Se  Se232  1  0.57634817  0.42850817  0.69318521  1
  Se  Se233  1  0.58364426  0.75489235  0.20324896  1
  Se  Se234  1  0.58264314  0.74703045  0.69935865  1
  Se  Se235  1  0.91810633  0.08792494  0.18120698  1
  Se  Se236  1  0.91181903  0.07954454  0.70633525  1
  Se  Se237  1  0.92094219  0.42124980  0.19761848  1
  Se  Se238  1  0.91728607  0.41849708  0.69390359  1
  Se  Se239  1  0.92401554  0.75093659  0.19745681  1
  Se  Se240  1  0.91293663  0.75155849  0.68807847  1
  Se  Se241  1  0.08111062  0.24842443  0.19575157  1
  Se  Se242  1  0.07545729  0.26897108  0.70938414  1
  Se  Se243  1  0.08250188  0.59205621  0.20005907  1
  Se  Se244  1  0.08901693  0.57774294  0.69066270  1
  Se  Se245  1  0.09069616  0.91329902  0.18506841  1
  Se  Se246  1  0.07801020  0.91357284  0.69868911  1
  Se  Se247  1  0.41150367  0.24755547  0.19913472  1
  Se  Se248  1  0.42090198  0.25161780  0.68639334  1
  Se  Se249  1  0.41564212  0.57642346  0.18426347  1
  Se  Se250  1  0.41289117  0.58858858  0.70055720  1
  Se  Se251  1  0.43032109  0.90261714  0.19495276  1
  Se  Se252  1  0.41002770  0.91769698  0.69598723  1
  Se  Se253  1  0.75604867  0.24863861  0.18125767  1
  Se  Se254  1  0.76431140  0.23848239  0.69419305  1
  Se  Se255  1  0.75177141  0.59152022  0.19746504  1
  Se  Se256  1  0.74983986  0.58082780  0.69967406  1
  Se  Se257  1  0.76383329  0.91368969  0.19137850  1
  Se  Se258  1  0.74981200  0.90996019  0.69047032  1
