# generated using pymatgen
data_In86Cu29Se144
_symmetry_space_group_name_H-M   'P 1'
_cell_length_a   17.58779657
_cell_length_b   17.58635926
_cell_length_c   23.44734846
_cell_angle_alpha   90.00120893
_cell_angle_beta   89.99285065
_cell_angle_gamma   89.98935817
_symmetry_Int_Tables_number   1
_chemical_formula_structural   In86Cu29Se144
_chemical_formula_sum   'In86 Cu29 Se144'
_cell_volume   7252.38917981
_cell_formula_units_Z   1
loop_
 _symmetry_equiv_pos_site_id
 _symmetry_equiv_pos_as_xyz
  1  'x, y, z'
loop_
 _atom_site_type_symbol
 _atom_site_label
 _atom_site_symmetry_multiplicity
 _atom_site_fract_x
 _atom_site_fract_y
 _atom_site_fract_z
 _atom_site_occupancy
  In  In0  1  -0.00637413  0.16985188  0.13051631  1
  In  In1  1  0.00582224  0.15280623  0.63255195  1
  In  In2  1  -0.00657393  0.49556399  0.13027232  1
  In  In3  1  -0.01344377  0.50070821  0.62321081  1
  In  In4  1  0.00875832  0.84817824  0.12452960  1
  In  In5  1  0.00326047  0.83627133  0.61955041  1
  In  In6  1  0.34582918  0.17201082  0.11958014  1
  In  In7  1  0.33473626  0.18027038  0.62542944  1
  In  In8  1  0.34791514  0.48986737  0.12858052  1
  In  In9  1  0.33066861  0.49925118  0.63110629  1
  In  In10  1  0.32975749  0.82293812  0.12532647  1
  In  In11  1  0.32036078  0.82697535  0.62082757  1
  In  In12  1  0.67268347  0.16399651  0.12973396  1
  In  In13  1  0.67096472  0.16357131  0.61979041  1
  In  In14  1  0.65138114  0.51464739  0.13204297  1
  In  In15  1  0.68111945  0.50466454  0.61822094  1
  In  In16  1  0.66426810  0.83070404  0.12437915  1
  In  In17  1  0.65902660  0.81922365  0.61872047  1
  In  In18  1  0.16460066  0.01438631  0.38321413  1
  In  In19  1  0.15210915  0.00088178  0.87499660  1
  In  In20  1  0.15844430  0.32637904  0.36715952  1
  In  In21  1  0.16951414  0.33442720  0.86768667  1
  In  In22  1  0.18524484  0.68114557  0.37358640  1
  In  In23  1  0.18003800  0.66638885  0.87369082  1
  In  In24  1  0.51034242  -0.01600593  0.36614438  1
  In  In25  1  0.50300143  -0.00143758  0.88986756  1
  In  In26  1  0.49992646  0.33305775  0.36103670  1
  In  In27  1  0.48229911  0.35213577  0.90048095  1
  In  In28  1  0.49320879  0.67752154  0.36149838  1
  In  In29  1  0.49937765  0.66410959  0.87622762  1
  In  In30  1  0.81481658  -0.02169111  0.36594052  1
  In  In31  1  0.83918412  -0.00436009  0.87941203  1
  In  In32  1  0.83606687  0.33850831  0.37002473  1
  In  In33  1  0.82933454  0.32363917  0.87849599  1
  In  In34  1  0.81869575  0.67996622  0.38821253  1
  In  In35  1  0.83225708  0.68472630  0.87592747  1
  In  In36  1  0.00422895  0.16921072  0.37248972  1
  In  In37  1  -0.00382579  0.15937694  0.86954985  1
  In  In38  1  -0.00199171  0.48826530  0.37577198  1
  In  In39  1  0.01253339  0.49767347  0.87178415  1
  In  In40  1  -0.00313129  0.84072657  0.37500548  1
  In  In41  1  -0.00856589  0.84454654  0.88155545  1
  In  In42  1  0.31663753  0.16184308  0.37245711  1
  In  In43  1  0.33643636  0.17539694  0.87996093  1
  In  In44  1  0.34031191  0.50693765  0.36608347  1
  In  In45  1  0.33630475  0.50503823  0.87113195  1
  In  In46  1  0.33106597  0.82740974  0.37606303  1
  In  In47  1  0.34261277  0.82536362  0.88255390  1
  In  In48  1  0.66082652  0.15974760  0.36263588  1
  In  In49  1  0.66588854  0.17231836  0.88921935  1
  In  In50  1  0.67690188  0.51380658  0.36708539  1
  In  In51  1  0.65190578  0.49733982  0.87763266  1
  In  In52  1  0.66814390  0.83437100  0.36560490  1
  In  In53  1  0.67052822  0.82806613  0.87883139  1
  In  In54  1  0.16756486  -0.01990704  0.13428835  1
  In  In55  1  0.15534823  -0.01428940  0.61211520  1
  In  In56  1  0.17129476  0.32865957  0.13116199  1
  In  In57  1  0.17028716  0.32370597  0.62894453  1
  In  In58  1  0.17648403  0.69074428  0.13008364  1
  In  In59  1  0.17203782  0.67737985  0.62105164  1
  In  In60  1  0.50900011  0.00792551  0.12074036  1
  In  In61  1  0.49916041  -0.00160611  0.62689271  1
  In  In62  1  0.49847007  0.33642088  0.12270759  1
  In  In63  1  0.49242689  0.32577725  0.62898214  1
  In  In64  1  0.50123107  0.66861105  0.12345271  1
  In  In65  1  0.50370152  0.66165644  0.63277464  1
  In  In66  1  0.83446550  -0.00141682  0.12878501  1
  In  In67  1  0.84349874  0.00251886  0.62166690  1
  In  In68  1  0.84456267  0.32164141  0.13187591  1
  In  In69  1  0.83405826  0.34463969  0.62478545  1
  In  In70  1  0.81289409  0.67203475  0.12823075  1
  In  In71  1  0.82402257  0.66509246  0.61135124  1
  In  In72  1  0.66869110  -0.00048344  0.74966767  1
  In  In73  1  0.17039564  0.16200674  0.00440448  1
  In  In74  1  0.16366996  0.50518165  0.49906138  1
  In  In75  1  0.17260484  0.50542390  -0.00410371  1
  In  In76  1  0.49302528  0.16045512  0.48956690  1
  In  In77  1  0.33873885  0.00077080  0.24832479  1
  In  In78  1  0.50318038  0.50816428  0.49077918  1
  In  In79  1  0.32685713  0.00036604  0.74626148  1
  In  In80  1  -0.00235927  0.66113489  0.25703280  1
  In  In81  1  0.83664952  0.16138480  0.49847116  1
  In  In82  1  0.49880196  0.83344180  0.49267202  1
  In  In83  1  0.00452869  0.66686838  0.74591924  1
  In  In84  1  0.66141518  0.33793936  0.75394305  1
  In  In85  1  0.82890006  0.50171925  0.00639294  1
  Cu  Cu86  1  0.33739781  0.66570816  0.00043934  1
  Cu  Cu87  1  -0.00255528  0.68101353  0.00452467  1
  Cu  Cu88  1  0.66908549  0.33027120  0.01048995  1
  Cu  Cu89  1  0.16432570  0.16696290  0.24998517  1
  Cu  Cu90  1  0.49466940  0.17483771  0.75803885  1
  Cu  Cu91  1  0.50169418  0.17028493  0.24204458  1
  Cu  Cu92  1  0.49606968  0.49943516  0.24600238  1
  Cu  Cu93  1  -0.00418840  0.00050684  0.00107657  1
  Cu  Cu94  1  0.32666674  0.33939211  0.49983476  1
  Cu  Cu95  1  0.49843834  0.82161586  0.75462223  1
  Cu  Cu96  1  0.66811752  0.33296309  0.49553287  1
  Cu  Cu97  1  0.66090628  0.67063432  0.00240829  1
  Cu  Cu98  1  0.16900821  0.49033681  0.74841369  1
  Cu  Cu99  1  0.00080855  0.32741693  0.49492840  1
  Cu  Cu100  1  0.00135526  0.32990353  0.00254860  1
  Cu  Cu101  1  -0.00159517  -0.00086127  0.49600051  1
  Cu  Cu102  1  0.83369429  0.82980379  0.24880649  1
  Cu  Cu103  1  0.83712964  0.16244071  0.25249776  1
  Cu  Cu104  1  0.83284946  0.83402469  0.75321770  1
  Cu  Cu105  1  0.00033472  0.67043476  0.49870435  1
  Cu  Cu106  1  0.49718646  0.50008911  0.75490868  1
  Cu  Cu107  1  0.83499997  0.50601145  0.74424396  1
  Cu  Cu108  1  0.16546902  0.83503799  0.74490015  1
  Cu  Cu109  1  0.67395799  -0.00082620  0.00664587  1
  Cu  Cu110  1  0.83785614  0.16919642  0.75319710  1
  Cu  Cu111  1  0.16312796  0.16688297  0.74954625  1
  Cu  Cu112  1  0.82995299  0.49142347  0.24972796  1
  Cu  Cu113  1  0.16827501  0.50180911  0.25227744  1
  Cu  Cu114  1  0.33274047  -0.00802332  0.00893537  1
  Se  Se115  1  0.08009153  0.07407588  0.06433330  1
  Se  Se116  1  0.07826873  0.08449919  0.55138319  1
  Se  Se117  1  0.08105295  0.41415693  0.05799097  1
  Se  Se118  1  0.07746350  0.41025614  0.55849322  1
  Se  Se119  1  0.08631085  0.75658691  0.05764441  1
  Se  Se120  1  0.08555309  0.75130373  0.55190643  1
  Se  Se121  1  0.41784774  0.08188435  0.05160797  1
  Se  Se122  1  0.40914219  0.07864089  0.56046468  1
  Se  Se123  1  0.41905588  0.41721181  0.05050677  1
  Se  Se124  1  0.41488358  0.41497259  0.55565799  1
  Se  Se125  1  0.41826561  0.75137716  0.05370799  1
  Se  Se126  1  0.41844782  0.74329177  0.56094403  1
  Se  Se127  1  0.75621291  0.08463929  0.05816936  1
  Se  Se128  1  0.74034525  0.06861560  0.55235195  1
  Se  Se129  1  0.74699177  0.41313894  0.07142602  1
  Se  Se130  1  0.75213101  0.41379837  0.54906192  1
  Se  Se131  1  0.74972227  0.75320186  0.04989684  1
  Se  Se132  1  0.75534947  0.76362666  0.54812116  1
  Se  Se133  1  0.25915776  0.26266303  0.05318711  1
  Se  Se134  1  0.24873395  0.25128415  0.55190137  1
  Se  Se135  1  0.25481676  0.59120557  0.06370882  1
  Se  Se136  1  0.26162078  0.58918708  0.55574853  1
  Se  Se137  1  0.24626701  0.90940852  0.05757592  1
  Se  Se138  1  0.25932200  0.92153733  0.55269136  1
  Se  Se139  1  0.58562654  0.24549566  0.06166790  1
  Se  Se140  1  0.58540663  0.25470479  0.55416108  1
  Se  Se141  1  0.57878867  0.58198108  0.05046786  1
  Se  Se142  1  0.59207033  0.59320168  0.55472868  1
  Se  Se143  1  0.58505394  0.91597510  0.05409975  1
  Se  Se144  1  0.58685424  0.92486704  0.55632113  1
  Se  Se145  1  0.91770234  0.24598089  0.05327909  1
  Se  Se146  1  0.92251311  0.25189567  0.56133237  1
  Se  Se147  1  0.92185238  0.59514940  0.06300415  1
  Se  Se148  1  0.91738077  0.58361662  0.54923388  1
  Se  Se149  1  0.91458245  0.91604042  0.05570182  1
  Se  Se150  1  0.91673900  0.91642821  0.55123429  1
  Se  Se151  1  0.08765336  0.24697966  0.44473471  1
  Se  Se152  1  0.08226385  0.25229624  0.94077786  1
  Se  Se153  1  0.07830649  0.59367122  0.43410420  1
  Se  Se154  1  0.07357992  0.59845174  0.94328530  1
  Se  Se155  1  0.08505095  0.91757693  0.44441930  1
  Se  Se156  1  0.08330968  0.91755682  0.95017813  1
  Se  Se157  1  0.40809619  0.26238309  0.43723069  1
  Se  Se158  1  0.42943671  0.23440539  0.95106284  1
  Se  Se159  1  0.40764644  0.59925291  0.43958762  1
  Se  Se160  1  0.41647795  0.58008212  0.94544569  1
  Se  Se161  1  0.40958944  0.93056981  0.43878174  1
  Se  Se162  1  0.41772970  0.91194236  0.95236490  1
  Se  Se163  1  0.74305244  0.24647509  0.43713402  1
  Se  Se164  1  0.75490492  0.25122856  0.95593726  1
  Se  Se165  1  0.75319109  0.57522136  0.44840762  1
  Se  Se166  1  0.74407772  0.59066679  0.94092842  1
  Se  Se167  1  0.74754326  0.90274258  0.44427733  1
  Se  Se168  1  0.74956123  0.91744795  0.94449421  1
  Se  Se169  1  0.25209998  0.08961305  0.45285515  1
  Se  Se170  1  0.25757308  0.07013743  0.94136170  1
  Se  Se171  1  0.25172983  0.41752915  0.43531064  1
  Se  Se172  1  0.25790475  0.40830157  0.94066636  1
  Se  Se173  1  0.24967421  0.75809560  0.45257525  1
  Se  Se174  1  0.24959129  0.74836531  0.94876549  1
  Se  Se175  1  0.59151531  0.07119015  0.43941776  1
  Se  Se176  1  0.58758542  0.08266308  0.95427793  1
  Se  Se177  1  0.58780092  0.40970535  0.43466922  1
  Se  Se178  1  0.58993615  0.41845825  0.95788356  1
  Se  Se179  1  0.58746024  0.74042568  0.43616517  1
  Se  Se180  1  0.57903523  0.75154326  0.94446884  1
  Se  Se181  1  0.91598614  0.07177650  0.43224786  1
  Se  Se182  1  0.91729907  0.08640850  0.94580482  1
  Se  Se183  1  0.91442323  0.41193731  0.44753014  1
  Se  Se184  1  0.92427341  0.41627991  0.94363848  1
  Se  Se185  1  0.91877075  0.75570458  0.44579999  1
  Se  Se186  1  0.91122857  0.75857872  0.95007137  1
  Se  Se187  1  0.25075051  0.25114030  0.29973141  1
  Se  Se188  1  0.25053505  0.24273603  0.80510125  1
  Se  Se189  1  0.25016500  0.58804259  0.30264823  1
  Se  Se190  1  0.24746222  0.57891415  0.80092175  1
  Se  Se191  1  0.24609606  0.92317884  0.31316987  1
  Se  Se192  1  0.24412269  0.91004422  0.81156824  1
  Se  Se193  1  0.58740877  0.25183158  0.29592125  1
  Se  Se194  1  0.57646248  0.25134395  0.81843098  1
  Se  Se195  1  0.57594953  0.58113860  0.30379266  1
  Se  Se196  1  0.58386798  0.58327644  0.80449674  1
  Se  Se197  1  0.58216356  0.90547082  0.29281204  1
  Se  Se198  1  0.57418311  0.91332754  0.80938349  1
  Se  Se199  1  0.91781453  0.24999501  0.30530702  1
  Se  Se200  1  0.91747741  0.25504655  0.80664391  1
  Se  Se201  1  0.90310768  0.57506752  0.31446923  1
  Se  Se202  1  0.91229831  0.58158567  0.81116616  1
  Se  Se203  1  0.91646664  0.91539324  0.29997915  1
  Se  Se204  1  0.91672133  0.91880966  0.80336812  1
  Se  Se205  1  0.08440810  0.08276395  0.30434097  1
  Se  Se206  1  0.08009680  0.07981329  0.79945443  1
  Se  Se207  1  0.08134680  0.41808244  0.30121209  1
  Se  Se208  1  0.08057115  0.41113291  0.79933966  1
  Se  Se209  1  0.08885564  0.75762485  0.30726484  1
  Se  Se210  1  0.08702813  0.75729184  0.81095470  1
  Se  Se211  1  0.42692223  0.09320018  0.31039840  1
  Se  Se212  1  0.42209071  0.08059893  0.81154048  1
  Se  Se213  1  0.41091317  0.41497524  0.29763446  1
  Se  Se214  1  0.42141396  0.41224143  0.81006470  1
  Se  Se215  1  0.40776225  0.75953615  0.29713352  1
  Se  Se216  1  0.41052626  0.74252372  0.80628209  1
  Se  Se217  1  0.74874708  0.07717432  0.29923738  1
  Se  Se218  1  0.75154045  0.09375136  0.81234014  1
  Se  Se219  1  0.74272459  0.41136800  0.30300969  1
  Se  Se220  1  0.75804232  0.42765885  0.81067394  1
  Se  Se221  1  0.75273131  0.74354432  0.30174996  1
  Se  Se222  1  0.74592781  0.75046590  0.80135070  1
  Se  Se223  1  0.24692949  0.09200922  0.18635983  1
  Se  Se224  1  0.23966777  0.08863753  0.68451904  1
  Se  Se225  1  0.24990147  0.41988958  0.19491753  1
  Se  Se226  1  0.25424068  0.40778531  0.69613579  1
  Se  Se227  1  0.25684668  0.75511748  0.20755531  1
  Se  Se228  1  0.25087210  0.74753128  0.69907160  1
  Se  Se229  1  0.58672857  0.08070961  0.19779007  1
  Se  Se230  1  0.57483683  0.09790916  0.69509575  1
  Se  Se231  1  0.58157152  0.41538167  0.19524354  1
  Se  Se232  1  0.57735499  0.42679799  0.68692137  1
  Se  Se233  1  0.60450705  0.72710646  0.18934024  1
  Se  Se234  1  0.58723261  0.74737073  0.69903488  1
  Se  Se235  1  0.92017418  0.07927091  0.19858103  1
  Se  Se236  1  0.91314303  0.07925101  0.70008448  1
  Se  Se237  1  0.92042081  0.41160071  0.20152668  1
  Se  Se238  1  0.91801562  0.41613473  0.69886754  1
  Se  Se239  1  0.91577427  0.75004646  0.18889120  1
  Se  Se240  1  0.90989337  0.75316510  0.68852612  1
  Se  Se241  1  0.08118040  0.25195178  0.19667928  1
  Se  Se242  1  0.07824039  0.25005674  0.69653011  1
  Se  Se243  1  0.09109366  0.58143294  0.18860381  1
  Se  Se244  1  0.09354458  0.57380560  0.68563276  1
  Se  Se245  1  0.07747874  0.91770832  0.20598543  1
  Se  Se246  1  0.08066258  0.91740038  0.69343974  1
  Se  Se247  1  0.41432827  0.25437263  0.19484719  1
  Se  Se248  1  0.41063447  0.25478870  0.70331075  1
  Se  Se249  1  0.41564501  0.58765812  0.19387155  1
  Se  Se250  1  0.41507721  0.58151615  0.69826794  1
  Se  Se251  1  0.42472731  0.91373178  0.18536787  1
  Se  Se252  1  0.42190481  0.90459942  0.69348427  1
  Se  Se253  1  0.75415898  0.24784636  0.19994474  1
  Se  Se254  1  0.75346797  0.24551329  0.69287296  1
  Se  Se255  1  0.74922725  0.58053351  0.20007540  1
  Se  Se256  1  0.75243181  0.58863587  0.69175380  1
  Se  Se257  1  0.74995160  0.91208133  0.19383802  1
  Se  Se258  1  0.75429485  0.91025765  0.68759045  1
