# generated using pymatgen
data_In86Cu29Se144
_symmetry_space_group_name_H-M   'P 1'
_cell_length_a   17.57064836
_cell_length_b   17.57096619
_cell_length_c   23.42461169
_cell_angle_alpha   89.99206257
_cell_angle_beta   89.99162917
_cell_angle_gamma   89.97494867
_symmetry_Int_Tables_number   1
_chemical_formula_structural   In86Cu29Se144
_chemical_formula_sum   'In86 Cu29 Se144'
_cell_volume   7231.95608765
_cell_formula_units_Z   1
loop_
 _symmetry_equiv_pos_site_id
 _symmetry_equiv_pos_as_xyz
  1  'x, y, z'
loop_
 _atom_site_type_symbol
 _atom_site_label
 _atom_site_symmetry_multiplicity
 _atom_site_fract_x
 _atom_site_fract_y
 _atom_site_fract_z
 _atom_site_occupancy
  In  In0  1  0.00579282  0.17558097  0.11677390  1
  In  In1  1  -0.00288728  0.16758735  0.63694769  1
  In  In2  1  -0.01357933  0.49675601  0.11823371  1
  In  In3  1  0.00186863  0.49980732  0.63184706  1
  In  In4  1  -0.00984484  0.84450591  0.11941577  1
  In  In5  1  -0.00728652  0.83457798  0.63328567  1
  In  In6  1  0.34199865  0.16077537  0.12288677  1
  In  In7  1  0.33939211  0.16048574  0.62055513  1
  In  In8  1  0.36002502  0.48691227  0.14931621  1
  In  In9  1  0.34881300  0.51046080  0.61677546  1
  In  In10  1  0.34984384  0.82201721  0.13423780  1
  In  In11  1  0.33598757  0.82280038  0.62547345  1
  In  In12  1  0.66713130  0.16582769  0.12074522  1
  In  In13  1  0.66252492  0.17321134  0.62497461  1
  In  In14  1  0.65290286  0.48900823  0.12144488  1
  In  In15  1  0.66895296  0.50959997  0.62365778  1
  In  In16  1  0.67055052  0.83820949  0.11861974  1
  In  In17  1  0.65358434  0.82557480  0.61797999  1
  In  In18  1  0.18210344  -0.01404435  0.37510398  1
  In  In19  1  0.17197063  0.01167352  0.88024807  1
  In  In20  1  0.16218653  0.33259593  0.36699397  1
  In  In21  1  0.15915569  0.32480384  0.87596784  1
  In  In22  1  0.17095206  0.66317396  0.38155460  1
  In  In23  1  0.16824087  0.67512227  0.85761479  1
  In  In24  1  0.50743210  0.00228105  0.36845540  1
  In  In25  1  0.50549480  -0.01449746  0.90320965  1
  In  In26  1  0.49835423  0.33524322  0.36847653  1
  In  In27  1  0.50604054  0.33051994  0.88443928  1
  In  In28  1  0.49459274  0.67109033  0.37705784  1
  In  In29  1  0.50210194  0.66425151  0.87576551  1
  In  In30  1  0.82159242  0.00130526  0.37366031  1
  In  In31  1  0.82814548  -0.01228737  0.89174071  1
  In  In32  1  0.83190751  0.33216270  0.36257425  1
  In  In33  1  0.84177710  0.32692411  0.88419670  1
  In  In34  1  0.83928986  0.67773652  0.38234724  1
  In  In35  1  0.82805007  0.66541750  0.87324931  1
  In  In36  1  -0.00834175  0.16929441  0.37173073  1
  In  In37  1  0.00060188  0.16501820  0.87924598  1
  In  In38  1  0.00432707  0.49888772  0.37833259  1
  In  In39  1  -0.00299475  0.49233169  0.86766202  1
  In  In40  1  -0.01232919  0.82643538  0.38220336  1
  In  In41  1  -0.01195876  0.82330225  0.86254097  1
  In  In42  1  0.34942985  0.18376712  0.35889822  1
  In  In43  1  0.33811091  0.14594795  0.89825028  1
  In  In44  1  0.34662234  0.51203488  0.35787863  1
  In  In45  1  0.33633281  0.50935876  0.87500029  1
  In  In46  1  0.36386891  0.84745717  0.34837823  1
  In  In47  1  0.34035817  0.82957343  0.87596371  1
  In  In48  1  0.65722748  0.15368439  0.36049874  1
  In  In49  1  0.66544935  0.15405405  0.90333448  1
  In  In50  1  0.66624197  0.48234904  0.36736395  1
  In  In51  1  0.65651865  0.50751422  0.88229168  1
  In  In52  1  0.65726414  0.84237040  0.37838668  1
  In  In53  1  0.67372930  0.82797711  0.88485379  1
  In  In54  1  0.17453681  0.01376049  0.11678741  1
  In  In55  1  0.16374361  -0.01615428  0.63327091  1
  In  In56  1  0.17909700  0.32147284  0.13369632  1
  In  In57  1  0.16046067  0.32770313  0.62566834  1
  In  In58  1  0.17573939  0.66964802  0.11922662  1
  In  In59  1  0.16341483  0.68116634  0.64279801  1
  In  In60  1  0.50632549  -0.00413833  0.12128841  1
  In  In61  1  0.50404901  0.00148282  0.61559732  1
  In  In62  1  0.50352298  0.33716170  0.13138211  1
  In  In63  1  0.49332191  0.33126799  0.61285307  1
  In  In64  1  0.49868298  0.66376020  0.12445571  1
  In  In65  1  0.50087764  0.66726863  0.62488560  1
  In  In66  1  0.81598745  -0.00285192  0.10711544  1
  In  In67  1  0.84600033  -0.00092310  0.63352668  1
  In  In68  1  0.83215738  0.33325899  0.12425336  1
  In  In69  1  0.83781212  0.34243329  0.62719350  1
  In  In70  1  0.83566068  0.66838091  0.11273076  1
  In  In71  1  0.82237631  0.66867272  0.63178351  1
  In  In72  1  0.16830859  0.50238106  0.50354400  1
  In  In73  1  0.33075883  -0.00388350  0.75809952  1
  In  In74  1  0.00499234  0.01063852  0.24318031  1
  In  In75  1  0.17000785  0.16644489  0.49608473  1
  In  In76  1  0.66776202  -0.00230120  0.76408502  1
  In  In77  1  0.16849461  0.50137695  -0.00479530  1
  In  In78  1  0.00426659  0.66328796  0.25909838  1
  In  In79  1  0.32516119  0.33464495  0.75234298  1
  In  In80  1  0.17491894  0.83092471  0.50640794  1
  In  In81  1  0.66981263  0.33639840  0.75185395  1
  In  In82  1  0.82719254  0.49988283  0.49888389  1
  In  In83  1  0.82771561  0.16302541  0.50546558  1
  In  In84  1  0.66199953  0.66819686  0.24731584  1
  In  In85  1  0.16660447  0.83569796  -0.00562321  1
  Cu  Cu86  1  0.83159293  0.16806845  0.24238445  1
  Cu  Cu87  1  0.66751237  0.34362903  0.00742226  1
  Cu  Cu88  1  -0.00904835  -0.00180242  -0.00261774  1
  Cu  Cu89  1  0.83231636  0.83815292  0.24452589  1
  Cu  Cu90  1  0.50068548  0.16629249  0.75890702  1
  Cu  Cu91  1  -0.00567995  0.66952806  -0.01136488  1
  Cu  Cu92  1  0.83625375  0.50160787  0.75230254  1
  Cu  Cu93  1  0.50246083  0.50643911  0.74861503  1
  Cu  Cu94  1  0.66682986  -0.00904495  0.49318744  1
  Cu  Cu95  1  0.34818730  0.00267942  0.49127873  1
  Cu  Cu96  1  0.33677223  0.33927319  0.48662905  1
  Cu  Cu97  1  0.34233599  0.65825164  0.00357990  1
  Cu  Cu98  1  0.15814622  0.49901457  0.25063915  1
  Cu  Cu99  1  0.16905491  0.50090651  0.74974771  1
  Cu  Cu100  1  0.65753103  0.32258803  0.49076547  1
  Cu  Cu101  1  0.82839478  0.49498416  0.24307719  1
  Cu  Cu102  1  0.16711072  0.16690656  0.24323899  1
  Cu  Cu103  1  0.49835335  0.82451127  0.75114128  1
  Cu  Cu104  1  -0.00016465  -0.00485579  0.51058934  1
  Cu  Cu105  1  0.84363233  0.16674160  0.76114090  1
  Cu  Cu106  1  0.33865114  0.67226290  0.49641636  1
  Cu  Cu107  1  0.33448895  0.33460243  0.01289782  1
  Cu  Cu108  1  0.50374643  0.16545870  0.24148065  1
  Cu  Cu109  1  0.17604637  0.83450267  0.24645717  1
  Cu  Cu110  1  0.16203911  0.16760825  0.75577094  1
  Cu  Cu111  1  0.66560038  0.66812790  -0.00039774  1
  Cu  Cu112  1  0.82580090  0.83255287  0.75397970  1
  Cu  Cu113  1  0.65852523  0.66475648  0.50207268  1
  Cu  Cu114  1  0.00260169  0.33452298  -0.00179210  1
  Se  Se115  1  0.07643285  0.07859251  0.05087938  1
  Se  Se116  1  0.08270719  0.07918363  0.56392741  1
  Se  Se117  1  0.08651585  0.41004393  0.06023992  1
  Se  Se118  1  0.07329198  0.40877986  0.55575794  1
  Se  Se119  1  0.07234496  0.74396255  0.05519277  1
  Se  Se120  1  0.07866835  0.74562115  0.56269355  1
  Se  Se121  1  0.43313600  0.09012669  0.05262212  1
  Se  Se122  1  0.42426846  0.08951154  0.54842916  1
  Se  Se123  1  0.41847934  0.42118645  0.06096721  1
  Se  Se124  1  0.41724533  0.42062464  0.54563331  1
  Se  Se125  1  0.42073731  0.74940521  0.05298301  1
  Se  Se126  1  0.42187303  0.75311544  0.55295144  1
  Se  Se127  1  0.75769333  0.10326702  0.04563602  1
  Se  Se128  1  0.73907922  0.06806321  0.56365244  1
  Se  Se129  1  0.75580900  0.42584816  0.05681594  1
  Se  Se130  1  0.73577362  0.40164464  0.55555008  1
  Se  Se131  1  0.75169510  0.75375155  0.04887530  1
  Se  Se132  1  0.74589838  0.74457016  0.55509937  1
  Se  Se133  1  0.25054727  0.24442752  0.05698846  1
  Se  Se134  1  0.26169261  0.26231151  0.55439658  1
  Se  Se135  1  0.26370951  0.57502006  0.06243631  1
  Se  Se136  1  0.25207385  0.60262134  0.56029043  1
  Se  Se137  1  0.25492856  0.90799945  0.06502259  1
  Se  Se138  1  0.26684419  0.93143758  0.55837579  1
  Se  Se139  1  0.58334641  0.25845018  0.05814304  1
  Se  Se140  1  0.57900544  0.24208795  0.55095515  1
  Se  Se141  1  0.58327156  0.58516973  0.05478807  1
  Se  Se142  1  0.57800399  0.57839380  0.55413977  1
  Se  Se143  1  0.59718862  0.92658999  0.04752634  1
  Se  Se144  1  0.57878712  0.91266347  0.54772254  1
  Se  Se145  1  0.91549256  0.25447305  0.05173451  1
  Se  Se146  1  0.92321213  0.25371773  0.55954095  1
  Se  Se147  1  0.91752154  0.58336567  0.04518601  1
  Se  Se148  1  0.91514612  0.58445843  0.56319842  1
  Se  Se149  1  0.90618457  0.91076503  0.04474500  1
  Se  Se150  1  0.91231507  0.91306760  0.55875066  1
  Se  Se151  1  0.07414958  0.25620258  0.44248413  1
  Se  Se152  1  0.08590470  0.24525157  0.95052332  1
  Se  Se153  1  0.07050214  0.59562191  0.44943464  1
  Se  Se154  1  0.08233447  0.59311954  0.93331673  1
  Se  Se155  1  0.08011416  0.92188593  0.44512093  1
  Se  Se156  1  0.07006163  0.91872854  0.93494708  1
  Se  Se157  1  0.42099304  0.24923568  0.44168804  1
  Se  Se158  1  0.41047143  0.25651721  0.94831236  1
  Se  Se159  1  0.41289944  0.58074513  0.44292043  1
  Se  Se160  1  0.42427537  0.57637318  0.94724998  1
  Se  Se161  1  0.42316837  0.91455749  0.43617205  1
  Se  Se162  1  0.39453357  0.91805244  0.95208114  1
  Se  Se163  1  0.74584342  0.24724149  0.43469449  1
  Se  Se164  1  0.74683173  0.25811294  0.95195724  1
  Se  Se165  1  0.73688084  0.58828299  0.43609747  1
  Se  Se166  1  0.75004856  0.58407049  0.94659941  1
  Se  Se167  1  0.75722187  0.90988059  0.44548896  1
  Se  Se168  1  0.71144977  0.94141189  0.95118167  1
  Se  Se169  1  0.26461507  0.08320265  0.43492816  1
  Se  Se170  1  0.24297668  0.07553873  0.96257909  1
  Se  Se171  1  0.25156682  0.41992593  0.43314352  1
  Se  Se172  1  0.26011872  0.40579591  0.93981688  1
  Se  Se173  1  0.26458657  0.75686566  0.43504269  1
  Se  Se174  1  0.25427766  0.73182284  0.94313420  1
  Se  Se175  1  0.58863229  0.08202189  0.44244147  1
  Se  Se176  1  0.54749184  0.10603812  0.95830926  1
  Se  Se177  1  0.58072465  0.41535700  0.44188966  1
  Se  Se178  1  0.57977330  0.42110655  0.95171519  1
  Se  Se179  1  0.58153404  0.74997279  0.44440635  1
  Se  Se180  1  0.57899356  0.74963701  0.94689007  1
  Se  Se181  1  0.92345857  0.07392181  0.44507338  1
  Se  Se182  1  0.91003283  0.08760875  0.94708463  1
  Se  Se183  1  0.91615373  0.40626557  0.44094125  1
  Se  Se184  1  0.92109462  0.42191733  0.94702523  1
  Se  Se185  1  0.91865416  0.74750026  0.45721652  1
  Se  Se186  1  0.90858689  0.75527875  0.94110300  1
  Se  Se187  1  0.24671990  0.25295809  0.29857970  1
  Se  Se188  1  0.25454886  0.23347398  0.81593070  1
  Se  Se189  1  0.23884393  0.58538717  0.30385293  1
  Se  Se190  1  0.25585379  0.58215448  0.80057144  1
  Se  Se191  1  0.25858307  0.92367367  0.29400332  1
  Se  Se192  1  0.23774527  0.90663926  0.81368099  1
  Se  Se193  1  0.58260960  0.25080326  0.29914910  1
  Se  Se194  1  0.58957523  0.24018312  0.81562102  1
  Se  Se195  1  0.57823029  0.57689365  0.30929937  1
  Se  Se196  1  0.58717412  0.58543621  0.80355589  1
  Se  Se197  1  0.59142803  0.91914799  0.30088785  1
  Se  Se198  1  0.56914367  0.90866387  0.81583484  1
  Se  Se199  1  0.91800577  0.24734474  0.29702004  1
  Se  Se200  1  0.92501446  0.25628069  0.80915806  1
  Se  Se201  1  0.90186731  0.57387131  0.31038780  1
  Se  Se202  1  0.91847429  0.58686756  0.80530595  1
  Se  Se203  1  0.91789517  0.91484695  0.30481770  1
  Se  Se204  1  0.90137900  0.92186354  0.80872621  1
  Se  Se205  1  0.09674167  0.08783389  0.31355301  1
  Se  Se206  1  0.08263947  0.08123286  0.80873384  1
  Se  Se207  1  0.07348421  0.41700404  0.30298854  1
  Se  Se208  1  0.09136592  0.41416424  0.80396726  1
  Se  Se209  1  0.09322017  0.76446782  0.31227758  1
  Se  Se210  1  0.07883476  0.75292317  0.79435944  1
  Se  Se211  1  0.42122452  0.08344914  0.29874719  1
  Se  Se212  1  0.42599643  0.08106837  0.81769253  1
  Se  Se213  1  0.40464922  0.40380751  0.29919539  1
  Se  Se214  1  0.42735410  0.41828791  0.80747016  1
  Se  Se215  1  0.41114848  0.72826100  0.29527792  1
  Se  Se216  1  0.41473903  0.74342429  0.80546388  1
  Se  Se217  1  0.75355365  0.07950529  0.29599390  1
  Se  Se218  1  0.75390011  0.09502941  0.81979205  1
  Se  Se219  1  0.74541410  0.40811894  0.29264430  1
  Se  Se220  1  0.75706075  0.42257068  0.81514859  1
  Se  Se221  1  0.75765188  0.75604506  0.30747866  1
  Se  Se222  1  0.74098886  0.74933260  0.80592817  1
  Se  Se223  1  0.25270280  0.08312439  0.19396153  1
  Se  Se224  1  0.24475076  0.09116939  0.69278618  1
  Se  Se225  1  0.24707220  0.41870032  0.20002026  1
  Se  Se226  1  0.24812360  0.42738438  0.68300178  1
  Se  Se227  1  0.25117296  0.74340870  0.19510888  1
  Se  Se228  1  0.25559450  0.76070706  0.70316844  1
  Se  Se229  1  0.58888490  0.08104279  0.19134532  1
  Se  Se230  1  0.57927189  0.08619410  0.69647714  1
  Se  Se231  1  0.57582441  0.42738065  0.20154044  1
  Se  Se232  1  0.57391061  0.41726074  0.68827221  1
  Se  Se233  1  0.57790035  0.76331048  0.18924470  1
  Se  Se234  1  0.58529677  0.74687060  0.69639291  1
  Se  Se235  1  0.90906326  0.08666795  0.18013417  1
  Se  Se236  1  0.92146328  0.08002640  0.70612361  1
  Se  Se237  1  0.91927525  0.41460658  0.19450468  1
  Se  Se238  1  0.91883012  0.41554169  0.70036682  1
  Se  Se239  1  0.91559173  0.75173047  0.19269340  1
  Se  Se240  1  0.90839541  0.74919980  0.69940453  1
  Se  Se241  1  0.07788110  0.25030980  0.19639368  1
  Se  Se242  1  0.08331305  0.25392835  0.70110490  1
  Se  Se243  1  0.08412632  0.58014947  0.18583153  1
  Se  Se244  1  0.08175111  0.58432968  0.70030248  1
  Se  Se245  1  0.09197893  0.91132828  0.18666685  1
  Se  Se246  1  0.07658691  0.91488728  0.70206770  1
  Se  Se247  1  0.41512384  0.24932313  0.19386505  1
  Se  Se248  1  0.42347115  0.24359863  0.69510180  1
  Se  Se249  1  0.41191921  0.60399150  0.20353555  1
  Se  Se250  1  0.41564288  0.58723250  0.69623092  1
  Se  Se251  1  0.41650692  0.92566409  0.19295433  1
  Se  Se252  1  0.42703109  0.91634771  0.69260087  1
  Se  Se253  1  0.74617399  0.25247594  0.19215971  1
  Se  Se254  1  0.76289617  0.23994217  0.69540306  1
  Se  Se255  1  0.75590817  0.58343277  0.18539700  1
  Se  Se256  1  0.74564630  0.57963920  0.70094886  1
  Se  Se257  1  0.75252020  0.92043425  0.18969683  1
  Se  Se258  1  0.74630526  0.91270620  0.69206596  1
