# generated using pymatgen
data_In86Cu29Se144
_symmetry_space_group_name_H-M   'P 1'
_cell_length_a   17.57904958
_cell_length_b   17.57457460
_cell_length_c   23.43195866
_cell_angle_alpha   89.98896123
_cell_angle_beta   90.01662730
_cell_angle_gamma   90.01222605
_symmetry_Int_Tables_number   1
_chemical_formula_structural   In86Cu29Se144
_chemical_formula_sum   'In86 Cu29 Se144'
_cell_volume   7239.16988784
_cell_formula_units_Z   1
loop_
 _symmetry_equiv_pos_site_id
 _symmetry_equiv_pos_as_xyz
  1  'x, y, z'
loop_
 _atom_site_type_symbol
 _atom_site_label
 _atom_site_symmetry_multiplicity
 _atom_site_fract_x
 _atom_site_fract_y
 _atom_site_fract_z
 _atom_site_occupancy
  In  In0  1  -0.00207133  0.16749443  0.12850674  1
  In  In1  1  0.01448907  0.15960089  0.63807979  1
  In  In2  1  -0.01674064  0.49953024  0.12268842  1
  In  In3  1  -0.00688907  0.49238162  0.62205573  1
  In  In4  1  0.00705571  0.83830497  0.12755341  1
  In  In5  1  0.00917545  0.84593095  0.61406467  1
  In  In6  1  0.34595456  0.16002706  0.14096912  1
  In  In7  1  0.33308118  0.16648054  0.62039583  1
  In  In8  1  0.33819156  0.49056472  0.13594348  1
  In  In9  1  0.32131538  0.49721438  0.61835038  1
  In  In10  1  0.33676526  0.83933196  0.14761060  1
  In  In11  1  0.33130234  0.84878277  0.61980937  1
  In  In12  1  0.66109390  0.16090117  0.11719767  1
  In  In13  1  0.66340691  0.18621778  0.61910790  1
  In  In14  1  0.67857669  0.50356286  0.12452422  1
  In  In15  1  0.68514319  0.48384249  0.63006573  1
  In  In16  1  0.66329568  0.83438070  0.13924895  1
  In  In17  1  0.66356469  0.81923544  0.62544353  1
  In  In18  1  0.16329142  0.00440945  0.37574329  1
  In  In19  1  0.16658999  0.00681083  0.86253398  1
  In  In20  1  0.16415033  0.33235329  0.38051561  1
  In  In21  1  0.14666859  0.30149214  0.84186644  1
  In  In22  1  0.17289899  0.66221114  0.38217309  1
  In  In23  1  0.16286049  0.66475307  0.87318666  1
  In  In24  1  0.50940102  0.01278832  0.35907953  1
  In  In25  1  0.50347558  0.01569280  0.87731142  1
  In  In26  1  0.49049648  0.33027646  0.37651967  1
  In  In27  1  0.49044227  0.32044834  0.86601991  1
  In  In28  1  0.50849583  0.68332912  0.35676290  1
  In  In29  1  0.50679273  0.65103713  0.87815995  1
  In  In30  1  0.82415449  -0.00532382  0.36880331  1
  In  In31  1  0.85278901  0.00813734  0.87475905  1
  In  In32  1  0.84848032  0.32876731  0.37808527  1
  In  In33  1  0.83093456  0.33450620  0.87551000  1
  In  In34  1  0.82720902  0.66937929  0.38092291  1
  In  In35  1  0.81814163  0.66597097  0.88090426  1
  In  In36  1  0.00762611  0.17769134  0.37051091  1
  In  In37  1  -0.01313669  0.15649374  0.86951991  1
  In  In38  1  0.00788231  0.49208971  0.38464993  1
  In  In39  1  0.00180015  0.48745963  0.87752329  1
  In  In40  1  -0.01176277  0.84177519  0.38102491  1
  In  In41  1  -0.00868864  0.84274414  0.87263492  1
  In  In42  1  0.33084493  0.16261940  0.37519391  1
  In  In43  1  0.33705543  0.16844607  0.86582296  1
  In  In44  1  0.32641595  0.49303401  0.37259851  1
  In  In45  1  0.34532945  0.48458597  0.87613170  1
  In  In46  1  0.32996556  0.83104341  0.36807781  1
  In  In47  1  0.31950104  0.83923622  0.87457700  1
  In  In48  1  0.66503236  0.16132851  0.37427140  1
  In  In49  1  0.65687047  0.17552818  0.88296883  1
  In  In50  1  0.66196009  0.50950455  0.37678850  1
  In  In51  1  0.67630119  0.50523275  0.87108475  1
  In  In52  1  0.67131949  0.84145515  0.36948720  1
  In  In53  1  0.67809762  0.82302533  0.87448800  1
  In  In54  1  0.16722651  0.00520068  0.13740963  1
  In  In55  1  0.16897689  0.00694983  0.61871965  1
  In  In56  1  0.16899084  0.32785244  0.13327231  1
  In  In57  1  0.16676824  0.32979445  0.62719532  1
  In  In58  1  0.16648285  0.67702600  0.12752793  1
  In  In59  1  0.16368926  0.66678304  0.60982319  1
  In  In60  1  0.49238690  0.01219488  0.14221108  1
  In  In61  1  0.48058941  0.00213462  0.62413978  1
  In  In62  1  0.49844880  0.31766004  0.12741106  1
  In  In63  1  0.51508178  0.31961053  0.62392755  1
  In  In64  1  0.50199854  0.66722158  0.13912819  1
  In  In65  1  0.50972869  0.67430681  0.62495162  1
  In  In66  1  0.82822779  0.00463120  0.12910651  1
  In  In67  1  0.84712700  0.00841829  0.62344149  1
  In  In68  1  0.83834390  0.34086793  0.11997423  1
  In  In69  1  0.82879981  0.34270743  0.63050177  1
  In  In70  1  0.82742000  0.65271088  0.11980192  1
  In  In71  1  0.82911657  0.65761252  0.61946012  1
  In  In72  1  0.83526811  0.16905442  0.50274820  1
  In  In73  1  0.66730101  -0.00017218  0.75359592  1
  In  In74  1  0.83307331  0.83591998  0.00481366  1
  In  In75  1  0.49832300  0.49992824  0.49218150  1
  In  In76  1  0.50876619  0.49079754  0.00949906  1
  In  In77  1  0.34009055  0.66527457  0.74497241  1
  In  In78  1  0.50430816  0.83580315  0.00749507  1
  In  In79  1  0.16290359  0.83865362  0.00614162  1
  In  In80  1  0.66568993  0.33381462  0.24956295  1
  In  In81  1  -0.00095310  0.66561152  0.24753917  1
  In  In82  1  0.49836424  0.83939988  0.48928742  1
  In  In83  1  0.16217995  0.16361296  -0.00358858  1
  In  In84  1  0.16873766  0.49208617  -0.00978159  1
  In  In85  1  -0.00327191  0.66826473  0.74810910  1
  Cu  Cu86  1  0.83138250  0.49923254  0.74974688  1
  Cu  Cu87  1  0.50709158  0.49447154  0.75096942  1
  Cu  Cu88  1  0.33957779  0.00543665  0.00859436  1
  Cu  Cu89  1  0.16353860  0.83438808  0.25492112  1
  Cu  Cu90  1  0.32590753  0.00663622  0.49761672  1
  Cu  Cu91  1  0.49844446  0.50350822  0.25430620  1
  Cu  Cu92  1  0.67044341  0.00496225  0.00343038  1
  Cu  Cu93  1  0.83391194  0.16490502  0.25097004  1
  Cu  Cu94  1  0.16655815  0.84445367  0.73958208  1
  Cu  Cu95  1  0.49715195  0.16347870  0.74673947  1
  Cu  Cu96  1  0.67539579  0.66009100  0.50222052  1
  Cu  Cu97  1  0.66411213  -0.00437290  0.49307499  1
  Cu  Cu98  1  0.16752192  0.16846822  0.25566787  1
  Cu  Cu99  1  0.16244448  0.49457973  0.25831353  1
  Cu  Cu100  1  0.17085581  0.49555261  0.74673220  1
  Cu  Cu101  1  0.83447321  0.83549921  0.25349506  1
  Cu  Cu102  1  0.83680052  0.83517449  0.74998327  1
  Cu  Cu103  1  0.32865157  0.33025089  0.49751406  1
  Cu  Cu104  1  -0.00196463  0.66917842  0.49701878  1
  Cu  Cu105  1  0.33240864  0.66346265  0.01130064  1
  Cu  Cu106  1  -0.00665928  0.33497483  0.00006267  1
  Cu  Cu107  1  0.32965716  0.31735869  -0.00682796  1
  Cu  Cu108  1  0.83583026  0.49868383  0.24790647  1
  Cu  Cu109  1  0.83246674  0.17537809  0.74856111  1
  Cu  Cu110  1  0.33351325  0.66849357  0.49137847  1
  Cu  Cu111  1  0.00344826  0.33238121  0.50576440  1
  Cu  Cu112  1  0.66942216  0.33417655  -0.00186858  1
  Cu  Cu113  1  0.50063046  0.82828645  0.74897296  1
  Cu  Cu114  1  -0.00004395  0.00366543  0.49862222  1
  Se  Se115  1  0.08009300  0.07255967  0.06031527  1
  Se  Se116  1  0.07917884  0.08914065  0.55338278  1
  Se  Se117  1  0.08173732  0.40864832  0.05894717  1
  Se  Se118  1  0.08782363  0.41810816  0.55751471  1
  Se  Se119  1  0.06993363  0.73909530  0.05466360  1
  Se  Se120  1  0.08376110  0.75579458  0.54589098  1
  Se  Se121  1  0.42172516  0.08781742  0.06204221  1
  Se  Se122  1  0.41700814  0.08564057  0.54762803  1
  Se  Se123  1  0.40343677  0.40303386  0.05514396  1
  Se  Se124  1  0.41348592  0.40998028  0.55661807  1
  Se  Se125  1  0.40821440  0.74915171  0.06767390  1
  Se  Se126  1  0.41286713  0.74606554  0.55532905  1
  Se  Se127  1  0.75801193  0.08762993  0.05304200  1
  Se  Se128  1  0.73988233  0.07613134  0.55900387  1
  Se  Se129  1  0.75015822  0.41929633  0.05167384  1
  Se  Se130  1  0.75490537  0.41227186  0.55077166  1
  Se  Se131  1  0.73800851  0.75003050  0.06173261  1
  Se  Se132  1  0.75209795  0.75154093  0.55367826  1
  Se  Se133  1  0.25394097  0.24508314  0.06140881  1
  Se  Se134  1  0.24592720  0.24916935  0.55398609  1
  Se  Se135  1  0.25006681  0.57860467  0.06367813  1
  Se  Se136  1  0.25234738  0.58439044  0.54585920  1
  Se  Se137  1  0.26078200  0.92257417  0.06653656  1
  Se  Se138  1  0.24501461  0.91721723  0.54743987  1
  Se  Se139  1  0.58315845  0.25352311  0.05124958  1
  Se  Se140  1  0.57844304  0.24467726  0.54198729  1
  Se  Se141  1  0.58830934  0.59536211  0.06143248  1
  Se  Se142  1  0.58984478  0.58170658  0.55982679  1
  Se  Se143  1  0.59034585  0.92905515  0.06633328  1
  Se  Se144  1  0.58500942  0.92092925  0.56072300  1
  Se  Se145  1  0.91790512  0.24821922  0.05627226  1
  Se  Se146  1  0.92484171  0.25187283  0.56792459  1
  Se  Se147  1  0.91717664  0.58536497  0.05014158  1
  Se  Se148  1  0.91968362  0.58250278  0.55299727  1
  Se  Se149  1  0.92632806  0.92628304  0.05909439  1
  Se  Se150  1  0.91278777  0.92111047  0.54948731  1
  Se  Se151  1  0.08251351  0.24741712  0.45023291  1
  Se  Se152  1  0.07665868  0.25903933  0.93794710  1
  Se  Se153  1  0.08514573  0.58338100  0.44958569  1
  Se  Se154  1  0.07364846  0.59164155  0.94315874  1
  Se  Se155  1  0.08169039  0.91872477  0.44515104  1
  Se  Se156  1  0.08186270  0.92709838  0.93874711  1
  Se  Se157  1  0.41318530  0.24645886  0.44657341  1
  Se  Se158  1  0.41960630  0.23899879  0.94256033  1
  Se  Se159  1  0.41851025  0.59635732  0.43040801  1
  Se  Se160  1  0.40927433  0.58282464  0.95036178  1
  Se  Se161  1  0.40837282  0.93113068  0.43409355  1
  Se  Se162  1  0.41077340  0.92100101  0.94411566  1
  Se  Se163  1  0.74525102  0.25506461  0.44054557  1
  Se  Se164  1  0.75317523  0.24849949  0.94676889  1
  Se  Se165  1  0.75488985  0.57438435  0.44821942  1
  Se  Se166  1  0.74107960  0.58368307  0.95028353  1
  Se  Se167  1  0.75213543  0.91377033  0.44557181  1
  Se  Se168  1  0.74609642  0.92733926  0.93910749  1
  Se  Se169  1  0.24051975  0.09057024  0.44665123  1
  Se  Se170  1  0.25919001  0.07428216  0.94104497  1
  Se  Se171  1  0.24709683  0.41971554  0.44825181  1
  Se  Se172  1  0.25031752  0.39476091  0.93142593  1
  Se  Se173  1  0.24999104  0.75814963  0.44502119  1
  Se  Se174  1  0.25424525  0.74020716  0.94749923  1
  Se  Se175  1  0.58049455  0.07988327  0.44289318  1
  Se  Se176  1  0.58153297  0.08674864  0.95315811  1
  Se  Se177  1  0.59217136  0.40583685  0.44018062  1
  Se  Se178  1  0.58442016  0.40780298  0.93518110  1
  Se  Se179  1  0.59348460  0.74111498  0.44196290  1
  Se  Se180  1  0.58907000  0.74307517  0.94511192  1
  Se  Se181  1  0.91829008  0.08141874  0.43609520  1
  Se  Se182  1  0.92114942  0.08562552  0.95180707  1
  Se  Se183  1  0.91820270  0.41364954  0.45221124  1
  Se  Se184  1  0.91098451  0.41941576  0.94742179  1
  Se  Se185  1  0.91121838  0.75244293  0.44811259  1
  Se  Se186  1  0.92155607  0.74692094  0.94029723  1
  Se  Se187  1  0.24810351  0.25342399  0.31001449  1
  Se  Se188  1  0.26598777  0.25278820  0.79326967  1
  Se  Se189  1  0.24581552  0.58234869  0.30622073  1
  Se  Se190  1  0.24978844  0.57577652  0.80899993  1
  Se  Se191  1  0.24590608  0.92120516  0.30572901  1
  Se  Se192  1  0.25195620  0.91967577  0.79838677  1
  Se  Se193  1  0.57405162  0.24388323  0.30571300  1
  Se  Se194  1  0.58432413  0.24390028  0.80092431  1
  Se  Se195  1  0.59007801  0.58516028  0.29943779  1
  Se  Se196  1  0.58629982  0.58287317  0.80184640  1
  Se  Se197  1  0.56955592  0.90043146  0.30435886  1
  Se  Se198  1  0.57723774  0.90712909  0.81439014  1
  Se  Se199  1  0.91761867  0.25188257  0.30018905  1
  Se  Se200  1  0.91601565  0.25491915  0.80553098  1
  Se  Se201  1  0.91468626  0.57693978  0.31225273  1
  Se  Se202  1  0.91077630  0.57935203  0.81176304  1
  Se  Se203  1  0.91912187  0.92040207  0.30268185  1
  Se  Se204  1  0.91955581  0.92323253  0.79788206  1
  Se  Se205  1  0.07961350  0.08363674  0.30377769  1
  Se  Se206  1  0.09507197  0.10649680  0.80428093  1
  Se  Se207  1  0.07775163  0.41109346  0.30843056  1
  Se  Se208  1  0.07986433  0.42050168  0.79901179  1
  Se  Se209  1  0.08266149  0.75261294  0.31395922  1
  Se  Se210  1  0.09203219  0.76328692  0.80455107  1
  Se  Se211  1  0.41016379  0.08648395  0.30076300  1
  Se  Se212  1  0.41817623  0.07658157  0.80056495  1
  Se  Se213  1  0.41745006  0.41727503  0.30568960  1
  Se  Se214  1  0.41688491  0.41254275  0.79738936  1
  Se  Se215  1  0.40372120  0.74482732  0.29766283  1
  Se  Se216  1  0.42157821  0.75236260  0.81592696  1
  Se  Se217  1  0.74605832  0.08391066  0.30189946  1
  Se  Se218  1  0.75500398  0.09271269  0.81191532  1
  Se  Se219  1  0.75722471  0.42032661  0.31198439  1
  Se  Se220  1  0.74795006  0.41403952  0.80280155  1
  Se  Se221  1  0.75317716  0.74921134  0.30600248  1
  Se  Se222  1  0.75560124  0.74714231  0.79994400  1
  Se  Se223  1  0.25297398  0.08274744  0.20531256  1
  Se  Se224  1  0.26641756  0.06901475  0.68712687  1
  Se  Se225  1  0.24719653  0.41408229  0.20157152  1
  Se  Se226  1  0.25550821  0.41451288  0.69434231  1
  Se  Se227  1  0.24559500  0.74799884  0.20284385  1
  Se  Se228  1  0.24429008  0.75270278  0.68649722  1
  Se  Se229  1  0.58747358  0.09656196  0.19794365  1
  Se  Se230  1  0.58102254  0.08500379  0.68691975  1
  Se  Se231  1  0.57574035  0.42575295  0.18785636  1
  Se  Se232  1  0.58665557  0.41218937  0.69294180  1
  Se  Se233  1  0.58251127  0.75044732  0.20543111  1
  Se  Se234  1  0.58794148  0.74424963  0.70291397  1
  Se  Se235  1  0.91790711  0.08156182  0.19744764  1
  Se  Se236  1  0.91546631  0.08553983  0.70139813  1
  Se  Se237  1  0.91870272  0.41297444  0.19765473  1
  Se  Se238  1  0.91915574  0.41720118  0.69981795  1
  Se  Se239  1  0.90685304  0.75470348  0.18770647  1
  Se  Se240  1  0.91434820  0.75876374  0.68396742  1
  Se  Se241  1  0.08201677  0.24716915  0.19866090  1
  Se  Se242  1  0.08153405  0.25931728  0.70125176  1
  Se  Se243  1  0.08951892  0.57196984  0.18918596  1
  Se  Se244  1  0.09249011  0.58226472  0.68953604  1
  Se  Se245  1  0.08135593  0.91791216  0.20107520  1
  Se  Se246  1  0.08059135  0.92661919  0.68945491  1
  Se  Se247  1  0.40051664  0.27167927  0.20007040  1
  Se  Se248  1  0.41978249  0.24844139  0.68976075  1
  Se  Se249  1  0.41129948  0.58428337  0.20116599  1
  Se  Se250  1  0.42829284  0.57229927  0.68554955  1
  Se  Se251  1  0.42656891  0.91688869  0.20980356  1
  Se  Se252  1  0.41682586  0.91064375  0.69745157  1
  Se  Se253  1  0.75617188  0.24683167  0.18814087  1
  Se  Se254  1  0.74579927  0.25343155  0.69555353  1
  Se  Se255  1  0.75075832  0.58506010  0.20016580  1
  Se  Se256  1  0.75006238  0.58507174  0.69614172  1
  Se  Se257  1  0.75114234  0.92055798  0.20042746  1
  Se  Se258  1  0.75438133  0.91322398  0.68839906  1
