# generated using pymatgen
data_In86Cu29Se144
_symmetry_space_group_name_H-M   'P 1'
_cell_length_a   17.57619481
_cell_length_b   17.57877151
_cell_length_c   23.43881770
_cell_angle_alpha   90.01463457
_cell_angle_beta   89.99997571
_cell_angle_gamma   90.01082570
_symmetry_Int_Tables_number   1
_chemical_formula_structural   In86Cu29Se144
_chemical_formula_sum   'In86 Cu29 Se144'
_cell_volume   7241.84221481
_cell_formula_units_Z   1
loop_
 _symmetry_equiv_pos_site_id
 _symmetry_equiv_pos_as_xyz
  1  'x, y, z'
loop_
 _atom_site_type_symbol
 _atom_site_label
 _atom_site_symmetry_multiplicity
 _atom_site_fract_x
 _atom_site_fract_y
 _atom_site_fract_z
 _atom_site_occupancy
  In  In0  1  -0.00320970  0.16105837  0.12880038  1
  In  In1  1  -0.01195559  0.15618647  0.61891894  1
  In  In2  1  -0.00655600  0.51101828  0.13432529  1
  In  In3  1  0.00673511  0.49938321  0.62347591  1
  In  In4  1  -0.00119397  0.83546414  0.12710899  1
  In  In5  1  0.00713044  0.84001355  0.61895808  1
  In  In6  1  0.33900895  0.17636368  0.11570785  1
  In  In7  1  0.31780759  0.17955934  0.63848651  1
  In  In8  1  0.33252182  0.48605866  0.13554323  1
  In  In9  1  0.32009832  0.47433516  0.62495845  1
  In  In10  1  0.31655950  0.83783195  0.12339113  1
  In  In11  1  0.33125699  0.84455856  0.62615747  1
  In  In12  1  0.68050600  0.18355852  0.11930876  1
  In  In13  1  0.68607296  0.16465549  0.62834324  1
  In  In14  1  0.66692438  0.49695107  0.12350441  1
  In  In15  1  0.65626032  0.49888491  0.62667155  1
  In  In16  1  0.67320587  0.81636605  0.12656251  1
  In  In17  1  0.66767537  0.83246800  0.62015838  1
  In  In18  1  0.15078252  0.01285705  0.38486249  1
  In  In19  1  0.16006167  0.00601058  0.87036738  1
  In  In20  1  0.16515973  0.32603766  0.36399567  1
  In  In21  1  0.16515665  0.31836237  0.87135966  1
  In  In22  1  0.17020472  0.67625039  0.36947546  1
  In  In23  1  0.17714595  0.67474519  0.87988572  1
  In  In24  1  0.49593682  -0.00131278  0.37610403  1
  In  In25  1  0.50047886  0.01808921  0.87742472  1
  In  In26  1  0.49970326  0.33604682  0.36656802  1
  In  In27  1  0.49831367  0.33254821  0.87786614  1
  In  In28  1  0.49069369  0.65638410  0.36509602  1
  In  In29  1  0.48728579  0.66025300  0.88521752  1
  In  In30  1  0.84370385  -0.00391899  0.37625052  1
  In  In31  1  0.84939001  -0.00570731  0.88238842  1
  In  In32  1  0.83679875  0.32737348  0.36410823  1
  In  In33  1  0.82522060  0.33807029  0.88535787  1
  In  In34  1  0.84648782  0.67493552  0.36038443  1
  In  In35  1  0.83498352  0.67019430  0.88464696  1
  In  In36  1  0.00048411  0.16787128  0.36691693  1
  In  In37  1  0.01448503  0.15465785  0.88491951  1
  In  In38  1  0.00964513  0.49099752  0.35282264  1
  In  In39  1  -0.00600282  0.48816250  0.88492632  1
  In  In40  1  -0.00075522  0.83825904  0.37375064  1
  In  In41  1  -0.01094990  0.85145254  0.87966006  1
  In  In42  1  0.32197369  0.16388543  0.37635936  1
  In  In43  1  0.32707870  0.17329734  0.87138385  1
  In  In44  1  0.32191297  0.50243120  0.36448316  1
  In  In45  1  0.34470404  0.50318047  0.87912994  1
  In  In46  1  0.31715521  0.81123148  0.37559898  1
  In  In47  1  0.31339675  0.83314344  0.87957864  1
  In  In48  1  0.67694262  0.18722515  0.36654545  1
  In  In49  1  0.65571515  0.17515924  0.88521330  1
  In  In50  1  0.66321716  0.49702458  0.36478062  1
  In  In51  1  0.67216296  0.49209311  0.88487218  1
  In  In52  1  0.68279448  0.83593893  0.37123038  1
  In  In53  1  0.68196478  0.84383091  0.87689042  1
  In  In54  1  0.15374504  -0.00699133  0.11829915  1
  In  In55  1  0.16429718  0.00387814  0.62525439  1
  In  In56  1  0.17467554  0.32477152  0.13096627  1
  In  In57  1  0.18389919  0.32335969  0.63120067  1
  In  In58  1  0.15371345  0.67486682  0.13902946  1
  In  In59  1  0.15899613  0.66329343  0.61923323  1
  In  In60  1  0.49009405  0.00692211  0.11760342  1
  In  In61  1  0.48807286  -0.00505789  0.63097072  1
  In  In62  1  0.49869992  0.33692638  0.12362438  1
  In  In63  1  0.50203634  0.33282479  0.63158784  1
  In  In64  1  0.50920520  0.65018670  0.13087036  1
  In  In65  1  0.49792715  0.66943924  0.62458224  1
  In  In66  1  0.85425752  0.01772461  0.11770367  1
  In  In67  1  0.84043819  0.00244754  0.62181307  1
  In  In68  1  0.82805487  0.32736854  0.12923764  1
  In  In69  1  0.84193055  0.31829962  0.62786036  1
  In  In70  1  0.83554464  0.66411939  0.12393789  1
  In  In71  1  0.82826131  0.67466579  0.61789009  1
  In  In72  1  0.50448836  0.83162765  -0.00038877  1
  In  In73  1  0.66670569  0.00610105  0.75071589  1
  In  In74  1  0.00237758  0.66722503  0.74357073  1
  In  In75  1  0.00376502  0.32466114  0.75555631  1
  In  In76  1  0.16380502  0.49817461  0.00872826  1
  In  In77  1  0.67288388  0.66114782  0.76407515  1
  In  In78  1  0.49720473  0.83570576  0.50394882  1
  In  In79  1  0.67294608  0.00267165  0.24725547  1
  In  In80  1  0.33123602  0.65959596  0.74525724  1
  In  In81  1  0.50108633  0.16490277  0.49658179  1
  In  In82  1  0.49568882  0.50080912  0.49500943  1
  In  In83  1  0.16734522  0.50028423  0.49200847  1
  In  In84  1  0.83329792  0.49566380  0.48436949  1
  In  In85  1  0.33033749  0.00045783  0.25194979  1
  Cu  Cu86  1  0.15841186  0.84260981  0.75101457  1
  Cu  Cu87  1  0.83085339  0.49541099  0.75793030  1
  Cu  Cu88  1  0.49800478  0.83041640  0.75189918  1
  Cu  Cu89  1  0.66188684  0.33271711  0.00431704  1
  Cu  Cu90  1  0.67487792  0.00010511  -0.00011408  1
  Cu  Cu91  1  0.49595954  0.17238204  0.75730305  1
  Cu  Cu92  1  0.67928319  0.32877515  0.50078960  1
  Cu  Cu93  1  0.00536076  0.00135318  0.00138408  1
  Cu  Cu94  1  0.16033143  0.83603455  0.25117058  1
  Cu  Cu95  1  0.32195363  -0.00201200  0.50370830  1
  Cu  Cu96  1  0.49886422  0.82471627  0.24857960  1
  Cu  Cu97  1  0.33378036  0.33285858  0.00113133  1
  Cu  Cu98  1  0.16573552  0.16075217  0.24791425  1
  Cu  Cu99  1  0.83605003  0.83032523  0.24640822  1
  Cu  Cu100  1  0.33211828  0.66491513  0.00831071  1
  Cu  Cu101  1  -0.00629426  0.67154508  0.49195922  1
  Cu  Cu102  1  0.49888423  0.48687619  0.75245021  1
  Cu  Cu103  1  -0.00802192  0.32842727  0.00591363  1
  Cu  Cu104  1  0.50025902  0.50104107  0.24554149  1
  Cu  Cu105  1  0.00319015  0.67179087  0.00906485  1
  Cu  Cu106  1  0.01074134  0.32219113  0.49469025  1
  Cu  Cu107  1  0.00082213  -0.00036573  0.49814730  1
  Cu  Cu108  1  0.67046998  0.67894121  0.49144265  1
  Cu  Cu109  1  0.67300504  0.66066626  0.00439658  1
  Cu  Cu110  1  0.32729621  0.00884426  -0.00446891  1
  Cu  Cu111  1  0.83108724  0.16848774  0.75563245  1
  Cu  Cu112  1  0.67857608  0.00941104  0.49703630  1
  Cu  Cu113  1  0.50155276  0.17719497  0.24047247  1
  Cu  Cu114  1  0.82650649  0.49651215  0.24432771  1
  Se  Se115  1  0.08436992  0.09062515  0.05349492  1
  Se  Se116  1  0.08270283  0.08377055  0.55286469  1
  Se  Se117  1  0.07336112  0.40854995  0.06693686  1
  Se  Se118  1  0.08339062  0.40616702  0.55719703  1
  Se  Se119  1  0.08865165  0.75460274  0.05937452  1
  Se  Se120  1  0.07907628  0.74552216  0.55113507  1
  Se  Se121  1  0.41604728  0.08894121  0.04568128  1
  Se  Se122  1  0.41091922  0.07731610  0.55749462  1
  Se  Se123  1  0.41149899  0.41962145  0.05612416  1
  Se  Se124  1  0.41436133  0.40265995  0.55373914  1
  Se  Se125  1  0.41621127  0.74790427  0.06518316  1
  Se  Se126  1  0.40367557  0.74201965  0.55770082  1
  Se  Se127  1  0.75297178  0.08633745  0.05496250  1
  Se  Se128  1  0.76078315  0.08986647  0.55226465  1
  Se  Se129  1  0.75025730  0.41246007  0.05657080  1
  Se  Se130  1  0.75162021  0.41649304  0.56099553  1
  Se  Se131  1  0.75657699  0.74908217  0.05109102  1
  Se  Se132  1  0.75206453  0.75933644  0.54729878  1
  Se  Se133  1  0.24458369  0.25087594  0.05016311  1
  Se  Se134  1  0.25384788  0.24759899  0.55415973  1
  Se  Se135  1  0.25066595  0.58840013  0.07010638  1
  Se  Se136  1  0.25926489  0.58159705  0.55973388  1
  Se  Se137  1  0.24826156  0.92209650  0.04942212  1
  Se  Se138  1  0.24108004  0.91148295  0.55543996  1
  Se  Se139  1  0.57734519  0.24786660  0.05578258  1
  Se  Se140  1  0.59431459  0.25228714  0.55971458  1
  Se  Se141  1  0.58337533  0.57904950  0.05185672  1
  Se  Se142  1  0.59281031  0.59671203  0.55201776  1
  Se  Se143  1  0.59367755  0.92097012  0.06167180  1
  Se  Se144  1  0.59083516  0.93508086  0.55674866  1
  Se  Se145  1  0.91137992  0.24386951  0.05984709  1
  Se  Se146  1  0.91754122  0.25012963  0.54880035  1
  Se  Se147  1  0.91929488  0.58173287  0.05401855  1
  Se  Se148  1  0.92035596  0.58495245  0.55335290  1
  Se  Se149  1  0.92010419  0.91644514  0.05342470  1
  Se  Se150  1  0.91615563  0.91592748  0.55133405  1
  Se  Se151  1  0.09176238  0.24282822  0.43771844  1
  Se  Se152  1  0.08174424  0.25592529  0.94954008  1
  Se  Se153  1  0.06993846  0.58450338  0.43397580  1
  Se  Se154  1  0.07879724  0.59124262  0.94356727  1
  Se  Se155  1  0.08372293  0.91156220  0.44811179  1
  Se  Se156  1  0.08766606  0.91891747  0.94480121  1
  Se  Se157  1  0.41296215  0.25611664  0.43820556  1
  Se  Se158  1  0.41327360  0.24837986  0.94429508  1
  Se  Se159  1  0.40155653  0.59043764  0.44161134  1
  Se  Se160  1  0.41543633  0.57852648  0.95898820  1
  Se  Se161  1  0.40225448  0.91980969  0.44096659  1
  Se  Se162  1  0.41086455  0.92130131  0.94050280  1
  Se  Se163  1  0.76199132  0.25181541  0.44333265  1
  Se  Se164  1  0.74795172  0.24861536  0.95274017  1
  Se  Se165  1  0.74358786  0.59325701  0.43181763  1
  Se  Se166  1  0.75640676  0.57915906  0.94879608  1
  Se  Se167  1  0.75401631  0.91836251  0.44489720  1
  Se  Se168  1  0.76042567  0.91518278  0.95195323  1
  Se  Se169  1  0.24557251  0.08672968  0.45035139  1
  Se  Se170  1  0.24387460  0.08872727  0.93996804  1
  Se  Se171  1  0.25675428  0.40624825  0.43721997  1
  Se  Se172  1  0.25108424  0.41352108  0.94170477  1
  Se  Se173  1  0.23729215  0.74645438  0.45262984  1
  Se  Se174  1  0.24885617  0.75058683  0.95782498  1
  Se  Se175  1  0.59671084  0.08110223  0.43379675  1
  Se  Se176  1  0.58339699  0.08234804  0.95410497  1
  Se  Se177  1  0.59435730  0.40759104  0.44328382  1
  Se  Se178  1  0.57887134  0.41606493  0.94911351  1
  Se  Se179  1  0.58058987  0.75102965  0.43368782  1
  Se  Se180  1  0.59663819  0.74118205  0.93870532  1
  Se  Se181  1  0.92279160  0.08583010  0.44152243  1
  Se  Se182  1  0.91757532  0.08688954  0.95233288  1
  Se  Se183  1  0.93628288  0.41064463  0.43536471  1
  Se  Se184  1  0.90981360  0.41689840  0.95667433  1
  Se  Se185  1  0.90971127  0.75441771  0.44047725  1
  Se  Se186  1  0.92383434  0.75225279  0.94775251  1
  Se  Se187  1  0.25451525  0.24223504  0.29825924  1
  Se  Se188  1  0.24459215  0.24709945  0.79725456  1
  Se  Se189  1  0.24998624  0.59495128  0.29992035  1
  Se  Se190  1  0.24332219  0.57597090  0.81142226  1
  Se  Se191  1  0.23972575  0.91580092  0.31433098  1
  Se  Se192  1  0.24794480  0.91801209  0.80521467  1
  Se  Se193  1  0.58440238  0.25611932  0.29809867  1
  Se  Se194  1  0.58475370  0.25253041  0.80750338  1
  Se  Se195  1  0.58465746  0.58543773  0.29866006  1
  Se  Se196  1  0.57043704  0.57437233  0.81351083  1
  Se  Se197  1  0.57612786  0.91093780  0.30649549  1
  Se  Se198  1  0.57679320  0.91149071  0.81195726  1
  Se  Se199  1  0.94106233  0.27097543  0.30056381  1
  Se  Se200  1  0.91056079  0.24482436  0.81932455  1
  Se  Se201  1  0.91536029  0.57671621  0.29633618  1
  Se  Se202  1  0.91427268  0.57854962  0.81133765  1
  Se  Se203  1  0.91616639  0.91598469  0.30062057  1
  Se  Se204  1  0.91614938  0.92221185  0.80121402  1
  Se  Se205  1  0.08215601  0.07716426  0.30046214  1
  Se  Se206  1  0.07746129  0.08725310  0.80113816  1
  Se  Se207  1  0.11322436  0.42629732  0.29104415  1
  Se  Se208  1  0.08753041  0.42500834  0.81207937  1
  Se  Se209  1  0.07656477  0.75101901  0.30373082  1
  Se  Se210  1  0.08609098  0.75507090  0.81119617  1
  Se  Se211  1  0.42832445  0.09436347  0.30497329  1
  Se  Se212  1  0.41340078  0.08452926  0.80515271  1
  Se  Se213  1  0.41615396  0.42175168  0.30256788  1
  Se  Se214  1  0.41111016  0.41235086  0.80773178  1
  Se  Se215  1  0.41061697  0.74972742  0.30322433  1
  Se  Se216  1  0.41675791  0.75136588  0.81140522  1
  Se  Se217  1  0.76157441  0.09066124  0.30765742  1
  Se  Se218  1  0.75202593  0.08922502  0.81827543  1
  Se  Se219  1  0.74799294  0.41231735  0.30110351  1
  Se  Se220  1  0.74630367  0.41319539  0.80863456  1
  Se  Se221  1  0.74767676  0.74875009  0.29697115  1
  Se  Se222  1  0.76743850  0.76110586  0.80637841  1
  Se  Se223  1  0.24785675  0.08526758  0.18400582  1
  Se  Se224  1  0.27078047  0.06045442  0.68986874  1
  Se  Se225  1  0.23608206  0.41952437  0.20340353  1
  Se  Se226  1  0.24570363  0.41281155  0.70551750  1
  Se  Se227  1  0.24969219  0.75664626  0.20005380  1
  Se  Se228  1  0.23668195  0.75582670  0.69222403  1
  Se  Se229  1  0.57860376  0.08841467  0.18593456  1
  Se  Se230  1  0.57364309  0.09574164  0.69022038  1
  Se  Se231  1  0.58340081  0.41586495  0.19390566  1
  Se  Se232  1  0.59014280  0.41170082  0.69962630  1
  Se  Se233  1  0.58489412  0.74472212  0.19616336  1
  Se  Se234  1  0.58272911  0.75171678  0.69653879  1
  Se  Se235  1  0.92005113  0.07945878  0.20250465  1
  Se  Se236  1  0.90969233  0.08621497  0.69772961  1
  Se  Se237  1  0.91434860  0.41436630  0.19460238  1
  Se  Se238  1  0.91443989  0.42278593  0.69432566  1
  Se  Se239  1  0.91939258  0.74570154  0.19371987  1
  Se  Se240  1  0.91006888  0.75736566  0.68809823  1
  Se  Se241  1  0.08304170  0.24573956  0.19561846  1
  Se  Se242  1  0.08226391  0.23840712  0.68681788  1
  Se  Se243  1  0.08376934  0.58062856  0.20366097  1
  Se  Se244  1  0.09825016  0.56895342  0.69600842  1
  Se  Se245  1  0.08004749  0.92085241  0.19701770  1
  Se  Se246  1  0.07661764  0.92264086  0.69436196  1
  Se  Se247  1  0.40970623  0.25622626  0.19246161  1
  Se  Se248  1  0.41602387  0.25498458  0.69967587  1
  Se  Se249  1  0.41109501  0.58348620  0.19671198  1
  Se  Se250  1  0.42459035  0.56720018  0.68708843  1
  Se  Se251  1  0.42304479  0.91033024  0.19031029  1
  Se  Se252  1  0.41176995  0.91407704  0.70328117  1
  Se  Se253  1  0.74781263  0.24832486  0.20231328  1
  Se  Se254  1  0.75131030  0.25458586  0.70181598  1
  Se  Se255  1  0.74711597  0.58449426  0.19165729  1
  Se  Se256  1  0.75853746  0.57762285  0.69180440  1
  Se  Se257  1  0.75913926  0.91337704  0.18485487  1
  Se  Se258  1  0.75178101  0.91252163  0.69084599  1
