# generated using pymatgen
data_In86Cu29Se144
_symmetry_space_group_name_H-M   'P 1'
_cell_length_a   17.57511847
_cell_length_b   17.57698552
_cell_length_c   23.44154911
_cell_angle_alpha   90.02017324
_cell_angle_beta   90.00837734
_cell_angle_gamma   89.98765876
_symmetry_Int_Tables_number   1
_chemical_formula_structural   In86Cu29Se144
_chemical_formula_sum   'In86 Cu29 Se144'
_cell_volume   7241.50646337
_cell_formula_units_Z   1
loop_
 _symmetry_equiv_pos_site_id
 _symmetry_equiv_pos_as_xyz
  1  'x, y, z'
loop_
 _atom_site_type_symbol
 _atom_site_label
 _atom_site_symmetry_multiplicity
 _atom_site_fract_x
 _atom_site_fract_y
 _atom_site_fract_z
 _atom_site_occupancy
  In  In0  1  0.00679530  0.17386919  0.11407897  1
  In  In1  1  -0.00014498  0.15289757  0.62892239  1
  In  In2  1  0.01543153  0.49460766  0.13829022  1
  In  In3  1  0.02198202  0.52023769  0.60306898  1
  In  In4  1  -0.00698977  0.83088590  0.12600109  1
  In  In5  1  0.00755540  0.82574223  0.63568737  1
  In  In6  1  0.34021322  0.17011583  0.11795053  1
  In  In7  1  0.33035961  0.17868806  0.63978365  1
  In  In8  1  0.31759208  0.50635860  0.13829352  1
  In  In9  1  0.31668487  0.51066687  0.63431166  1
  In  In10  1  0.33660035  0.82070278  0.12057069  1
  In  In11  1  0.32352447  0.84153103  0.63270187  1
  In  In12  1  0.66678103  0.16676361  0.12065425  1
  In  In13  1  0.66434705  0.16075922  0.63185770  1
  In  In14  1  0.65826749  0.49120913  0.12848733  1
  In  In15  1  0.67858117  0.48997095  0.61928813  1
  In  In16  1  0.67407727  0.83975878  0.11912388  1
  In  In17  1  0.66991575  0.85088524  0.62528391  1
  In  In18  1  0.16129359  0.00135177  0.38740576  1
  In  In19  1  0.17875924  0.01022497  0.86612317  1
  In  In20  1  0.16541490  0.33267338  0.37456375  1
  In  In21  1  0.17708515  0.32547741  0.88485640  1
  In  In22  1  0.16854916  0.66180826  0.37493245  1
  In  In23  1  0.15672886  0.65912531  0.87215331  1
  In  In24  1  0.51329845  -0.01047516  0.36968288  1
  In  In25  1  0.49588683  0.00274279  0.87501169  1
  In  In26  1  0.49532055  0.32929732  0.36531114  1
  In  In27  1  0.48169851  0.33445857  0.87600615  1
  In  In28  1  0.47284623  0.67002581  0.36877455  1
  In  In29  1  0.49809794  0.67816065  0.87785796  1
  In  In30  1  0.82619152  0.01132095  0.37056038  1
  In  In31  1  0.83204488  0.00339172  0.87432470  1
  In  In32  1  0.86051908  0.34355855  0.34890160  1
  In  In33  1  0.82388331  0.32762066  0.87819299  1
  In  In34  1  0.84129758  0.64865339  0.37832124  1
  In  In35  1  0.85938441  0.67617593  0.87674432  1
  In  In36  1  0.00370511  0.18571895  0.36893559  1
  In  In37  1  0.00401778  0.16703539  0.87688520  1
  In  In38  1  0.00867834  0.49601116  0.36972850  1
  In  In39  1  0.01120116  0.52060429  0.87568126  1
  In  In40  1  0.01418761  0.82452638  0.38134938  1
  In  In41  1  -0.00730166  0.82595118  0.87625912  1
  In  In42  1  0.31809204  0.16597051  0.37735802  1
  In  In43  1  0.33394050  0.16683561  0.87663206  1
  In  In44  1  0.30528547  0.48241439  0.35314663  1
  In  In45  1  0.31724144  0.49119985  0.86859558  1
  In  In46  1  0.32745241  0.80866602  0.36396148  1
  In  In47  1  0.34171950  0.84299116  0.86715710  1
  In  In48  1  0.68013427  0.16770338  0.35515471  1
  In  In49  1  0.67727477  0.15199886  0.88339242  1
  In  In50  1  0.67894616  0.49757530  0.37166070  1
  In  In51  1  0.66913402  0.48817787  0.87573686  1
  In  In52  1  0.65258514  0.84175984  0.36446551  1
  In  In53  1  0.65623563  0.85160522  0.88540914  1
  In  In54  1  0.15478255  0.00576607  0.11976603  1
  In  In55  1  0.16539046  -0.00239208  0.62753723  1
  In  In56  1  0.16860653  0.33563298  0.13104003  1
  In  In57  1  0.17129754  0.34213280  0.61957100  1
  In  In58  1  0.17507932  0.66039855  0.13441916  1
  In  In59  1  0.16276553  0.67445455  0.62398779  1
  In  In60  1  0.50671896  0.00853082  0.11287746  1
  In  In61  1  0.49567373  0.01644477  0.64702215  1
  In  In62  1  0.50600336  0.32223819  0.13525777  1
  In  In63  1  0.49218249  0.31854364  0.62838992  1
  In  In64  1  0.49196717  0.66543636  0.12002064  1
  In  In65  1  0.48475885  0.66019773  0.62647927  1
  In  In66  1  0.82520905  -0.00939022  0.11568332  1
  In  In67  1  0.83574351  0.00315131  0.64571324  1
  In  In68  1  0.84305569  0.32051924  0.13383775  1
  In  In69  1  0.83308080  0.34258140  0.62154005  1
  In  In70  1  0.84084894  0.67989908  0.12246047  1
  In  In71  1  0.85877417  0.66804510  0.62293660  1
  In  In72  1  0.66405052  0.67268280  0.75313339  1
  In  In73  1  -0.00135379  0.33539977  0.75417437  1
  In  In74  1  0.49915346  0.16295396  0.50693235  1
  In  In75  1  0.49751955  0.50193453  0.50195772  1
  In  In76  1  0.33966337  -0.00013052  0.24637881  1
  In  In77  1  0.83810808  0.49923550  0.00265802  1
  In  In78  1  0.67008239  0.66435120  0.24892339  1
  In  In79  1  0.66288615  0.32773030  0.74776805  1
  In  In80  1  0.16647123  0.83293919  -0.00222619  1
  In  In81  1  -0.00969951  0.00073847  0.24636930  1
  In  In82  1  0.83931785  0.83280774  0.49908056  1
  In  In83  1  0.49074435  0.49827631  0.01012283  1
  In  In84  1  0.49498410  0.83615035  0.49114810  1
  In  In85  1  0.84043376  0.17095637  0.49687969  1
  Cu  Cu86  1  0.00475542  0.33686727  0.48966639  1
  Cu  Cu87  1  0.32600981  0.33416439  0.00364421  1
  Cu  Cu88  1  0.84608652  0.50782155  0.74411325  1
  Cu  Cu89  1  0.31923307  0.66574649  0.49779025  1
  Cu  Cu90  1  0.49969571  0.16494666  0.24292561  1
  Cu  Cu91  1  0.16488589  0.50170390  0.74458588  1
  Cu  Cu92  1  0.48972018  0.50021196  0.75021553  1
  Cu  Cu93  1  0.16218532  0.83160551  0.75103180  1
  Cu  Cu94  1  0.66573178  0.00031245  -0.00209477  1
  Cu  Cu95  1  0.33187312  0.66556171  0.00002074  1
  Cu  Cu96  1  -0.00244965  0.00323081  -0.00380728  1
  Cu  Cu97  1  0.67274511  0.66956780  0.49557621  1
  Cu  Cu98  1  0.67636022  0.33501191  0.49277365  1
  Cu  Cu99  1  0.49778052  0.83298818  0.75559025  1
  Cu  Cu100  1  0.33376032  0.00102765  -0.00832278  1
  Cu  Cu101  1  0.82884653  0.83680718  0.75598269  1
  Cu  Cu102  1  0.00058526  0.33897491  0.00466099  1
  Cu  Cu103  1  0.67764928  0.67375356  -0.00405513  1
  Cu  Cu104  1  0.00058539  -0.00254151  0.50657184  1
  Cu  Cu105  1  0.17177471  0.82796248  0.25311858  1
  Cu  Cu106  1  0.83880500  0.49580854  0.25024810  1
  Cu  Cu107  1  0.66149793  0.32281708  0.00534135  1
  Cu  Cu108  1  0.32726643  0.33723141  0.50214172  1
  Cu  Cu109  1  0.32534264  -0.00623024  0.50302971  1
  Cu  Cu110  1  0.16771292  0.16714424  0.75352121  1
  Cu  Cu111  1  0.83928079  0.82910140  0.24997498  1
  Cu  Cu112  1  0.49456344  0.50068103  0.24717554  1
  Cu  Cu113  1  0.66494148  0.00460661  0.50220803  1
  Cu  Cu114  1  0.16452257  0.17158262  0.24846415  1
  Se  Se115  1  0.08537143  0.08680022  0.04498191  1
  Se  Se116  1  0.08525611  0.08339186  0.55644656  1
  Se  Se117  1  0.08504396  0.41750545  0.05911309  1
  Se  Se118  1  0.09028287  0.41569134  0.54483670  1
  Se  Se119  1  0.08592329  0.74582450  0.06457456  1
  Se  Se120  1  0.06705312  0.74386570  0.55725254  1
  Se  Se121  1  0.41492429  0.08513417  0.04729080  1
  Se  Se122  1  0.40693829  0.07298543  0.56405823  1
  Se  Se123  1  0.40488427  0.40874331  0.07090837  1
  Se  Se124  1  0.40950494  0.41272586  0.56494920  1
  Se  Se125  1  0.42067733  0.75000270  0.04569207  1
  Se  Se126  1  0.40565737  0.74579682  0.55487668  1
  Se  Se127  1  0.74889019  0.08360952  0.05127149  1
  Se  Se128  1  0.75201583  0.07804019  0.56053252  1
  Se  Se129  1  0.74349371  0.40896974  0.05916394  1
  Se  Se130  1  0.76030169  0.41915936  0.54380541  1
  Se  Se131  1  0.75874895  0.75589378  0.05098074  1
  Se  Se132  1  0.74460271  0.74839895  0.56201555  1
  Se  Se133  1  0.24397595  0.24982899  0.05814447  1
  Se  Se134  1  0.25484067  0.24751136  0.55932606  1
  Se  Se135  1  0.25292266  0.58509552  0.05756008  1
  Se  Se136  1  0.24249503  0.58243930  0.55617872  1
  Se  Se137  1  0.25757194  0.92529734  0.05922104  1
  Se  Se138  1  0.24279800  0.91022816  0.55585364  1
  Se  Se139  1  0.57076743  0.24423977  0.05482586  1
  Se  Se140  1  0.59841977  0.25875781  0.55751843  1
  Se  Se141  1  0.59684882  0.59074415  0.05482459  1
  Se  Se142  1  0.59214316  0.59320238  0.56063536  1
  Se  Se143  1  0.58386614  0.91325233  0.04993204  1
  Se  Se144  1  0.57518076  0.92973308  0.55907614  1
  Se  Se145  1  0.91252184  0.25338581  0.05007600  1
  Se  Se146  1  0.93164991  0.25978847  0.55873614  1
  Se  Se147  1  0.92661135  0.58230772  0.06594990  1
  Se  Se148  1  0.89795495  0.56395716  0.55335018  1
  Se  Se149  1  0.92307984  0.91593678  0.05285332  1
  Se  Se150  1  0.91625240  0.92433046  0.56732078  1
  Se  Se151  1  0.08900308  0.24461802  0.44675344  1
  Se  Se152  1  0.07936717  0.25378219  0.94754946  1
  Se  Se153  1  0.08748336  0.57601905  0.44097448  1
  Se  Se154  1  0.08793948  0.58796230  0.95354410  1
  Se  Se155  1  0.08290824  0.91265585  0.45355192  1
  Se  Se156  1  0.08322853  0.92602742  0.93589369  1
  Se  Se157  1  0.41115921  0.25603984  0.44483486  1
  Se  Se158  1  0.41045215  0.25289993  0.95010640  1
  Se  Se159  1  0.40121311  0.58149131  0.44111889  1
  Se  Se160  1  0.41024115  0.58211035  0.93863901  1
  Se  Se161  1  0.40293726  0.92548219  0.43256242  1
  Se  Se162  1  0.41886137  0.91275089  0.94544898  1
  Se  Se163  1  0.75091010  0.25328118  0.43225859  1
  Se  Se164  1  0.75017973  0.24689416  0.95109968  1
  Se  Se165  1  0.75052854  0.57755466  0.44753433  1
  Se  Se166  1  0.74982990  0.58750105  0.93581841  1
  Se  Se167  1  0.74114594  0.92163949  0.44125076  1
  Se  Se168  1  0.75662607  0.91849590  0.94865866  1
  Se  Se169  1  0.24654744  0.08584779  0.45267742  1
  Se  Se170  1  0.24608698  0.08664365  0.94605039  1
  Se  Se171  1  0.24884582  0.41809101  0.44316988  1
  Se  Se172  1  0.24720877  0.42286223  0.95144565  1
  Se  Se173  1  0.24373932  0.75682178  0.44468173  1
  Se  Se174  1  0.25802851  0.74723786  0.93547452  1
  Se  Se175  1  0.59142447  0.08563125  0.43777859  1
  Se  Se176  1  0.57866538  0.08227958  0.94719051  1
  Se  Se177  1  0.58455236  0.41024885  0.43890687  1
  Se  Se178  1  0.58391072  0.40939005  0.94750058  1
  Se  Se179  1  0.58770243  0.74062027  0.43521650  1
  Se  Se180  1  0.58463190  0.75118307  0.94750197  1
  Se  Se181  1  0.92896018  0.07585590  0.43854193  1
  Se  Se182  1  0.91506031  0.08783680  0.94387974  1
  Se  Se183  1  0.91548549  0.41272297  0.43589791  1
  Se  Se184  1  0.92492260  0.41324607  0.93558364  1
  Se  Se185  1  0.92725585  0.73457627  0.44698278  1
  Se  Se186  1  0.92826696  0.74678577  0.95653229  1
  Se  Se187  1  0.25078242  0.25048081  0.30351593  1
  Se  Se188  1  0.24998366  0.25151752  0.80664057  1
  Se  Se189  1  0.28618824  0.61733983  0.31379584  1
  Se  Se190  1  0.24584673  0.58556681  0.80184167  1
  Se  Se191  1  0.24305410  0.91932967  0.31090942  1
  Se  Se192  1  0.24967582  0.91566731  0.79960015  1
  Se  Se193  1  0.58200390  0.24908230  0.29895116  1
  Se  Se194  1  0.58450897  0.25031973  0.82132122  1
  Se  Se195  1  0.57438264  0.57895795  0.31150190  1
  Se  Se196  1  0.57663312  0.57342115  0.81067136  1
  Se  Se197  1  0.58499424  0.92206522  0.28890278  1
  Se  Se198  1  0.58091732  0.91803480  0.80565978  1
  Se  Se199  1  0.88899295  0.21225617  0.30485194  1
  Se  Se200  1  0.90510367  0.24399960  0.80768729  1
  Se  Se201  1  0.92132308  0.58109128  0.30178084  1
  Se  Se202  1  0.92474716  0.58947394  0.80132710  1
  Se  Se203  1  0.91404011  0.90726645  0.31619104  1
  Se  Se204  1  0.91719540  0.91600836  0.80853764  1
  Se  Se205  1  0.08855148  0.08433701  0.30695747  1
  Se  Se206  1  0.08073100  0.08571079  0.80368826  1
  Se  Se207  1  0.06367138  0.38799998  0.30582907  1
  Se  Se208  1  0.09291670  0.42244282  0.81279401  1
  Se  Se209  1  0.08538512  0.74661351  0.30458879  1
  Se  Se210  1  0.07931355  0.74904893  0.80562948  1
  Se  Se211  1  0.42351250  0.09102760  0.31260875  1
  Se  Se212  1  0.40073716  0.07200082  0.80844133  1
  Se  Se213  1  0.41266469  0.41228655  0.29800202  1
  Se  Se214  1  0.40814140  0.41370303  0.80141436  1
  Se  Se215  1  0.44522583  0.78240678  0.30198227  1
  Se  Se216  1  0.41444998  0.74422215  0.80204374  1
  Se  Se217  1  0.74169971  0.06479394  0.29168598  1
  Se  Se218  1  0.74613458  0.08006888  0.80366698  1
  Se  Se219  1  0.74782925  0.41356767  0.29753840  1
  Se  Se220  1  0.76264159  0.42487104  0.80038981  1
  Se  Se221  1  0.75838963  0.75227058  0.31478182  1
  Se  Se222  1  0.75162742  0.75558509  0.81852038  1
  Se  Se223  1  0.24188058  0.08733266  0.19005300  1
  Se  Se224  1  0.24783664  0.08255530  0.69657416  1
  Se  Se225  1  0.23886385  0.42148765  0.20520834  1
  Se  Se226  1  0.24908140  0.41053929  0.69918746  1
  Se  Se227  1  0.25862018  0.75156605  0.19836818  1
  Se  Se228  1  0.24705956  0.74841883  0.69751990  1
  Se  Se229  1  0.58237448  0.08270445  0.19026278  1
  Se  Se230  1  0.59337341  0.08654783  0.70890252  1
  Se  Se231  1  0.58198780  0.41442657  0.20206901  1
  Se  Se232  1  0.57423887  0.42532087  0.68812500  1
  Se  Se233  1  0.58457831  0.74992286  0.18442612  1
  Se  Se234  1  0.57467006  0.75834194  0.68609922  1
  Se  Se235  1  0.91207779  0.08589061  0.17801019  1
  Se  Se236  1  0.91840673  0.09127826  0.70642262  1
  Se  Se237  1  0.92188807  0.41070045  0.19868521  1
  Se  Se238  1  0.92484538  0.42770037  0.68441055  1
  Se  Se239  1  0.92394503  0.74534923  0.20070188  1
  Se  Se240  1  0.91194349  0.75322641  0.70281151  1
  Se  Se241  1  0.07762465  0.24858898  0.19376126  1
  Se  Se242  1  0.08912461  0.24873319  0.69095963  1
  Se  Se243  1  0.08905703  0.58624713  0.20454853  1
  Se  Se244  1  0.08119008  0.58384486  0.69182331  1
  Se  Se245  1  0.09137441  0.90975107  0.19441095  1
  Se  Se246  1  0.08084587  0.92054838  0.69998409  1
  Se  Se247  1  0.40803281  0.24714820  0.19808095  1
  Se  Se248  1  0.43662558  0.23307759  0.70484380  1
  Se  Se249  1  0.41693222  0.58838810  0.19495396  1
  Se  Se250  1  0.40656005  0.58831943  0.70208330  1
  Se  Se251  1  0.42276598  0.91486616  0.18050868  1
  Se  Se252  1  0.41491702  0.91571529  0.70029088  1
  Se  Se253  1  0.72913929  0.26610096  0.18843695  1
  Se  Se254  1  0.76370825  0.24624865  0.69045620  1
  Se  Se255  1  0.76018008  0.57572341  0.18647489  1
  Se  Se256  1  0.75339888  0.58320694  0.68974311  1
  Se  Se257  1  0.75811592  0.90971043  0.19466673  1
  Se  Se258  1  0.74217329  0.91996793  0.70561771  1
