# generated using pymatgen
data_In86Cu29Se144
_symmetry_space_group_name_H-M   'P 1'
_cell_length_a   17.56364524
_cell_length_b   17.56078974
_cell_length_c   23.42464692
_cell_angle_alpha   90.00435884
_cell_angle_beta   89.99054624
_cell_angle_gamma   89.99578554
_symmetry_Int_Tables_number   1
_chemical_formula_structural   In86Cu29Se144
_chemical_formula_sum   'In86 Cu29 Se144'
_cell_volume   7224.89840555
_cell_formula_units_Z   1
loop_
 _symmetry_equiv_pos_site_id
 _symmetry_equiv_pos_as_xyz
  1  'x, y, z'
loop_
 _atom_site_type_symbol
 _atom_site_label
 _atom_site_symmetry_multiplicity
 _atom_site_fract_x
 _atom_site_fract_y
 _atom_site_fract_z
 _atom_site_occupancy
  In  In0  1  -0.01545966  0.15493147  0.13134132  1
  In  In1  1  0.00008265  0.14724322  0.61984457  1
  In  In2  1  0.01568104  0.50168716  0.12356137  1
  In  In3  1  0.00536068  0.50779779  0.62378441  1
  In  In4  1  0.00517928  0.84140179  0.11879925  1
  In  In5  1  -0.00098757  0.83896236  0.63283129  1
  In  In6  1  0.34573024  0.15895653  0.13395251  1
  In  In7  1  0.33787969  0.18033164  0.62067129  1
  In  In8  1  0.33972465  0.50596459  0.11940097  1
  In  In9  1  0.33277129  0.50382851  0.62334147  1
  In  In10  1  0.34385971  0.83740277  0.10620048  1
  In  In11  1  0.32155021  0.82752542  0.62941637  1
  In  In12  1  0.66470082  0.16969640  0.13671131  1
  In  In13  1  0.66213923  0.16261562  0.62890492  1
  In  In14  1  0.65436023  0.51194445  0.13372080  1
  In  In15  1  0.66958493  0.50522352  0.61432765  1
  In  In16  1  0.66699479  0.83323769  0.11602085  1
  In  In17  1  0.67251415  0.82282518  0.63236573  1
  In  In18  1  0.17348798  0.01066386  0.36362631  1
  In  In19  1  0.15279291  -0.01326837  0.86788852  1
  In  In20  1  0.16406340  0.32995348  0.37791344  1
  In  In21  1  0.18786228  0.33927831  0.87441078  1
  In  In22  1  0.16158023  0.66699124  0.37936467  1
  In  In23  1  0.17000940  0.66369178  0.87910296  1
  In  In24  1  0.50619162  0.00736356  0.35959392  1
  In  In25  1  0.53226199  -0.03014775  0.90719357  1
  In  In26  1  0.50948090  0.35161249  0.36341902  1
  In  In27  1  0.49154450  0.33798936  0.88788698  1
  In  In28  1  0.49929226  0.64823374  0.37713732  1
  In  In29  1  0.50919968  0.67397070  0.87550911  1
  In  In30  1  0.82586513  -0.00888717  0.36491887  1
  In  In31  1  0.81261174  -0.02433618  0.86583173  1
  In  In32  1  0.82934145  0.34305567  0.37760487  1
  In  In33  1  0.83095876  0.34123684  0.87268688  1
  In  In34  1  0.82743030  0.67623448  0.38374087  1
  In  In35  1  0.83912380  0.68039765  0.87174284  1
  In  In36  1  0.01192560  0.17039072  0.37519704  1
  In  In37  1  0.01383361  0.14857055  0.87222663  1
  In  In38  1  0.00138588  0.49626158  0.38577031  1
  In  In39  1  0.00926325  0.52022335  0.86249220  1
  In  In40  1  -0.01225138  0.82730248  0.37441591  1
  In  In41  1  -0.00118020  0.83157106  0.87818674  1
  In  In42  1  0.32657683  0.16993427  0.36367514  1
  In  In43  1  0.34534673  0.17137870  0.87624928  1
  In  In44  1  0.34313242  0.49332551  0.38113024  1
  In  In45  1  0.34004746  0.51589330  0.88260495  1
  In  In46  1  0.32872600  0.84085682  0.36590946  1
  In  In47  1  0.35168680  0.79927398  0.90106480  1
  In  In48  1  0.67216867  0.16687166  0.36151086  1
  In  In49  1  0.66884020  0.15219468  0.88242486  1
  In  In50  1  0.66362847  0.50033280  0.37456246  1
  In  In51  1  0.64304341  0.51844558  0.88461030  1
  In  In52  1  0.67339159  0.84211407  0.36542458  1
  In  In53  1  0.67328736  0.83250163  0.88033263  1
  In  In54  1  0.16820241  -0.00028698  0.12923406  1
  In  In55  1  0.16000122  -0.00997612  0.62104304  1
  In  In56  1  0.17468335  0.35512298  0.12516205  1
  In  In57  1  0.17320908  0.33604686  0.61375610  1
  In  In58  1  0.18183752  0.67399073  0.10408188  1
  In  In59  1  0.17452179  0.64583958  0.64920707  1
  In  In60  1  0.50093799  -0.00613688  0.11672048  1
  In  In61  1  0.50995567  0.00936654  0.63224092  1
  In  In62  1  0.50273246  0.33298067  0.12951503  1
  In  In63  1  0.49474865  0.33670193  0.62299379  1
  In  In64  1  0.51876335  0.68762645  0.08926905  1
  In  In65  1  0.51384949  0.64710507  0.65203802  1
  In  In66  1  0.83281554  -0.00286490  0.13323066  1
  In  In67  1  0.84039557  -0.01385421  0.62604246  1
  In  In68  1  0.82408379  0.32079160  0.13332078  1
  In  In69  1  0.81954922  0.35033167  0.61749711  1
  In  In70  1  0.80793812  0.67251843  0.12007341  1
  In  In71  1  0.83104634  0.66980117  0.62379630  1
  In  In72  1  0.83723201  0.16774585  0.49092670  1
  In  In73  1  -0.00173928  0.66788934  0.25334149  1
  In  In74  1  0.33834626  0.34007138  0.74959532  1
  In  In75  1  0.33429249  -0.00535940  0.75814619  1
  In  In76  1  0.00029014  0.32842535  0.75302704  1
  In  In77  1  0.15769608  0.82339166  0.50289065  1
  In  In78  1  0.49951842  0.17353426  0.49428402  1
  In  In79  1  0.66657031  0.33380107  0.74474527  1
  In  In80  1  0.82900380  0.16032008  0.01088753  1
  In  In81  1  0.34326299  0.67084007  0.23820742  1
  In  In82  1  0.83405066  0.50484689  -0.00460961  1
  In  In83  1  -0.00498632  0.33050792  0.25368883  1
  In  In84  1  0.17252815  0.16816888  0.00073211  1
  In  In85  1  0.50013967  0.82938673  0.50391793  1
  Cu  Cu86  1  0.33352372  0.00710984  0.48703836  1
  Cu  Cu87  1  0.49270975  0.16486918  0.24448449  1
  Cu  Cu88  1  0.83038186  0.82875629  0.24728497  1
  Cu  Cu89  1  0.32611800  0.33445827  0.49548998  1
  Cu  Cu90  1  0.51367939  0.15662784  0.76052725  1
  Cu  Cu91  1  0.82349425  0.50852135  0.74529571  1
  Cu  Cu92  1  0.66547737  0.33477462  0.00942343  1
  Cu  Cu93  1  0.17889838  0.50776634  0.24908092  1
  Cu  Cu94  1  0.82721011  0.49887281  0.25130699  1
  Cu  Cu95  1  0.50344780  0.82869113  0.23557251  1
  Cu  Cu96  1  0.33229249  0.66016041  0.50943222  1
  Cu  Cu97  1  -0.00246202  0.33560351  0.50166189  1
  Cu  Cu98  1  0.67510262  -0.00531013  0.49511849  1
  Cu  Cu99  1  0.16772136  0.84926640  0.24154494  1
  Cu  Cu100  1  0.16506016  0.15706358  0.74166699  1
  Cu  Cu101  1  0.66322505  0.66618820  0.50375776  1
  Cu  Cu102  1  0.50485944  0.50311390  0.24740901  1
  Cu  Cu103  1  0.16630058  0.82644812  0.75905155  1
  Cu  Cu104  1  0.83046608  0.83559306  0.75096149  1
  Cu  Cu105  1  0.00455562  -0.00508909  0.50051056  1
  Cu  Cu106  1  -0.00926360  -0.00262974  -0.00203203  1
  Cu  Cu107  1  0.32307241  0.00597758  0.00559144  1
  Cu  Cu108  1  -0.00073522  0.65890285  0.50661419  1
  Cu  Cu109  1  0.01097135  0.33975265  0.00147665  1
  Cu  Cu110  1  0.83969621  0.15136523  0.74905364  1
  Cu  Cu111  1  0.34267249  0.33528157  0.00408129  1
  Cu  Cu112  1  -0.00238947  0.66757762  -0.00415828  1
  Cu  Cu113  1  0.16264014  0.17414842  0.24754013  1
  Cu  Cu114  1  0.50017103  0.83741190  0.76515684  1
  Se  Se115  1  0.07200899  0.08164046  0.05562159  1
  Se  Se116  1  0.09138705  0.07933883  0.54843523  1
  Se  Se117  1  0.09398689  0.42588316  0.04846851  1
  Se  Se118  1  0.08142383  0.41973657  0.55396307  1
  Se  Se119  1  0.08012340  0.75267677  0.04980962  1
  Se  Se120  1  0.08048134  0.73563104  0.57067830  1
  Se  Se121  1  0.41383512  0.08449580  0.05407750  1
  Se  Se122  1  0.41425869  0.07585084  0.55610380  1
  Se  Se123  1  0.42720186  0.41778923  0.05715629  1
  Se  Se124  1  0.40787119  0.41243123  0.55512451  1
  Se  Se125  1  0.38241856  0.71381590  0.05515790  1
  Se  Se126  1  0.41319321  0.74238880  0.56737849  1
  Se  Se127  1  0.73371115  0.07125321  0.06394192  1
  Se  Se128  1  0.74962411  0.07967811  0.55739668  1
  Se  Se129  1  0.75108279  0.41492518  0.06396817  1
  Se  Se130  1  0.73544685  0.41349481  0.54317878  1
  Se  Se131  1  0.75583597  0.76155504  0.04358100  1
  Se  Se132  1  0.74782426  0.75315756  0.55286202  1
  Se  Se133  1  0.25849948  0.25684932  0.06365040  1
  Se  Se134  1  0.24870236  0.24379987  0.54704281  1
  Se  Se135  1  0.24126483  0.56412215  0.04902245  1
  Se  Se136  1  0.23937695  0.58473667  0.55983706  1
  Se  Se137  1  0.23979600  0.91875644  0.05404357  1
  Se  Se138  1  0.25985152  0.92068337  0.55014238  1
  Se  Se139  1  0.58632120  0.24749867  0.06173837  1
  Se  Se140  1  0.59213226  0.25643124  0.55846244  1
  Se  Se141  1  0.59510625  0.57616748  0.04653224  1
  Se  Se142  1  0.57313731  0.59242527  0.55882974  1
  Se  Se143  1  0.56048186  0.89097442  0.04894586  1
  Se  Se144  1  0.59091025  0.92525361  0.56024339  1
  Se  Se145  1  0.92644182  0.26079740  0.05898411  1
  Se  Se146  1  0.91900822  0.25411283  0.56284664  1
  Se  Se147  1  0.92171603  0.59044628  0.06363269  1
  Se  Se148  1  0.90967084  0.57795948  0.55691368  1
  Se  Se149  1  0.90934272  0.91966364  0.05692528  1
  Se  Se150  1  0.92282519  0.91103021  0.55302588  1
  Se  Se151  1  0.08167339  0.25140915  0.45033335  1
  Se  Se152  1  0.08274171  0.25631375  0.93652497  1
  Se  Se153  1  0.08652448  0.58295771  0.44995811  1
  Se  Se154  1  0.08047458  0.58000358  0.94711674  1
  Se  Se155  1  0.08456694  0.91849555  0.43444799  1
  Se  Se156  1  0.08028105  0.91701451  0.94824671  1
  Se  Se157  1  0.41027712  0.25997587  0.43292111  1
  Se  Se158  1  0.42064856  0.24255404  0.95470654  1
  Se  Se159  1  0.41614992  0.58074094  0.45314119  1
  Se  Se160  1  0.43515799  0.58570832  0.94641157  1
  Se  Se161  1  0.41797465  0.92295059  0.43612828  1
  Se  Se162  1  0.40365914  0.92291833  0.94820937  1
  Se  Se163  1  0.73631113  0.25441699  0.44093019  1
  Se  Se164  1  0.74866280  0.25930997  0.94635472  1
  Se  Se165  1  0.74511318  0.58532427  0.44540150  1
  Se  Se166  1  0.74423358  0.59946891  0.94177545  1
  Se  Se167  1  0.75622008  0.90965897  0.44289896  1
  Se  Se168  1  0.74717235  0.92051717  0.95290812  1
  Se  Se169  1  0.24816395  0.09068128  0.43891097  1
  Se  Se170  1  0.25055516  0.07683560  0.93301873  1
  Se  Se171  1  0.24368930  0.42057435  0.44334589  1
  Se  Se172  1  0.26235738  0.41726929  0.94713574  1
  Se  Se173  1  0.26345053  0.74560765  0.44295535  1
  Se  Se174  1  0.22776619  0.76119224  0.95088555  1
  Se  Se175  1  0.59141577  0.07681656  0.43990769  1
  Se  Se176  1  0.57374097  0.09635977  0.95312182  1
  Se  Se177  1  0.57212198  0.42699121  0.44363259  1
  Se  Se178  1  0.58492705  0.41565545  0.95124468  1
  Se  Se179  1  0.58763914  0.74588713  0.43716907  1
  Se  Se180  1  0.56699346  0.77549347  0.94721116  1
  Se  Se181  1  0.92511087  0.07085776  0.43580741  1
  Se  Se182  1  0.91454171  0.07969726  0.93778477  1
  Se  Se183  1  0.91074346  0.41767467  0.45096497  1
  Se  Se184  1  0.93028196  0.41609176  0.93675388  1
  Se  Se185  1  0.92107010  0.74713917  0.45221427  1
  Se  Se186  1  0.91253618  0.75475453  0.94975593  1
  Se  Se187  1  0.24330353  0.26086176  0.30004241  1
  Se  Se188  1  0.24655127  0.23625284  0.80192745  1
  Se  Se189  1  0.25425039  0.59007679  0.31053373  1
  Se  Se190  1  0.24791770  0.57732061  0.81013977  1
  Se  Se191  1  0.25617405  0.92636580  0.29539595  1
  Se  Se192  1  0.25518598  0.89884363  0.81928660  1
  Se  Se193  1  0.57370713  0.24498689  0.30317034  1
  Se  Se194  1  0.58361979  0.25046806  0.81659846  1
  Se  Se195  1  0.58701056  0.58672268  0.30201141  1
  Se  Se196  1  0.58431130  0.59076039  0.80133701  1
  Se  Se197  1  0.58057600  0.91160840  0.29623366  1
  Se  Se198  1  0.58822785  0.92101364  0.81210754  1
  Se  Se199  1  0.90587544  0.24139795  0.31338618  1
  Se  Se200  1  0.91022352  0.23512090  0.81343039  1
  Se  Se201  1  0.91206118  0.57464589  0.31325906  1
  Se  Se202  1  0.90829735  0.58755482  0.80109598  1
  Se  Se203  1  0.91694344  0.90966419  0.30019032  1
  Se  Se204  1  0.91946385  0.91442452  0.80488530  1
  Se  Se205  1  0.07988147  0.08794914  0.29876800  1
  Se  Se206  1  0.08251322  0.07230589  0.79314009  1
  Se  Se207  1  0.08877862  0.42986111  0.30508289  1
  Se  Se208  1  0.09616133  0.41852026  0.80607256  1
  Se  Se209  1  0.09648679  0.76397606  0.30574079  1
  Se  Se210  1  0.07977881  0.74459401  0.81091591  1
  Se  Se211  1  0.40850829  0.08136917  0.29821678  1
  Se  Se212  1  0.43063896  0.07699791  0.81731648  1
  Se  Se213  1  0.41286933  0.42501352  0.29816281  1
  Se  Se214  1  0.42815933  0.42576772  0.81028292  1
  Se  Se215  1  0.42873354  0.75706283  0.30809511  1
  Se  Se216  1  0.41264156  0.74898714  0.80832623  1
  Se  Se217  1  0.73309819  0.06391204  0.29991007  1
  Se  Se218  1  0.74781616  0.08176591  0.80489648  1
  Se  Se219  1  0.74550269  0.41443720  0.30416982  1
  Se  Se220  1  0.74576410  0.43079497  0.80961273  1
  Se  Se221  1  0.75097187  0.74461975  0.30368427  1
  Se  Se222  1  0.74607067  0.75184778  0.80340644  1
  Se  Se223  1  0.24625838  0.08769307  0.19628717  1
  Se  Se224  1  0.25481796  0.08398249  0.68452969  1
  Se  Se225  1  0.26246577  0.42538274  0.19631264  1
  Se  Se226  1  0.23819688  0.41982786  0.69267669  1
  Se  Se227  1  0.24426416  0.75993696  0.18568479  1
  Se  Se228  1  0.25270217  0.74719257  0.70515625  1
  Se  Se229  1  0.57355326  0.07795316  0.19221607  1
  Se  Se230  1  0.59764467  0.07718546  0.70545500  1
  Se  Se231  1  0.58870970  0.41271067  0.19966526  1
  Se  Se232  1  0.57523398  0.42536673  0.68960652  1
  Se  Se233  1  0.58158538  0.74277464  0.18081101  1
  Se  Se234  1  0.58139414  0.75711870  0.70461082  1
  Se  Se235  1  0.90043636  0.08935573  0.20429681  1
  Se  Se236  1  0.92319066  0.07133290  0.69436711  1
  Se  Se237  1  0.91322400  0.42701687  0.18940851  1
  Se  Se238  1  0.90563411  0.41834657  0.69422463  1
  Se  Se239  1  0.91245518  0.75094641  0.18618506  1
  Se  Se240  1  0.91217069  0.75230761  0.69490148  1
  Se  Se241  1  0.08554981  0.25211440  0.18289700  1
  Se  Se242  1  0.08756125  0.24268536  0.68484217  1
  Se  Se243  1  0.09903137  0.59080961  0.19063900  1
  Se  Se244  1  0.06759756  0.58067169  0.70629307  1
  Se  Se245  1  0.07255259  0.92612837  0.19504895  1
  Se  Se246  1  0.09227852  0.91347162  0.70014224  1
  Se  Se247  1  0.41179945  0.25822853  0.19890191  1
  Se  Se248  1  0.43296172  0.23698566  0.69911765  1
  Se  Se249  1  0.43903897  0.58712661  0.18127278  1
  Se  Se250  1  0.39630364  0.58895615  0.69949959  1
  Se  Se251  1  0.41417693  0.91102477  0.18611985  1
  Se  Se252  1  0.42620019  0.90924261  0.69211295  1
  Se  Se253  1  0.75109948  0.24467954  0.20753999  1
  Se  Se254  1  0.76539708  0.24086660  0.69059102  1
  Se  Se255  1  0.74880797  0.58702207  0.19879401  1
  Se  Se256  1  0.74033746  0.58806645  0.68946304  1
  Se  Se257  1  0.74349004  0.90900697  0.19388665  1
  Se  Se258  1  0.74723013  0.91950676  0.69614893  1
