# generated using pymatgen
data_In86Cu29Se144
_symmetry_space_group_name_H-M   'P 1'
_cell_length_a   17.58439785
_cell_length_b   17.58179201
_cell_length_c   23.44215404
_cell_angle_alpha   90.00737718
_cell_angle_beta   90.01511443
_cell_angle_gamma   89.97041590
_symmetry_Int_Tables_number   1
_chemical_formula_structural   In86Cu29Se144
_chemical_formula_sum   'In86 Cu29 Se144'
_cell_volume   7247.49756519
_cell_formula_units_Z   1
loop_
 _symmetry_equiv_pos_site_id
 _symmetry_equiv_pos_as_xyz
  1  'x, y, z'
loop_
 _atom_site_type_symbol
 _atom_site_label
 _atom_site_symmetry_multiplicity
 _atom_site_fract_x
 _atom_site_fract_y
 _atom_site_fract_z
 _atom_site_occupancy
  In  In0  1  0.00486696  0.17334808  0.12413885  1
  In  In1  1  0.00110026  0.16658996  0.61441877  1
  In  In2  1  0.01044094  0.48718483  0.13443887  1
  In  In3  1  0.00925911  0.50775363  0.61898136  1
  In  In4  1  -0.01346823  0.83967500  0.12764792  1
  In  In5  1  -0.00969249  0.83202696  0.62694392  1
  In  In6  1  0.32925587  0.17195674  0.13203318  1
  In  In7  1  0.33397862  0.17076162  0.62436393  1
  In  In8  1  0.32889131  0.50261102  0.13454630  1
  In  In9  1  0.32289440  0.48867530  0.61351292  1
  In  In10  1  0.32453127  0.83505588  0.13449968  1
  In  In11  1  0.34368575  0.83309133  0.62270172  1
  In  In12  1  0.67676306  0.17164138  0.12937792  1
  In  In13  1  0.65190504  0.14759039  0.60481572  1
  In  In14  1  0.66236047  0.49147650  0.13123209  1
  In  In15  1  0.66306102  0.49622404  0.61251711  1
  In  In16  1  0.68107277  0.83193442  0.12205786  1
  In  In17  1  0.67086428  0.85010705  0.61339576  1
  In  In18  1  0.18221256  0.00446505  0.37348721  1
  In  In19  1  0.17619672  0.00424170  0.87710206  1
  In  In20  1  0.16651013  0.33396692  0.37612746  1
  In  In21  1  0.17279150  0.32391973  0.88350945  1
  In  In22  1  0.15414314  0.65522919  0.36838189  1
  In  In23  1  0.15518853  0.67177891  0.87691791  1
  In  In24  1  0.49534019  0.01083660  0.38938166  1
  In  In25  1  0.49485487  -0.00165778  0.86365314  1
  In  In26  1  0.49869411  0.33321356  0.37619434  1
  In  In27  1  0.49629618  0.34110907  0.87330594  1
  In  In28  1  0.49309433  0.67451644  0.38099284  1
  In  In29  1  0.49795625  0.65494120  0.87006785  1
  In  In30  1  0.82257362  0.00746665  0.39018961  1
  In  In31  1  0.83024966  0.00510052  0.87995360  1
  In  In32  1  0.83743507  0.33032985  0.36648231  1
  In  In33  1  0.83107424  0.31033255  0.88182951  1
  In  In34  1  0.83449275  0.66674093  0.38008893  1
  In  In35  1  0.85050762  0.66284564  0.87290401  1
  In  In36  1  -0.01035829  0.18567696  0.37898365  1
  In  In37  1  0.00183165  0.16245065  0.88876305  1
  In  In38  1  -0.00047564  0.49913936  0.37429693  1
  In  In39  1  0.00689786  0.51295353  0.87253902  1
  In  In40  1  -0.00465875  0.82180238  0.37403356  1
  In  In41  1  0.00767230  0.81965002  0.87508698  1
  In  In42  1  0.33258230  0.16973282  0.37616561  1
  In  In43  1  0.32133470  0.15625883  0.86922286  1
  In  In44  1  0.33026403  0.49731589  0.37580346  1
  In  In45  1  0.33370791  0.48614270  0.87457605  1
  In  In46  1  0.34077834  0.84098670  0.36882562  1
  In  In47  1  0.31558372  0.84662615  0.87058914  1
  In  In48  1  0.66046160  0.16879755  0.38067959  1
  In  In49  1  0.68124639  0.16060238  0.87673961  1
  In  In50  1  0.67798308  0.48892320  0.38154874  1
  In  In51  1  0.65692467  0.49617595  0.87126878  1
  In  In52  1  0.66324699  0.84535716  0.39280408  1
  In  In53  1  0.66223285  0.84912769  0.86887202  1
  In  In54  1  0.16799815  0.01543622  0.12113541  1
  In  In55  1  0.16237980  0.01608667  0.62691838  1
  In  In56  1  0.16695765  0.33330189  0.12698101  1
  In  In57  1  0.18007979  0.34843130  0.61821002  1
  In  In58  1  0.17055340  0.65562270  0.13461017  1
  In  In59  1  0.16702720  0.64593730  0.63131166  1
  In  In60  1  0.49163479  -0.00525842  0.12813664  1
  In  In61  1  0.49679882  0.00086913  0.62231121  1
  In  In62  1  0.50041685  0.32695090  0.14120130  1
  In  In63  1  0.48986527  0.32218595  0.61314113  1
  In  In64  1  0.49958519  0.65453220  0.13050738  1
  In  In65  1  0.49876528  0.66973824  0.61001012  1
  In  In66  1  0.84919662  0.00962633  0.10906832  1
  In  In67  1  0.82695698  -0.00478079  0.61380884  1
  In  In68  1  0.83604423  0.32485783  0.13904830  1
  In  In69  1  0.82328790  0.32358912  0.61476753  1
  In  In70  1  0.83752701  0.68462615  0.12705816  1
  In  In71  1  0.84473964  0.66890281  0.61946096  1
  In  In72  1  0.15730848  0.84246841  -0.00099297  1
  In  In73  1  0.50123325  0.49331734  -0.00058181  1
  In  In74  1  0.49846696  0.16719977  0.00727862  1
  In  In75  1  0.66625008  0.00429423  0.25889822  1
  In  In76  1  0.00289594  0.00388679  0.24518280  1
  In  In77  1  0.33337514  0.67086823  0.74909673  1
  In  In78  1  0.66824654  0.66574032  0.25315063  1
  In  In79  1  0.49673915  0.83068718  -0.01373733  1
  In  In80  1  0.00593870  -0.00559934  0.75437898  1
  In  In81  1  0.84379451  0.49310453  0.00601164  1
  In  In82  1  0.66758498  0.32684866  0.75234498  1
  In  In83  1  0.16635550  0.83009920  0.50007407  1
  In  In84  1  0.00628130  0.33612777  0.75154741  1
  In  In85  1  0.67572378  0.67698218  0.72859485  1
  Cu  Cu86  1  0.00356482  0.00154894  0.49964079  1
  Cu  Cu87  1  0.49524812  0.84586356  0.74634512  1
  Cu  Cu88  1  0.84221433  0.49145600  0.74886671  1
  Cu  Cu89  1  0.66794769  0.33597597  0.49315770  1
  Cu  Cu90  1  0.33526297  0.33057003  0.49497672  1
  Cu  Cu91  1  0.49698821  0.49930920  0.74105613  1
  Cu  Cu92  1  0.83294163  0.84028326  0.25277633  1
  Cu  Cu93  1  0.49801211  0.16578390  0.74087115  1
  Cu  Cu94  1  0.49372765  0.83161449  0.25248214  1
  Cu  Cu95  1  0.32878397  0.32876284  0.00423812  1
  Cu  Cu96  1  0.16962411  0.82731801  0.25376674  1
  Cu  Cu97  1  0.49522139  0.16367998  0.26050590  1
  Cu  Cu98  1  0.68102471  0.66618000  -0.00173761  1
  Cu  Cu99  1  0.83021840  0.83248556  0.74341380  1
  Cu  Cu100  1  0.16675442  0.17098517  0.25036750  1
  Cu  Cu101  1  0.16620928  0.49411852  0.25329423  1
  Cu  Cu102  1  0.66756180  -0.00286749  -0.00100085  1
  Cu  Cu103  1  0.83213074  0.15643315  0.74716282  1
  Cu  Cu104  1  0.00344002  0.33585924  0.00626044  1
  Cu  Cu105  1  0.66524152  0.66323099  0.49776358  1
  Cu  Cu106  1  0.32816170  0.66435145  0.49585420  1
  Cu  Cu107  1  0.17485673  0.17698836  0.74823090  1
  Cu  Cu108  1  -0.00165700  0.66094157  0.49663646  1
  Cu  Cu109  1  0.49582963  0.49788904  0.25705734  1
  Cu  Cu110  1  0.00385950  0.66699412  0.00084404  1
  Cu  Cu111  1  0.33524632  0.00747251  0.50008153  1
  Cu  Cu112  1  0.32840437  0.66816021  0.01177581  1
  Cu  Cu113  1  -0.00099791  0.33771145  0.49604923  1
  Cu  Cu114  1  0.83837560  0.50229873  0.25804486  1
  Se  Se115  1  0.05749982  0.06431912  0.06100943  1
  Se  Se116  1  0.08922992  0.08682220  0.54747741  1
  Se  Se117  1  0.08843286  0.42005415  0.05556599  1
  Se  Se118  1  0.08372691  0.41776619  0.55114603  1
  Se  Se119  1  0.08142776  0.74609803  0.06529673  1
  Se  Se120  1  0.07815591  0.73959312  0.56083544  1
  Se  Se121  1  0.40491887  0.07503046  0.05954444  1
  Se  Se122  1  0.41817924  0.09058251  0.55427523  1
  Se  Se123  1  0.41374122  0.40698739  0.06390737  1
  Se  Se124  1  0.41810667  0.41803294  0.54756747  1
  Se  Se125  1  0.41766396  0.74734569  0.06244575  1
  Se  Se126  1  0.41074263  0.75227568  0.54534558  1
  Se  Se127  1  0.74299096  0.08381375  0.05525730  1
  Se  Se128  1  0.77379670  0.10531156  0.55374695  1
  Se  Se129  1  0.74758168  0.40940962  0.06275334  1
  Se  Se130  1  0.75255534  0.41747771  0.54734975  1
  Se  Se131  1  0.75949864  0.75440162  0.04849257  1
  Se  Se132  1  0.74425777  0.74266244  0.55945316  1
  Se  Se133  1  0.24665277  0.24544427  0.05798890  1
  Se  Se134  1  0.25122391  0.25189033  0.55333848  1
  Se  Se135  1  0.24906431  0.57866660  0.05958873  1
  Se  Se136  1  0.24453100  0.58323905  0.55007513  1
  Se  Se137  1  0.25704604  0.92250680  0.05781447  1
  Se  Se138  1  0.25254822  0.92590753  0.55907842  1
  Se  Se139  1  0.58738794  0.26024228  0.06295088  1
  Se  Se140  1  0.58335810  0.25143042  0.54573845  1
  Se  Se141  1  0.59619147  0.58953367  0.05613449  1
  Se  Se142  1  0.57808382  0.57856911  0.54644146  1
  Se  Se143  1  0.58500729  0.91592774  0.05678644  1
  Se  Se144  1  0.57274790  0.91688491  0.55041842  1
  Se  Se145  1  0.91594989  0.25753667  0.05972922  1
  Se  Se146  1  0.91760732  0.25114490  0.54894250  1
  Se  Se147  1  0.92610155  0.58960616  0.06574406  1
  Se  Se148  1  0.91449370  0.57679343  0.55026321  1
  Se  Se149  1  0.91108379  0.90484110  0.04852290  1
  Se  Se150  1  0.92241157  0.91546375  0.55221125  1
  Se  Se151  1  0.08566825  0.25126586  0.44758491  1
  Se  Se152  1  0.08515608  0.24898748  0.95293889  1
  Se  Se153  1  0.08455642  0.57809053  0.44666664  1
  Se  Se154  1  0.08733558  0.58259600  0.94999856  1
  Se  Se155  1  0.08043875  0.92093679  0.43649041  1
  Se  Se156  1  0.06889978  0.93066177  0.93745658  1
  Se  Se157  1  0.42119203  0.24553485  0.44605472  1
  Se  Se158  1  0.41160014  0.25481076  0.94134168  1
  Se  Se159  1  0.41420906  0.58156693  0.44446553  1
  Se  Se160  1  0.40734827  0.59065884  0.94650822  1
  Se  Se161  1  0.41170252  0.91565756  0.44815536  1
  Se  Se162  1  0.40381370  0.92962280  0.94050086  1
  Se  Se163  1  0.75257377  0.25409258  0.43991641  1
  Se  Se164  1  0.73962150  0.24860067  0.95221360  1
  Se  Se165  1  0.75260182  0.58213926  0.44727535  1
  Se  Se166  1  0.75149900  0.57850220  0.93750522  1
  Se  Se167  1  0.76449242  0.90650710  0.45644090  1
  Se  Se168  1  0.74788855  0.91275368  0.94406812  1
  Se  Se169  1  0.24907877  0.08889193  0.44835755  1
  Se  Se170  1  0.24347034  0.09203180  0.94846594  1
  Se  Se171  1  0.24855029  0.41642655  0.44696352  1
  Se  Se172  1  0.25136980  0.41709103  0.94984170  1
  Se  Se173  1  0.25088799  0.74531730  0.43319640  1
  Se  Se174  1  0.25585693  0.74803101  0.94542083  1
  Se  Se175  1  0.60602897  0.06492980  0.44787820  1
  Se  Se176  1  0.58176842  0.07441164  0.94068390  1
  Se  Se177  1  0.57898110  0.41972193  0.44541411  1
  Se  Se178  1  0.59753590  0.40116992  0.94601354  1
  Se  Se179  1  0.58040516  0.75058556  0.45030753  1
  Se  Se180  1  0.59481535  0.73556724  0.93461119  1
  Se  Se181  1  0.92270042  0.08672574  0.44559144  1
  Se  Se182  1  0.89792908  0.09864290  0.94781476  1
  Se  Se183  1  0.91303553  0.41577157  0.44001754  1
  Se  Se184  1  0.92719911  0.40728889  0.93588673  1
  Se  Se185  1  0.91535068  0.75143024  0.45041892  1
  Se  Se186  1  0.91952650  0.74775597  0.94699836  1
  Se  Se187  1  0.25081228  0.25204091  0.30627719  1
  Se  Se188  1  0.25562832  0.25865957  0.80496273  1
  Se  Se189  1  0.24922041  0.58038080  0.30446429  1
  Se  Se190  1  0.24949993  0.58310351  0.81403404  1
  Se  Se191  1  0.25120433  0.91763450  0.30074985  1
  Se  Se192  1  0.24109027  0.92482151  0.79850563  1
  Se  Se193  1  0.58231431  0.24826861  0.30751886  1
  Se  Se194  1  0.57472977  0.23722576  0.81182824  1
  Se  Se195  1  0.58014675  0.57860708  0.31511484  1
  Se  Se196  1  0.58427018  0.58220653  0.79317931  1
  Se  Se197  1  0.57459468  0.91034018  0.31340966  1
  Se  Se198  1  0.58632914  0.92564603  0.79481207  1
  Se  Se199  1  0.92538934  0.25542936  0.29651450  1
  Se  Se200  1  0.91422376  0.23722739  0.80519263  1
  Se  Se201  1  0.91771059  0.59053739  0.30821400  1
  Se  Se202  1  0.92146726  0.58184023  0.79783847  1
  Se  Se203  1  0.91173284  0.92188481  0.31311309  1
  Se  Se204  1  0.90868664  0.90688224  0.81040885  1
  Se  Se205  1  0.08772778  0.09032086  0.31147301  1
  Se  Se206  1  0.08847455  0.09933981  0.80744340  1
  Se  Se207  1  0.08071596  0.41321795  0.30627929  1
  Se  Se208  1  0.09610966  0.42152458  0.81276190  1
  Se  Se209  1  0.07896965  0.74827412  0.30187859  1
  Se  Se210  1  0.09336268  0.75654464  0.80105114  1
  Se  Se211  1  0.41418779  0.07710946  0.31099555  1
  Se  Se212  1  0.41373259  0.08661828  0.79939307  1
  Se  Se213  1  0.41181983  0.41205443  0.30667266  1
  Se  Se214  1  0.41861184  0.41785540  0.79928414  1
  Se  Se215  1  0.41305674  0.74399081  0.30317670  1
  Se  Se216  1  0.42498836  0.76231025  0.81146689  1
  Se  Se217  1  0.76104362  0.09462457  0.31044262  1
  Se  Se218  1  0.74903589  0.07553324  0.80214704  1
  Se  Se219  1  0.74892461  0.41736967  0.30170509  1
  Se  Se220  1  0.76216356  0.41761297  0.81205350  1
  Se  Se221  1  0.74928497  0.76355828  0.31304994  1
  Se  Se222  1  0.75366211  0.75138713  0.80849546  1
  Se  Se223  1  0.24816350  0.08322189  0.19904166  1
  Se  Se224  1  0.25238548  0.08759253  0.69582634  1
  Se  Se225  1  0.25057724  0.41204123  0.19881623  1
  Se  Se226  1  0.24867244  0.42649878  0.69555269  1
  Se  Se227  1  0.25319203  0.74217974  0.20083329  1
  Se  Se228  1  0.24380371  0.75599530  0.68603889  1
  Se  Se229  1  0.57361297  0.08822098  0.19336183  1
  Se  Se230  1  0.58473810  0.08349737  0.69047708  1
  Se  Se231  1  0.58267889  0.41720505  0.20456103  1
  Se  Se232  1  0.58015184  0.41469365  0.68694794  1
  Se  Se233  1  0.57985731  0.75984800  0.19035507  1
  Se  Se234  1  0.57051005  0.76359141  0.68388764  1
  Se  Se235  1  0.90608856  0.09268810  0.19229610  1
  Se  Se236  1  0.91953617  0.08196562  0.68875775  1
  Se  Se237  1  0.91717516  0.41675055  0.20153225  1
  Se  Se238  1  0.91187275  0.41070120  0.68395815  1
  Se  Se239  1  0.91805187  0.75434470  0.20366343  1
  Se  Se240  1  0.91649483  0.74549430  0.69829452  1
  Se  Se241  1  0.08209762  0.25308042  0.19729315  1
  Se  Se242  1  0.08974655  0.24767601  0.68592904  1
  Se  Se243  1  0.08067201  0.58099740  0.20272352  1
  Se  Se244  1  0.07782795  0.57718024  0.70081616  1
  Se  Se245  1  0.09461294  0.90886340  0.18938959  1
  Se  Se246  1  0.09200148  0.90933171  0.68837588  1
  Se  Se247  1  0.41205744  0.24714082  0.20534189  1
  Se  Se248  1  0.41595333  0.25586492  0.69469424  1
  Se  Se249  1  0.41596086  0.58335389  0.20249897  1
  Se  Se250  1  0.41960078  0.58337446  0.68326638  1
  Se  Se251  1  0.41196496  0.91761874  0.20015849  1
  Se  Se252  1  0.40838506  0.92517330  0.69422703  1
  Se  Se253  1  0.73828449  0.25661538  0.20460317  1
  Se  Se254  1  0.74908295  0.23540893  0.68866602  1
  Se  Se255  1  0.76124265  0.57944701  0.19062922  1
  Se  Se256  1  0.75956032  0.56697577  0.68611387  1
  Se  Se257  1  0.75845322  0.92266837  0.19061439  1
  Se  Se258  1  0.75141419  0.91944605  0.69113980  1
