# generated using pymatgen
data_In86Cu29Se144
_symmetry_space_group_name_H-M   'P 1'
_cell_length_a   17.57588604
_cell_length_b   17.57621209
_cell_length_c   23.43861112
_cell_angle_alpha   89.99495618
_cell_angle_beta   90.01228233
_cell_angle_gamma   89.99944798
_symmetry_Int_Tables_number   1
_chemical_formula_structural   In86Cu29Se144
_chemical_formula_sum   'In86 Cu29 Se144'
_cell_volume   7240.59697172
_cell_formula_units_Z   1
loop_
 _symmetry_equiv_pos_site_id
 _symmetry_equiv_pos_as_xyz
  1  'x, y, z'
loop_
 _atom_site_type_symbol
 _atom_site_label
 _atom_site_symmetry_multiplicity
 _atom_site_fract_x
 _atom_site_fract_y
 _atom_site_fract_z
 _atom_site_occupancy
  In  In0  1  0.00352099  0.16845321  0.14013948  1
  In  In1  1  0.00180831  0.17110119  0.60953345  1
  In  In2  1  -0.01104551  0.51383431  0.14286622  1
  In  In3  1  -0.00134059  0.49799869  0.61397729  1
  In  In4  1  -0.00168965  0.83674080  0.12608502  1
  In  In5  1  0.00362069  0.82463650  0.62224395  1
  In  In6  1  0.32657665  0.17226480  0.13486319  1
  In  In7  1  0.32812952  0.16282410  0.62743822  1
  In  In8  1  0.32690707  0.49397631  0.12576358  1
  In  In9  1  0.31193390  0.50877599  0.63956846  1
  In  In10  1  0.32853801  0.84703921  0.12618220  1
  In  In11  1  0.33383986  0.83584878  0.62256626  1
  In  In12  1  0.66811793  0.16355217  0.13740455  1
  In  In13  1  0.62559707  0.11242035  0.56578523  1
  In  In14  1  0.66473292  0.49559836  0.12204257  1
  In  In15  1  0.66921067  0.48702608  0.62167747  1
  In  In16  1  0.67840898  0.83181704  0.12786376  1
  In  In17  1  0.66244595  0.86051642  0.63647865  1
  In  In18  1  0.16842107  -0.00051247  0.37669656  1
  In  In19  1  0.16373687  -0.01195253  0.87149679  1
  In  In20  1  0.16655728  0.33274826  0.37634386  1
  In  In21  1  0.17602781  0.33722449  0.86965294  1
  In  In22  1  0.16075266  0.67418368  0.37719885  1
  In  In23  1  0.17990113  0.66625374  0.87389579  1
  In  In24  1  0.50130325  0.00670095  0.38192468  1
  In  In25  1  0.49585438  -0.01775034  0.85511067  1
  In  In26  1  0.49142565  0.31626764  0.37347593  1
  In  In27  1  0.49581031  0.34060059  0.87669334  1
  In  In28  1  0.50958713  0.67597805  0.38172117  1
  In  In29  1  0.48637222  0.66514284  0.87535819  1
  In  In30  1  0.83917579  0.00207817  0.37294364  1
  In  In31  1  0.82189126  -0.00810955  0.86898187  1
  In  In32  1  0.83807293  0.33526225  0.36941665  1
  In  In33  1  0.84064148  0.33583431  0.87765331  1
  In  In34  1  0.83750117  0.65459265  0.37347168  1
  In  In35  1  0.83278396  0.66900114  0.88825552  1
  In  In36  1  0.00355379  0.16697630  0.37563077  1
  In  In37  1  0.00157114  0.16791174  0.87140759  1
  In  In38  1  0.00576911  0.49770405  0.36849974  1
  In  In39  1  -0.00181937  0.49590270  0.88304814  1
  In  In40  1  0.01181424  0.84210471  0.36533244  1
  In  In41  1  0.00390934  0.82748599  0.89104072  1
  In  In42  1  0.33514064  0.16629457  0.38311036  1
  In  In43  1  0.33596327  0.16863053  0.85766658  1
  In  In44  1  0.33016884  0.48224747  0.37240482  1
  In  In45  1  0.33490193  0.51258496  0.86628978  1
  In  In46  1  0.32387580  0.84677095  0.38448448  1
  In  In47  1  0.33127162  0.82148913  0.86426253  1
  In  In48  1  0.66902964  0.16533261  0.37798303  1
  In  In49  1  0.67128861  0.15117488  0.86728927  1
  In  In50  1  0.68465539  0.50303195  0.37557732  1
  In  In51  1  0.66689850  0.49491627  0.88434134  1
  In  In52  1  0.65389399  0.84267943  0.38505268  1
  In  In53  1  0.66978124  0.84304768  0.87230704  1
  In  In54  1  0.16997567  -0.00372668  0.13244337  1
  In  In55  1  0.18505108  0.01636980  0.61178694  1
  In  In56  1  0.16440578  0.35164438  0.14952964  1
  In  In57  1  0.16880994  0.33561340  0.61979187  1
  In  In58  1  0.12995805  0.67048986  0.12873657  1
  In  In59  1  0.16944639  0.67167192  0.61646171  1
  In  In60  1  0.49426159  0.00489102  0.13511765  1
  In  In61  1  0.49039293  -0.00481865  0.62792245  1
  In  In62  1  0.48976348  0.34281075  0.13317263  1
  In  In63  1  0.49363972  0.31616989  0.61785801  1
  In  In64  1  0.51326249  0.66740152  0.12191562  1
  In  In65  1  0.48177810  0.66623270  0.62564513  1
  In  In66  1  0.83797208  -0.00219039  0.13515605  1
  In  In67  1  0.80664658  0.00341152  0.61902119  1
  In  In68  1  0.82647975  0.33837051  0.13330980  1
  In  In69  1  0.82829266  0.32942103  0.61381237  1
  In  In70  1  0.85266036  0.67522963  0.11202692  1
  In  In71  1  0.84240208  0.66683313  0.62379768  1
  In  In72  1  0.66094322  0.67188166  0.75684011  1
  In  In73  1  0.83091960  0.16500379  -0.00504195  1
  In  In74  1  0.50192371  0.16580062  -0.00245937  1
  In  In75  1  0.16003887  0.50841128  0.00668413  1
  In  In76  1  0.00464565  0.00040115  0.74816403  1
  In  In77  1  0.00632936  0.66573380  0.74774602  1
  In  In78  1  0.67611719  0.66888663  0.24717615  1
  In  In79  1  0.50272255  0.82945145  -0.00714976  1
  In  In80  1  0.33112233  0.66558918  0.25186032  1
  In  In81  1  0.66279094  0.32264648  0.74304657  1
  In  In82  1  0.16707006  0.17165144  -0.00176186  1
  In  In83  1  0.00702343  0.33413860  0.74948282  1
  In  In84  1  0.49595691  0.49841036  0.49997523  1
  In  In85  1  0.83384834  0.83481109  0.50191458  1
  Cu  Cu86  1  0.48600271  0.49459552  0.75138265  1
  Cu  Cu87  1  0.83411631  0.16597516  0.25775974  1
  Cu  Cu88  1  0.33052275  0.32996697  0.50091471  1
  Cu  Cu89  1  0.66743875  0.67322986  0.50162058  1
  Cu  Cu90  1  0.17234067  0.16464766  0.26058894  1
  Cu  Cu91  1  0.16125045  0.83295808  0.25174970  1
  Cu  Cu92  1  -0.00020348  0.66182166  0.49639544  1
  Cu  Cu93  1  -0.00769845  0.33810903  0.00746759  1
  Cu  Cu94  1  0.83309192  0.83409247  0.25048145  1
  Cu  Cu95  1  -0.00237791  -0.00459626  0.00668697  1
  Cu  Cu96  1  0.33026358  0.66757815  -0.00386785  1
  Cu  Cu97  1  0.33465413  -0.00083316  0.50107220  1
  Cu  Cu98  1  0.67538853  0.33832414  0.49187695  1
  Cu  Cu99  1  0.17459627  0.83566819  0.74382002  1
  Cu  Cu100  1  0.49597996  0.84673037  0.25873366  1
  Cu  Cu101  1  0.50328388  0.15708483  0.73643931  1
  Cu  Cu102  1  -0.00037497  0.33717375  0.48960544  1
  Cu  Cu103  1  0.67329711  0.65676348  0.00260140  1
  Cu  Cu104  1  0.66335081  0.33601928  0.00609197  1
  Cu  Cu105  1  0.50301455  0.16283360  0.25708663  1
  Cu  Cu106  1  0.50664582  0.49582048  0.25013027  1
  Cu  Cu107  1  0.32829114  0.66677915  0.50171858  1
  Cu  Cu108  1  0.83363988  0.50121130  0.74963964  1
  Cu  Cu109  1  0.83929822  0.49795634  0.25019418  1
  Cu  Cu110  1  0.32600734  -0.00041419  0.00006580  1
  Cu  Cu111  1  0.66625872  -0.00583999  -0.00119423  1
  Cu  Cu112  1  0.82604630  0.16191938  0.73751805  1
  Cu  Cu113  1  0.33179935  0.33891854  0.00658201  1
  Cu  Cu114  1  0.00285503  -0.00231202  0.49328239  1
  Se  Se115  1  0.07672715  0.08393798  0.06058844  1
  Se  Se116  1  0.08599658  0.08357187  0.54617111  1
  Se  Se117  1  0.07900858  0.41077336  0.06640901  1
  Se  Se118  1  0.08320920  0.41416203  0.54956843  1
  Se  Se119  1  0.08408515  0.76276398  0.05358032  1
  Se  Se120  1  0.08140232  0.74929624  0.54766203  1
  Se  Se121  1  0.40572929  0.08076307  0.05896786  1
  Se  Se122  1  0.41377563  0.08357618  0.55720116  1
  Se  Se123  1  0.41830376  0.42224730  0.05587584  1
  Se  Se124  1  0.40514328  0.41584548  0.56318065  1
  Se  Se125  1  0.41095517  0.74709553  0.05978584  1
  Se  Se126  1  0.41483013  0.75054497  0.55086747  1
  Se  Se127  1  0.74234834  0.07852398  0.05885929  1
  Se  Se128  1  0.77098622  0.10397009  0.54634747  1
  Se  Se129  1  0.75412570  0.41458022  0.05541028  1
  Se  Se130  1  0.75536279  0.42432023  0.54632197  1
  Se  Se131  1  0.74840836  0.74859507  0.05424609  1
  Se  Se132  1  0.74237679  0.75152554  0.56726121  1
  Se  Se133  1  0.24623927  0.26385701  0.06510077  1
  Se  Se134  1  0.24814707  0.24500801  0.55458031  1
  Se  Se135  1  0.25237093  0.59833002  0.06549095  1
  Se  Se136  1  0.24920448  0.57755651  0.55305174  1
  Se  Se137  1  0.24289657  0.91886196  0.05370887  1
  Se  Se138  1  0.24857301  0.91145278  0.54991676  1
  Se  Se139  1  0.58692235  0.25133279  0.06412245  1
  Se  Se140  1  0.59400666  0.25983107  0.55047009  1
  Se  Se141  1  0.58236627  0.57839746  0.05177221  1
  Se  Se142  1  0.58759154  0.58901526  0.56142702  1
  Se  Se143  1  0.58266498  0.92072221  0.06179475  1
  Se  Se144  1  0.58986831  0.93030813  0.55759027  1
  Se  Se145  1  0.91894397  0.24729628  0.06254832  1
  Se  Se146  1  0.91663386  0.25490838  0.54466949  1
  Se  Se147  1  0.92955135  0.57660133  0.05510275  1
  Se  Se148  1  0.91227656  0.58348763  0.54999913  1
  Se  Se149  1  0.90838100  0.91820977  0.05844131  1
  Se  Se150  1  0.92367597  0.92635391  0.56161322  1
  Se  Se151  1  0.08651523  0.24781520  0.44611957  1
  Se  Se152  1  0.07255434  0.26567825  0.94114760  1
  Se  Se153  1  0.08408991  0.58075993  0.44208982  1
  Se  Se154  1  0.07669189  0.59830231  0.94136194  1
  Se  Se155  1  0.08690233  0.91115449  0.44511372  1
  Se  Se156  1  0.08696004  0.92120698  0.95099660  1
  Se  Se157  1  0.42052052  0.24636863  0.45463881  1
  Se  Se158  1  0.40219829  0.25366970  0.94347010  1
  Se  Se159  1  0.40789494  0.58947138  0.43733334  1
  Se  Se160  1  0.41265326  0.57991696  0.94711183  1
  Se  Se161  1  0.42114278  0.91703494  0.44889088  1
  Se  Se162  1  0.41023638  0.92336896  0.93902399  1
  Se  Se163  1  0.75671739  0.25264530  0.44014551  1
  Se  Se164  1  0.73453202  0.25614781  0.93784908  1
  Se  Se165  1  0.75123445  0.58993391  0.44995343  1
  Se  Se166  1  0.75632019  0.57241234  0.95004851  1
  Se  Se167  1  0.74485519  0.92962514  0.44705993  1
  Se  Se168  1  0.75344839  0.91316005  0.94800504  1
  Se  Se169  1  0.24888626  0.08140945  0.44805060  1
  Se  Se170  1  0.25648230  0.08392360  0.93635028  1
  Se  Se171  1  0.24863850  0.41565686  0.44909605  1
  Se  Se172  1  0.25235809  0.42008826  0.94496788  1
  Se  Se173  1  0.24698539  0.75129665  0.44671603  1
  Se  Se174  1  0.25168637  0.75586114  0.94420607  1
  Se  Se175  1  0.58258607  0.09083362  0.45010026  1
  Se  Se176  1  0.58324116  0.06779805  0.93653302  1
  Se  Se177  1  0.58679747  0.41573580  0.43532943  1
  Se  Se178  1  0.57802265  0.41404386  0.94979316  1
  Se  Se179  1  0.57903981  0.75773814  0.45701537  1
  Se  Se180  1  0.59639438  0.73639669  0.93754165  1
  Se  Se181  1  0.91866238  0.08311173  0.44415979  1
  Se  Se182  1  0.92429462  0.07294134  0.93855496  1
  Se  Se183  1  0.91588744  0.42313389  0.43903335  1
  Se  Se184  1  0.91031309  0.41923289  0.95185395  1
  Se  Se185  1  0.92297417  0.74911235  0.43725134  1
  Se  Se186  1  0.91500887  0.75013587  0.95509324  1
  Se  Se187  1  0.25689853  0.24941339  0.31127096  1
  Se  Se188  1  0.24308953  0.24978432  0.79935640  1
  Se  Se189  1  0.24391911  0.57665045  0.31176861  1
  Se  Se190  1  0.24719776  0.58709290  0.79822372  1
  Se  Se191  1  0.24779473  0.91430802  0.30441115  1
  Se  Se192  1  0.25368752  0.91786014  0.80185110  1
  Se  Se193  1  0.58792685  0.24868502  0.30665165  1
  Se  Se194  1  0.57169462  0.23657243  0.80911433  1
  Se  Se195  1  0.58146732  0.58158649  0.30939340  1
  Se  Se196  1  0.57585839  0.56757381  0.80987064  1
  Se  Se197  1  0.58455301  0.92472313  0.31005953  1
  Se  Se198  1  0.59814864  0.91664033  0.79473073  1
  Se  Se199  1  0.92298410  0.24979078  0.30424114  1
  Se  Se200  1  0.90328499  0.24006726  0.80148604  1
  Se  Se201  1  0.92202702  0.58558855  0.29978274  1
  Se  Se202  1  0.91179294  0.57908854  0.81054870  1
  Se  Se203  1  0.91794099  0.91842462  0.30200904  1
  Se  Se204  1  0.92367405  0.90879471  0.81331054  1
  Se  Se205  1  0.08392403  0.07954068  0.30688856  1
  Se  Se206  1  0.09585889  0.09403036  0.80598444  1
  Se  Se207  1  0.08430039  0.40813183  0.30341579  1
  Se  Se208  1  0.09004089  0.43317484  0.80745596  1
  Se  Se209  1  0.07897771  0.74278812  0.29916569  1
  Se  Se210  1  0.09109917  0.76155041  0.80775176  1
  Se  Se211  1  0.41632486  0.08377943  0.31144832  1
  Se  Se212  1  0.41922112  0.07955304  0.79503117  1
  Se  Se213  1  0.42444088  0.41367452  0.30518356  1
  Se  Se214  1  0.40706848  0.40905199  0.80587510  1
  Se  Se215  1  0.42000253  0.75696919  0.31327209  1
  Se  Se216  1  0.43563623  0.75967867  0.80241862  1
  Se  Se217  1  0.74885845  0.08094717  0.30687138  1
  Se  Se218  1  0.74978498  0.07528601  0.79411263  1
  Se  Se219  1  0.75042861  0.41807647  0.30064938  1
  Se  Se220  1  0.75220923  0.41659813  0.80578856  1
  Se  Se221  1  0.75341651  0.76005472  0.31666759  1
  Se  Se222  1  0.76364312  0.75349933  0.80980256  1
  Se  Se223  1  0.25048219  0.08175228  0.20035025  1
  Se  Se224  1  0.25068906  0.07656401  0.69743836  1
  Se  Se225  1  0.27617163  0.40875417  0.20568668  1
  Se  Se226  1  0.24950768  0.40227425  0.69789238  1
  Se  Se227  1  0.24159975  0.75380165  0.18911852  1
  Se  Se228  1  0.25099314  0.74655929  0.69009578  1
  Se  Se229  1  0.58481621  0.07812402  0.20239249  1
  Se  Se230  1  0.58992713  0.09188966  0.67453616  1
  Se  Se231  1  0.59003675  0.41392674  0.19597722  1
  Se  Se232  1  0.56893879  0.41953665  0.68980087  1
  Se  Se233  1  0.57445772  0.76336638  0.19773519  1
  Se  Se234  1  0.57752260  0.75272873  0.68729203  1
  Se  Se235  1  0.91772640  0.08277804  0.20292771  1
  Se  Se236  1  0.91722815  0.08706977  0.68298652  1
  Se  Se237  1  0.92138988  0.40775371  0.20098851  1
  Se  Se238  1  0.90960490  0.41879912  0.68918842  1
  Se  Se239  1  0.91428873  0.75101574  0.19506810  1
  Se  Se240  1  0.90959575  0.75951073  0.69714098  1
  Se  Se241  1  0.08960165  0.24915028  0.20609092  1
  Se  Se242  1  0.08663766  0.23940347  0.68841136  1
  Se  Se243  1  0.10975561  0.55850207  0.19539538  1
  Se  Se244  1  0.08847017  0.57489044  0.68540678  1
  Se  Se245  1  0.07891435  0.91862596  0.19777271  1
  Se  Se246  1  0.09287634  0.91347415  0.68415744  1
  Se  Se247  1  0.42249127  0.24477624  0.19854243  1
  Se  Se248  1  0.41561561  0.24731245  0.69537278  1
  Se  Se249  1  0.42969388  0.58165841  0.19164698  1
  Se  Se250  1  0.40982703  0.58556201  0.70030662  1
  Se  Se251  1  0.40925874  0.92037164  0.20061343  1
  Se  Se252  1  0.40965972  0.91537873  0.69699416  1
  Se  Se253  1  0.75134429  0.24903740  0.20178265  1
  Se  Se254  1  0.74512172  0.23837777  0.67738054  1
  Se  Se255  1  0.76250031  0.58029258  0.18569705  1
  Se  Se256  1  0.75006859  0.57916106  0.69186170  1
  Se  Se257  1  0.74633156  0.91826847  0.20074991  1
  Se  Se258  1  0.77196993  0.91069725  0.69870000  1
