# generated using pymatgen
data_In86Cu29Se144
_symmetry_space_group_name_H-M   'P 1'
_cell_length_a   17.58456498
_cell_length_b   17.58774802
_cell_length_c   23.44938450
_cell_angle_alpha   90.01154117
_cell_angle_beta   90.05349123
_cell_angle_gamma   89.99087746
_symmetry_Int_Tables_number   1
_chemical_formula_structural   In86Cu29Se144
_chemical_formula_sum   'In86 Cu29 Se144'
_cell_volume   7252.25569703
_cell_formula_units_Z   1
loop_
 _symmetry_equiv_pos_site_id
 _symmetry_equiv_pos_as_xyz
  1  'x, y, z'
loop_
 _atom_site_type_symbol
 _atom_site_label
 _atom_site_symmetry_multiplicity
 _atom_site_fract_x
 _atom_site_fract_y
 _atom_site_fract_z
 _atom_site_occupancy
  In  In0  1  0.00778132  0.17010263  0.12816398  1
  In  In1  1  0.02870833  0.17028765  0.61913584  1
  In  In2  1  0.01079779  0.48869720  0.13082230  1
  In  In3  1  -0.00964187  0.49248411  0.61066146  1
  In  In4  1  0.01038760  0.83524805  0.12316154  1
  In  In5  1  -0.00513811  0.83268828  0.62172056  1
  In  In6  1  0.32099681  0.15472225  0.11456186  1
  In  In7  1  0.33232589  0.17846300  0.63635897  1
  In  In8  1  0.33817750  0.50823267  0.12389144  1
  In  In9  1  0.32773679  0.49257525  0.62099226  1
  In  In10  1  0.32143707  0.84663126  0.13418941  1
  In  In11  1  0.34170286  0.82879961  0.62461922  1
  In  In12  1  0.67720252  0.17768002  0.11836819  1
  In  In13  1  0.65025354  0.16197686  0.62888250  1
  In  In14  1  0.65504948  0.49743911  0.12455225  1
  In  In15  1  0.66402328  0.48925815  0.60998438  1
  In  In16  1  0.67289093  0.82287622  0.12277440  1
  In  In17  1  0.66347271  0.85195918  0.62958953  1
  In  In18  1  0.16481651  0.00317007  0.36941658  1
  In  In19  1  0.17701921  -0.00071996  0.88094914  1
  In  In20  1  0.16335194  0.33440107  0.37527928  1
  In  In21  1  0.17059404  0.33105114  0.87837357  1
  In  In22  1  0.15218302  0.64862835  0.36061027  1
  In  In23  1  0.16558999  0.66556551  0.88987276  1
  In  In24  1  0.48336196  0.00143112  0.37743801  1
  In  In25  1  0.51137576  0.01709805  0.86059032  1
  In  In26  1  0.50885754  0.33404459  0.37645952  1
  In  In27  1  0.48535339  0.34293321  0.87993530  1
  In  In28  1  0.49526184  0.66822345  0.38131648  1
  In  In29  1  0.48715433  0.65662387  0.87787086  1
  In  In30  1  0.84135600  -0.01060326  0.37155296  1
  In  In31  1  0.83396943  0.00330730  0.88323112  1
  In  In32  1  0.83771305  0.33924339  0.37040428  1
  In  In33  1  0.82848320  0.31831450  0.87400613  1
  In  In34  1  0.83718235  0.65654950  0.37315547  1
  In  In35  1  0.85462105  0.66570410  0.88496972  1
  In  In36  1  0.00771763  0.16971803  0.36606941  1
  In  In37  1  -0.00674517  0.17587595  0.88028242  1
  In  In38  1  0.00350301  0.49975215  0.37385480  1
  In  In39  1  0.01406915  0.49732033  0.87578003  1
  In  In40  1  0.00606332  0.83482992  0.36180064  1
  In  In41  1  0.00298439  0.82881902  0.89415938  1
  In  In42  1  0.32382082  0.15182062  0.36923732  1
  In  In43  1  0.33523224  0.16828826  0.87900381  1
  In  In44  1  0.32073384  0.50395136  0.38041751  1
  In  In45  1  0.33950617  0.48862671  0.88276216  1
  In  In46  1  0.33467615  0.83482315  0.37232278  1
  In  In47  1  0.32075648  0.83790646  0.87752612  1
  In  In48  1  0.65851528  0.17690368  0.37137592  1
  In  In49  1  0.67539748  0.16005629  0.88089771  1
  In  In50  1  0.67346997  0.48849581  0.38845533  1
  In  In51  1  0.65559930  0.48665379  0.87189629  1
  In  In52  1  0.66658855  0.81897204  0.37712137  1
  In  In53  1  0.66258274  0.84916450  0.87860090  1
  In  In54  1  0.17202009  0.00161285  0.12561400  1
  In  In55  1  0.16487601  0.02624652  0.62255253  1
  In  In56  1  0.15437234  0.32312605  0.11877964  1
  In  In57  1  0.16914347  0.33401791  0.62691356  1
  In  In58  1  0.16418706  0.67045391  0.12592858  1
  In  In59  1  0.17222367  0.66021057  0.61998215  1
  In  In60  1  0.48241571  0.00283813  0.12587602  1
  In  In61  1  0.50098486  0.00405421  0.63352007  1
  In  In62  1  0.50465180  0.33828866  0.12060005  1
  In  In63  1  0.49367638  0.33321399  0.62466049  1
  In  In64  1  0.50236185  0.65265443  0.12561364  1
  In  In65  1  0.49097914  0.66360561  0.61595205  1
  In  In66  1  0.85048804  0.01642455  0.11804570  1
  In  In67  1  0.82946242  -0.00554484  0.62840377  1
  In  In68  1  0.84629989  0.32247391  0.13298890  1
  In  In69  1  0.83198922  0.34807023  0.62302494  1
  In  In70  1  0.84228858  0.68064025  0.11865073  1
  In  In71  1  0.83963654  0.65174300  0.61923885  1
  In  In72  1  0.49258302  0.17587808  0.50922278  1
  In  In73  1  0.49728783  0.83340295  0.00068677  1
  In  In74  1  0.00492386  0.66468613  0.74406112  1
  In  In75  1  -0.00020167  0.00823535  0.75184140  1
  In  In76  1  0.65862885  0.32567431  0.74609026  1
  In  In77  1  0.83511039  0.17247908  0.49120877  1
  In  In78  1  0.83025433  0.82959614  0.49870636  1
  In  In79  1  0.66976197  0.65872309  0.24988964  1
  In  In80  1  0.66785780  0.00415948  0.24966555  1
  In  In81  1  0.83344021  0.49701987  0.00609120  1
  In  In82  1  0.66764072  0.67138041  0.75600519  1
  In  In83  1  0.16648345  0.82611358  0.49527007  1
  In  In84  1  0.32654008  0.32697150  0.24914046  1
  In  In85  1  0.32964144  0.66461310  0.75074766  1
  Cu  Cu86  1  0.33459179  0.00546115  -0.00134212  1
  Cu  Cu87  1  0.00588681  0.00233176  0.00465506  1
  Cu  Cu88  1  0.33049819  0.33714283  0.00400473  1
  Cu  Cu89  1  0.00314578  0.33256176  0.49432094  1
  Cu  Cu90  1  0.66865164  0.00019265  0.00012616  1
  Cu  Cu91  1  0.83788397  0.17196744  0.24539063  1
  Cu  Cu92  1  0.17375861  0.17655529  0.75320370  1
  Cu  Cu93  1  0.32667119  -0.00416120  0.49687231  1
  Cu  Cu94  1  0.33235445  0.65974163  0.49724515  1
  Cu  Cu95  1  0.17326539  0.48797509  0.75145657  1
  Cu  Cu96  1  0.66055069  0.66848074  0.50037379  1
  Cu  Cu97  1  0.49900658  0.49694364  0.24974926  1
  Cu  Cu98  1  0.83688322  0.49460858  0.74047491  1
  Cu  Cu99  1  0.66212645  0.32870074  -0.00375216  1
  Cu  Cu100  1  0.00051676  0.33093998  0.00366036  1
  Cu  Cu101  1  0.67097013  0.66119905  0.00094488  1
  Cu  Cu102  1  0.16009764  0.84167739  0.75570019  1
  Cu  Cu103  1  0.49369671  0.83288774  0.25509063  1
  Cu  Cu104  1  0.17263823  0.83374953  0.24760148  1
  Cu  Cu105  1  0.16760467  0.50011395  0.24995707  1
  Cu  Cu106  1  0.32738902  0.32875716  0.50279806  1
  Cu  Cu107  1  0.49851223  0.84047405  0.74797896  1
  Cu  Cu108  1  0.83571448  0.16443616  0.75437448  1
  Cu  Cu109  1  0.65636757  0.00278003  0.50563196  1
  Cu  Cu110  1  0.82979723  0.84057316  0.75565311  1
  Cu  Cu111  1  0.83584124  0.49951962  0.25222366  1
  Cu  Cu112  1  0.84362825  0.83823783  0.24067884  1
  Cu  Cu113  1  0.49755878  0.17074345  0.24980933  1
  Cu  Cu114  1  0.33018660  0.66699162  0.00509108  1
  Se  Se115  1  0.08796871  0.08643134  0.05805540  1
  Se  Se116  1  0.07521566  0.07450462  0.54460045  1
  Se  Se117  1  0.08502198  0.41892358  0.05025062  1
  Se  Se118  1  0.08701475  0.41133952  0.55304600  1
  Se  Se119  1  0.09720674  0.76019770  0.05358451  1
  Se  Se120  1  0.07260198  0.73921492  0.55714105  1
  Se  Se121  1  0.42196511  0.08804468  0.04835319  1
  Se  Se122  1  0.40419428  0.07704470  0.56070153  1
  Se  Se123  1  0.41669537  0.42050658  0.05572730  1
  Se  Se124  1  0.41407418  0.41222106  0.55234942  1
  Se  Se125  1  0.41171050  0.74712674  0.06577180  1
  Se  Se126  1  0.41191843  0.74998161  0.54787702  1
  Se  Se127  1  0.75203009  0.08468960  0.05292305  1
  Se  Se128  1  0.74439066  0.08234512  0.55821673  1
  Se  Se129  1  0.74331486  0.40377122  0.06217666  1
  Se  Se130  1  0.76435476  0.42554463  0.54606514  1
  Se  Se131  1  0.75203315  0.75068549  0.04756289  1
  Se  Se132  1  0.73896293  0.74629507  0.56529584  1
  Se  Se133  1  0.24584404  0.24960580  0.05105022  1
  Se  Se134  1  0.24936458  0.24451389  0.55886428  1
  Se  Se135  1  0.24634302  0.58300952  0.05723768  1
  Se  Se136  1  0.24866059  0.57701179  0.55028513  1
  Se  Se137  1  0.25428194  0.91966050  0.05283195  1
  Se  Se138  1  0.24858234  0.91786345  0.56174252  1
  Se  Se139  1  0.57981569  0.24694781  0.05259977  1
  Se  Se140  1  0.59693100  0.26320007  0.55620240  1
  Se  Se141  1  0.58277659  0.58031441  0.05007720  1
  Se  Se142  1  0.57887985  0.58188353  0.55138745  1
  Se  Se143  1  0.58834384  0.92285076  0.06325879  1
  Se  Se144  1  0.57388164  0.91955606  0.55802948  1
  Se  Se145  1  0.91817277  0.24577594  0.05584131  1
  Se  Se146  1  0.92391681  0.25476678  0.55934632  1
  Se  Se147  1  0.92741585  0.58367967  0.06164935  1
  Se  Se148  1  0.92634929  0.59229638  0.54541198  1
  Se  Se149  1  0.92078395  0.91736233  0.05563404  1
  Se  Se150  1  0.92042114  0.92728429  0.55372105  1
  Se  Se151  1  0.08365192  0.24575385  0.44302716  1
  Se  Se152  1  0.08446740  0.24998292  0.94747837  1
  Se  Se153  1  0.08704031  0.58102645  0.44314761  1
  Se  Se154  1  0.06555554  0.59309524  0.94771376  1
  Se  Se155  1  0.07626798  0.91826179  0.43985694  1
  Se  Se156  1  0.08999237  0.92094273  0.94968923  1
  Se  Se157  1  0.40392337  0.25143876  0.43601291  1
  Se  Se158  1  0.41443911  0.25342300  0.95010996  1
  Se  Se159  1  0.41754945  0.57596750  0.44589634  1
  Se  Se160  1  0.41285470  0.58133174  0.95294755  1
  Se  Se161  1  0.41374613  0.91280494  0.44824226  1
  Se  Se162  1  0.41629530  0.92532323  0.93740681  1
  Se  Se163  1  0.73856857  0.26312210  0.44075728  1
  Se  Se164  1  0.75364175  0.24588915  0.95116126  1
  Se  Se165  1  0.74785376  0.59165535  0.44580997  1
  Se  Se166  1  0.74493109  0.58071828  0.93598552  1
  Se  Se167  1  0.73707370  0.92604361  0.44203876  1
  Se  Se168  1  0.75279140  0.91488560  0.95005337  1
  Se  Se169  1  0.24432266  0.08033297  0.44541196  1
  Se  Se170  1  0.24760906  0.09082385  0.95005325  1
  Se  Se171  1  0.24585012  0.41263389  0.44692851  1
  Se  Se172  1  0.24514700  0.41977385  0.95001370  1
  Se  Se173  1  0.25190850  0.73579163  0.43402192  1
  Se  Se174  1  0.25127414  0.75389528  0.95154919  1
  Se  Se175  1  0.58162029  0.08409051  0.44237054  1
  Se  Se176  1  0.58366136  0.07959945  0.94537589  1
  Se  Se177  1  0.57325526  0.41983159  0.45030718  1
  Se  Se178  1  0.57911701  0.41773737  0.94921078  1
  Se  Se179  1  0.57810586  0.75436055  0.44961376  1
  Se  Se180  1  0.58797504  0.74070807  0.93935929  1
  Se  Se181  1  0.92303659  0.07680131  0.43823412  1
  Se  Se182  1  0.92126003  0.08383839  0.94876587  1
  Se  Se183  1  0.91872732  0.41642687  0.44304962  1
  Se  Se184  1  0.91830944  0.40841266  0.94024006  1
  Se  Se185  1  0.92352797  0.74948239  0.43589139  1
  Se  Se186  1  0.91553774  0.75097712  0.95981220  1
  Se  Se187  1  0.23399843  0.23607617  0.30376606  1
  Se  Se188  1  0.25861010  0.25667881  0.80782982  1
  Se  Se189  1  0.25679927  0.58194445  0.29911517  1
  Se  Se190  1  0.24013383  0.57877739  0.81341627  1
  Se  Se191  1  0.25161288  0.91747129  0.30515556  1
  Se  Se192  1  0.25002864  0.92161256  0.80292080  1
  Se  Se193  1  0.58151522  0.25609269  0.29864363  1
  Se  Se194  1  0.58027254  0.24857790  0.82024685  1
  Se  Se195  1  0.58000868  0.57514167  0.31272684  1
  Se  Se196  1  0.57178117  0.57661025  0.80457719  1
  Se  Se197  1  0.58072349  0.91107091  0.31180632  1
  Se  Se198  1  0.58796819  0.91829210  0.79969540  1
  Se  Se199  1  0.91817326  0.25395183  0.30334919  1
  Se  Se200  1  0.91916272  0.25209396  0.80199136  1
  Se  Se201  1  0.92122074  0.58357363  0.30173299  1
  Se  Se202  1  0.91238821  0.57508391  0.80431415  1
  Se  Se203  1  0.92312383  0.92217471  0.29574738  1
  Se  Se204  1  0.92168631  0.90937289  0.81407072  1
  Se  Se205  1  0.07137455  0.07019328  0.30014838  1
  Se  Se206  1  0.09195463  0.09386796  0.81260939  1
  Se  Se207  1  0.08504331  0.41632519  0.30361429  1
  Se  Se208  1  0.08544455  0.41045999  0.80550627  1
  Se  Se209  1  0.08512898  0.74794012  0.29539824  1
  Se  Se210  1  0.08570099  0.75503646  0.81224067  1
  Se  Se211  1  0.41721528  0.08281642  0.30009745  1
  Se  Se212  1  0.39631272  0.07081002  0.80861884  1
  Se  Se213  1  0.41599841  0.41822923  0.30981699  1
  Se  Se214  1  0.41737695  0.42499118  0.80391776  1
  Se  Se215  1  0.41594021  0.74464227  0.30692660  1
  Se  Se216  1  0.42162585  0.75929190  0.80952265  1
  Se  Se217  1  0.75954953  0.09368098  0.31074377  1
  Se  Se218  1  0.75557550  0.08033157  0.80797205  1
  Se  Se219  1  0.74737517  0.42242858  0.30581855  1
  Se  Se220  1  0.75613831  0.41874881  0.80331608  1
  Se  Se221  1  0.76238017  0.75879969  0.30184359  1
  Se  Se222  1  0.76141215  0.75446856  0.81850089  1
  Se  Se223  1  0.25906980  0.07967449  0.19493968  1
  Se  Se224  1  0.24988038  0.08651175  0.69974140  1
  Se  Se225  1  0.24397614  0.41985210  0.18656366  1
  Se  Se226  1  0.25914070  0.40950937  0.69711898  1
  Se  Se227  1  0.25426521  0.74546430  0.19702496  1
  Se  Se228  1  0.23651093  0.75824295  0.69331398  1
  Se  Se229  1  0.57847761  0.09104431  0.18780835  1
  Se  Se230  1  0.58014359  0.08564410  0.70433225  1
  Se  Se231  1  0.58308325  0.41407604  0.19797612  1
  Se  Se232  1  0.57817526  0.42735759  0.69052526  1
  Se  Se233  1  0.57641786  0.75580464  0.19460632  1
  Se  Se234  1  0.57485381  0.75346584  0.68968298  1
  Se  Se235  1  0.92276674  0.08591598  0.19795135  1
  Se  Se236  1  0.91532616  0.09541831  0.68503842  1
  Se  Se237  1  0.91903068  0.41561252  0.19885816  1
  Se  Se238  1  0.92679717  0.41456836  0.69267395  1
  Se  Se239  1  0.92553755  0.74992188  0.19264052  1
  Se  Se240  1  0.90226728  0.75659743  0.69282525  1
  Se  Se241  1  0.07518192  0.26323221  0.19837738  1
  Se  Se242  1  0.08550864  0.25334331  0.69888880  1
  Se  Se243  1  0.08454857  0.58402096  0.19601914  1
  Se  Se244  1  0.09368473  0.56882037  0.68950488  1
  Se  Se245  1  0.08886915  0.91806099  0.19477433  1
  Se  Se246  1  0.08551086  0.91603211  0.68794904  1
  Se  Se247  1  0.41774033  0.24477974  0.18477476  1
  Se  Se248  1  0.44619902  0.23108473  0.69392498  1
  Se  Se249  1  0.41779668  0.58447587  0.20003264  1
  Se  Se250  1  0.41954825  0.57747606  0.69078442  1
  Se  Se251  1  0.41529857  0.91976405  0.20163650  1
  Se  Se252  1  0.41004325  0.91812378  0.69545710  1
  Se  Se253  1  0.74664437  0.25303218  0.19833019  1
  Se  Se254  1  0.75842634  0.24212195  0.68764361  1
  Se  Se255  1  0.76085907  0.57666078  0.18448729  1
  Se  Se256  1  0.74913968  0.57682785  0.68989223  1
  Se  Se257  1  0.75665710  0.91701457  0.18589728  1
  Se  Se258  1  0.74752290  0.92410732  0.70350018  1
