# generated using pymatgen
data_In86Cu29Se144
_symmetry_space_group_name_H-M   'P 1'
_cell_length_a   17.57853538
_cell_length_b   17.57883610
_cell_length_c   23.43527642
_cell_angle_alpha   89.99865967
_cell_angle_beta   90.00649679
_cell_angle_gamma   89.99409056
_symmetry_Int_Tables_number   1
_chemical_formula_structural   In86Cu29Se144
_chemical_formula_sum   'In86 Cu29 Se144'
_cell_volume   7241.73918751
_cell_formula_units_Z   1
loop_
 _symmetry_equiv_pos_site_id
 _symmetry_equiv_pos_as_xyz
  1  'x, y, z'
loop_
 _atom_site_type_symbol
 _atom_site_label
 _atom_site_symmetry_multiplicity
 _atom_site_fract_x
 _atom_site_fract_y
 _atom_site_fract_z
 _atom_site_occupancy
  In  In0  1  -0.01097051  0.15073424  0.12153048  1
  In  In1  1  -0.00495242  0.16157193  0.61695867  1
  In  In2  1  -0.00028833  0.50645532  0.12694537  1
  In  In3  1  -0.00910798  0.52446662  0.62178359  1
  In  In4  1  0.00375408  0.85155430  0.12679830  1
  In  In5  1  -0.01109995  0.81204208  0.60478882  1
  In  In6  1  0.32763715  0.17307746  0.12882889  1
  In  In7  1  0.33416174  0.16842427  0.62218921  1
  In  In8  1  0.33237534  0.50024615  0.12934716  1
  In  In9  1  0.34008500  0.49091410  0.63027287  1
  In  In10  1  0.34486496  0.83178500  0.12523844  1
  In  In11  1  0.33681157  0.83410975  0.61882446  1
  In  In12  1  0.67862855  0.16816056  0.12724688  1
  In  In13  1  0.66825345  0.16746900  0.63057772  1
  In  In14  1  0.65886885  0.49594635  0.12631589  1
  In  In15  1  0.67314913  0.49370254  0.62798251  1
  In  In16  1  0.66889147  0.83257643  0.11155762  1
  In  In17  1  0.66606780  0.83053376  0.62328876  1
  In  In18  1  0.17061433  0.00230895  0.37442836  1
  In  In19  1  0.17677760  0.00287861  0.87227936  1
  In  In20  1  0.17293028  0.31449748  0.38345122  1
  In  In21  1  0.16447850  0.31809584  0.87467814  1
  In  In22  1  0.17463561  0.68013191  0.39113796  1
  In  In23  1  0.16646734  0.66737817  0.85802022  1
  In  In24  1  0.49419870  0.01021508  0.38324941  1
  In  In25  1  0.49616249  -0.00787271  0.86865957  1
  In  In26  1  0.48759364  0.32496177  0.36430194  1
  In  In27  1  0.50405605  0.33604601  0.86538713  1
  In  In28  1  0.50455655  0.66837456  0.38890668  1
  In  In29  1  0.52126675  0.69122508  0.85381530  1
  In  In30  1  0.83871628  -0.00408139  0.38168565  1
  In  In31  1  0.82232814  0.00574421  0.87306021  1
  In  In32  1  0.82172169  0.33923055  0.38658219  1
  In  In33  1  0.82403541  0.32870551  0.86979176  1
  In  In34  1  0.81569358  0.68222738  0.41357916  1
  In  In35  1  0.83349076  0.66904446  0.86608415  1
  In  In36  1  0.01085415  0.15582869  0.38398281  1
  In  In37  1  0.00072776  0.16282422  0.87801548  1
  In  In38  1  -0.01085340  0.49687213  0.38051901  1
  In  In39  1  -0.00770494  0.50749780  0.86938310  1
  In  In40  1  -0.01404016  0.84584525  0.38497853  1
  In  In41  1  -0.00303011  0.81973801  0.86695925  1
  In  In42  1  0.33664841  0.16547985  0.37705893  1
  In  In43  1  0.33022598  0.15815202  0.86714911  1
  In  In44  1  0.34425134  0.48529129  0.37720939  1
  In  In45  1  0.33562074  0.50200785  0.86278387  1
  In  In46  1  0.32219599  0.84217848  0.39357574  1
  In  In47  1  0.34222161  0.84478202  0.86220694  1
  In  In48  1  0.65314590  0.17648550  0.38573473  1
  In  In49  1  0.67943772  0.17225566  0.85901991  1
  In  In50  1  0.67054469  0.50287765  0.37636121  1
  In  In51  1  0.66795724  0.50282925  0.86334181  1
  In  In52  1  0.66261583  0.83266638  0.39366612  1
  In  In53  1  0.66531178  0.83349559  0.87039575  1
  In  In54  1  0.16034015  0.00774978  0.13252483  1
  In  In55  1  0.17584033  0.00661639  0.61909994  1
  In  In56  1  0.18340754  0.32670949  0.13014549  1
  In  In57  1  0.18008108  0.32869429  0.61974834  1
  In  In58  1  0.17211154  0.66062613  0.12473128  1
  In  In59  1  0.16282938  0.67537079  0.62351084  1
  In  In60  1  0.49970905  -0.01461765  0.12743174  1
  In  In61  1  0.50067111  0.00025268  0.62491640  1
  In  In62  1  0.50064155  0.33738660  0.14000878  1
  In  In63  1  0.50333786  0.32778374  0.62802812  1
  In  In64  1  0.49815823  0.67560754  0.11888838  1
  In  In65  1  0.48983365  0.67611569  0.62613232  1
  In  In66  1  0.82995701  0.00203031  0.12061356  1
  In  In67  1  0.82770663  -0.00351264  0.62542348  1
  In  In68  1  0.84097143  0.32263222  0.12898642  1
  In  In69  1  0.81779433  0.32273398  0.62082553  1
  In  In70  1  0.82353027  0.68158466  0.12497576  1
  In  In71  1  0.82559622  0.67020515  0.62012638  1
  In  In72  1  0.16863854  0.49443142  0.00751676  1
  In  In73  1  -0.00355298  0.66664981  0.26840880  1
  In  In74  1  0.34098253  0.66440811  0.25313160  1
  In  In75  1  0.49895879  0.49564639  0.50676042  1
  In  In76  1  0.50111798  0.50630744  0.00313183  1
  In  In77  1  0.00238519  0.32235434  0.25810744  1
  In  In78  1  0.16113199  0.50336777  0.50351426  1
  In  In79  1  0.66621232  0.00206651  0.25312040  1
  In  In80  1  0.66524438  0.66905480  0.26383761  1
  In  In81  1  0.50379428  0.16211707  -0.00057080  1
  In  In82  1  0.82959391  0.49563875  -0.01521891  1
  In  In83  1  0.16278666  0.83735536  -0.00352146  1
  In  In84  1  0.00127648  0.34004391  0.75030285  1
  In  In85  1  0.00104623  -0.00624581  0.73464492  1
  Cu  Cu86  1  0.17359466  0.16237341  0.25579158  1
  Cu  Cu87  1  0.83180863  0.82953756  0.74242931  1
  Cu  Cu88  1  0.50085423  0.50086285  0.74348101  1
  Cu  Cu89  1  0.33113025  0.32486361  -0.00096913  1
  Cu  Cu90  1  0.49882069  0.83583854  0.74222352  1
  Cu  Cu91  1  0.17167517  0.16796019  0.74522040  1
  Cu  Cu92  1  0.66790750  0.00130685  0.50754826  1
  Cu  Cu93  1  0.16986147  0.84439784  0.25594090  1
  Cu  Cu94  1  0.16980673  0.50163416  0.73776527  1
  Cu  Cu95  1  0.32932078  0.00305640  -0.00488364  1
  Cu  Cu96  1  0.83713371  0.50684622  0.74511987  1
  Cu  Cu97  1  -0.00850030  -0.00045622  -0.00108047  1
  Cu  Cu98  1  0.17456565  0.49506649  0.25797299  1
  Cu  Cu99  1  -0.00478562  0.66642322  -0.00649325  1
  Cu  Cu100  1  0.00699200  0.00148481  0.50126176  1
  Cu  Cu101  1  0.34716026  0.67887048  -0.01379877  1
  Cu  Cu102  1  0.83703555  0.83977787  0.25722874  1
  Cu  Cu103  1  0.00113507  0.31473294  0.00186341  1
  Cu  Cu104  1  0.33836845  0.00312220  0.50049619  1
  Cu  Cu105  1  0.49864056  0.83364054  0.25426498  1
  Cu  Cu106  1  0.83169287  0.16588926  0.25250889  1
  Cu  Cu107  1  -0.00739131  0.33680459  0.50281586  1
  Cu  Cu108  1  0.67044227  0.32750352  -0.00314464  1
  Cu  Cu109  1  0.49583673  0.16620315  0.25670152  1
  Cu  Cu110  1  0.66646516  -0.00288457  -0.00655610  1
  Cu  Cu111  1  0.49855015  0.16359285  0.74624043  1
  Cu  Cu112  1  0.82773833  0.49676273  0.25880388  1
  Cu  Cu113  1  0.66021304  0.32956532  0.50282947  1
  Cu  Cu114  1  0.17099202  0.83491518  0.74013578  1
  Se  Se115  1  0.08008993  0.07532248  0.05420698  1
  Se  Se116  1  0.08873462  0.08820340  0.55214136  1
  Se  Se117  1  0.07332691  0.40151144  0.06386904  1
  Se  Se118  1  0.07224477  0.41374114  0.56615341  1
  Se  Se119  1  0.07651001  0.74113647  0.05913593  1
  Se  Se120  1  0.09442768  0.75026280  0.54357255  1
  Se  Se121  1  0.41123020  0.07619339  0.06050154  1
  Se  Se122  1  0.42073030  0.08573030  0.55515822  1
  Se  Se123  1  0.41108184  0.40659051  0.05872316  1
  Se  Se124  1  0.40611331  0.39842744  0.55625570  1
  Se  Se125  1  0.42261711  0.75947800  0.04742781  1
  Se  Se126  1  0.41855255  0.75129974  0.54871756  1
  Se  Se127  1  0.74336196  0.08144237  0.05247828  1
  Se  Se128  1  0.75119309  0.08677046  0.55798718  1
  Se  Se129  1  0.74921110  0.40960908  0.05853806  1
  Se  Se130  1  0.74689448  0.41517996  0.55122436  1
  Se  Se131  1  0.75627577  0.75419903  0.04633074  1
  Se  Se132  1  0.75956105  0.76663075  0.55150485  1
  Se  Se133  1  0.24654428  0.24378655  0.05152607  1
  Se  Se134  1  0.24246423  0.23648672  0.54999699  1
  Se  Se135  1  0.27036283  0.59572009  0.05114547  1
  Se  Se136  1  0.25686628  0.58226647  0.56421846  1
  Se  Se137  1  0.25359156  0.92154845  0.06000137  1
  Se  Se138  1  0.25229443  0.91872847  0.55048262  1
  Se  Se139  1  0.58600398  0.25827495  0.06153549  1
  Se  Se140  1  0.58209805  0.24468402  0.55777483  1
  Se  Se141  1  0.59840042  0.59680167  0.05627466  1
  Se  Se142  1  0.58593577  0.58651220  0.56540721  1
  Se  Se143  1  0.58165499  0.91997435  0.05043168  1
  Se  Se144  1  0.58199388  0.91600607  0.55581354  1
  Se  Se145  1  0.90985333  0.23988729  0.05404353  1
  Se  Se146  1  0.91103350  0.24927849  0.55371070  1
  Se  Se147  1  0.91485504  0.58472525  0.05510768  1
  Se  Se148  1  0.90433568  0.58619659  0.54793197  1
  Se  Se149  1  0.91327126  0.91443911  0.05442500  1
  Se  Se150  1  0.91989141  0.92469000  0.55569294  1
  Se  Se151  1  0.07752139  0.25202747  0.45273991  1
  Se  Se152  1  0.08941023  0.23796103  0.94818515  1
  Se  Se153  1  0.07135612  0.59185077  0.44309182  1
  Se  Se154  1  0.08407673  0.58610939  0.94084151  1
  Se  Se155  1  0.08774712  0.91970167  0.44424176  1
  Se  Se156  1  0.07157891  0.92435948  0.93349061  1
  Se  Se157  1  0.42675800  0.24429579  0.44263907  1
  Se  Se158  1  0.41622498  0.25386407  0.93739970  1
  Se  Se159  1  0.40404186  0.58444307  0.44735018  1
  Se  Se160  1  0.42051588  0.58819233  0.93139214  1
  Se  Se161  1  0.42458428  0.91616791  0.45144114  1
  Se  Se162  1  0.41189804  0.91873855  0.94305783  1
  Se  Se163  1  0.74928821  0.24541392  0.45282352  1
  Se  Se164  1  0.75048278  0.24418204  0.94240243  1
  Se  Se165  1  0.72886614  0.58176007  0.45709550  1
  Se  Se166  1  0.73798064  0.59348411  0.93718109  1
  Se  Se167  1  0.75199565  0.92037395  0.45187210  1
  Se  Se168  1  0.75080161  0.91391862  0.94148513  1
  Se  Se169  1  0.25243606  0.08291097  0.44530603  1
  Se  Se170  1  0.24789457  0.08894827  0.94488306  1
  Se  Se171  1  0.25292547  0.40956681  0.44685275  1
  Se  Se172  1  0.25719861  0.41273037  0.93971003  1
  Se  Se173  1  0.26289917  0.74373121  0.46309111  1
  Se  Se174  1  0.25111901  0.74863689  0.93251117  1
  Se  Se175  1  0.58321389  0.08284769  0.45300195  1
  Se  Se176  1  0.59051425  0.08031658  0.93275876  1
  Se  Se177  1  0.58258677  0.40776245  0.43922639  1
  Se  Se178  1  0.59118280  0.41318655  0.94096135  1
  Se  Se179  1  0.58403561  0.74609941  0.45881912  1
  Se  Se180  1  0.57819456  0.75635738  0.94049457  1
  Se  Se181  1  0.91705191  0.08333739  0.45015508  1
  Se  Se182  1  0.91196394  0.08181284  0.94208418  1
  Se  Se183  1  0.90855261  0.42141350  0.45290474  1
  Se  Se184  1  0.93102756  0.40089579  0.93791063  1
  Se  Se185  1  0.92951644  0.75017916  0.45728789  1
  Se  Se186  1  0.91274720  0.74923764  0.94089678  1
  Se  Se187  1  0.25443839  0.25040527  0.30534620  1
  Se  Se188  1  0.25210817  0.25102951  0.80191931  1
  Se  Se189  1  0.24574481  0.58321671  0.31732260  1
  Se  Se190  1  0.25336146  0.58478308  0.79443663  1
  Se  Se191  1  0.26032668  0.91723168  0.30987515  1
  Se  Se192  1  0.24648626  0.91993352  0.79799479  1
  Se  Se193  1  0.58638680  0.24775147  0.30295932  1
  Se  Se194  1  0.58241865  0.24946746  0.79857821  1
  Se  Se195  1  0.56728749  0.57616455  0.31137753  1
  Se  Se196  1  0.58636046  0.58430356  0.79506626  1
  Se  Se197  1  0.58081683  0.91079346  0.31529260  1
  Se  Se198  1  0.58262878  0.91545325  0.79946365  1
  Se  Se199  1  0.90826822  0.24168007  0.31928346  1
  Se  Se200  1  0.91556437  0.24268362  0.80554035  1
  Se  Se201  1  0.89394392  0.58453682  0.32128689  1
  Se  Se202  1  0.92152841  0.59055309  0.79661097  1
  Se  Se203  1  0.92088801  0.92571113  0.30485830  1
  Se  Se204  1  0.91269584  0.91189136  0.80320569  1
  Se  Se205  1  0.08326115  0.08316431  0.30479393  1
  Se  Se206  1  0.08729972  0.08607207  0.80173619  1
  Se  Se207  1  0.09038536  0.41892146  0.31651693  1
  Se  Se208  1  0.09692174  0.42831862  0.81011558  1
  Se  Se209  1  0.09236443  0.76186783  0.31668494  1
  Se  Se210  1  0.08386209  0.75327862  0.79304738  1
  Se  Se211  1  0.41473413  0.07829143  0.30537650  1
  Se  Se212  1  0.41642833  0.07904096  0.80058136  1
  Se  Se213  1  0.41456254  0.41809206  0.29734363  1
  Se  Se214  1  0.41810059  0.41549406  0.79797276  1
  Se  Se215  1  0.42106838  0.75623529  0.31799132  1
  Se  Se216  1  0.41207629  0.75071114  0.79414463  1
  Se  Se217  1  0.75109583  0.09029621  0.31638576  1
  Se  Se218  1  0.74870126  0.07536107  0.79465426  1
  Se  Se219  1  0.74425934  0.41114647  0.30807730  1
  Se  Se220  1  0.75692957  0.42041902  0.80002689  1
  Se  Se221  1  0.76000918  0.75953651  0.31982160  1
  Se  Se222  1  0.74724723  0.74990899  0.79923980  1
  Se  Se223  1  0.25504225  0.08101342  0.19736166  1
  Se  Se224  1  0.25409872  0.08274614  0.69390265  1
  Se  Se225  1  0.25574039  0.41621388  0.20001010  1
  Se  Se226  1  0.25186264  0.40844478  0.69598661  1
  Se  Se227  1  0.24325276  0.75720021  0.19426990  1
  Se  Se228  1  0.25567097  0.74993662  0.69038659  1
  Se  Se229  1  0.57478870  0.09049577  0.19015490  1
  Se  Se230  1  0.58381526  0.08015233  0.69587525  1
  Se  Se231  1  0.59127260  0.41684948  0.20131624  1
  Se  Se232  1  0.58477598  0.41424209  0.69471344  1
  Se  Se233  1  0.58264516  0.75841465  0.19370806  1
  Se  Se234  1  0.58305305  0.74855712  0.69413720  1
  Se  Se235  1  0.90733366  0.07934604  0.19667871  1
  Se  Se236  1  0.90681429  0.09445234  0.69312847  1
  Se  Se237  1  0.91478144  0.42353110  0.19938167  1
  Se  Se238  1  0.91203310  0.42141835  0.68425782  1
  Se  Se239  1  0.91645851  0.75624379  0.19692839  1
  Se  Se240  1  0.91737786  0.74847958  0.68926087  1
  Se  Se241  1  0.08864948  0.23850456  0.19107076  1
  Se  Se242  1  0.08535499  0.24560273  0.68889261  1
  Se  Se243  1  0.09174733  0.57911170  0.20141912  1
  Se  Se244  1  0.08296003  0.58878009  0.69336469  1
  Se  Se245  1  0.08166347  0.92262904  0.20290705  1
  Se  Se246  1  0.08788111  0.90386426  0.67533912  1
  Se  Se247  1  0.41422115  0.24809358  0.19900232  1
  Se  Se248  1  0.41427490  0.24925983  0.69555332  1
  Se  Se249  1  0.43362972  0.57837951  0.19007472  1
  Se  Se250  1  0.41518697  0.58454025  0.69445627  1
  Se  Se251  1  0.41386598  0.91535527  0.20112662  1
  Se  Se252  1  0.41255089  0.91881552  0.69216423  1
  Se  Se253  1  0.75133549  0.25250899  0.20024509  1
  Se  Se254  1  0.74391988  0.25608770  0.70045464  1
  Se  Se255  1  0.75574629  0.58290098  0.19524219  1
  Se  Se256  1  0.74924403  0.58660465  0.69406747  1
  Se  Se257  1  0.75065569  0.90689103  0.19298976  1
  Se  Se258  1  0.74642221  0.91519030  0.69529259  1
