# generated using pymatgen
data_In86Cu29Se144
_symmetry_space_group_name_H-M   'P 1'
_cell_length_a   17.56074741
_cell_length_b   17.56984683
_cell_length_c   23.42424467
_cell_angle_alpha   90.00579427
_cell_angle_beta   89.99171224
_cell_angle_gamma   89.99310740
_symmetry_Int_Tables_number   1
_chemical_formula_structural   In86Cu29Se144
_chemical_formula_sum   'In86 Cu29 Se144'
_cell_volume   7227.30790452
_cell_formula_units_Z   1
loop_
 _symmetry_equiv_pos_site_id
 _symmetry_equiv_pos_as_xyz
  1  'x, y, z'
loop_
 _atom_site_type_symbol
 _atom_site_label
 _atom_site_symmetry_multiplicity
 _atom_site_fract_x
 _atom_site_fract_y
 _atom_site_fract_z
 _atom_site_occupancy
  In  In0  1  0.01298742  0.16175544  0.11943372  1
  In  In1  1  0.01567373  0.16618625  0.62484612  1
  In  In2  1  0.00680201  0.49245187  0.11945357  1
  In  In3  1  -0.01033733  0.49043934  0.63441248  1
  In  In4  1  -0.01169451  0.83320762  0.11800627  1
  In  In5  1  -0.00609579  0.83980764  0.62280632  1
  In  In6  1  0.34150117  0.17066321  0.12694424  1
  In  In7  1  0.33658925  0.16909135  0.62577495  1
  In  In8  1  0.33308683  0.49850147  0.10945922  1
  In  In9  1  0.34576824  0.49065507  0.63498163  1
  In  In10  1  0.36764561  0.83069364  0.11743527  1
  In  In11  1  0.34406400  0.81893089  0.64692318  1
  In  In12  1  0.63901195  0.18566782  0.14813843  1
  In  In13  1  0.65326911  0.17755194  0.63003985  1
  In  In14  1  0.64935413  0.51397468  0.12808890  1
  In  In15  1  0.65489161  0.50342867  0.62727590  1
  In  In16  1  0.66042685  0.83419149  0.12599877  1
  In  In17  1  0.67403169  0.83438112  0.61735534  1
  In  In18  1  0.18810460  0.00536823  0.37293330  1
  In  In19  1  0.19314290  -0.00331157  0.87095072  1
  In  In20  1  0.16957167  0.31440286  0.38151126  1
  In  In21  1  0.17389973  0.33427888  0.87467817  1
  In  In22  1  0.16619321  0.66670087  0.37690981  1
  In  In23  1  0.16174995  0.65536662  0.87961957  1
  In  In24  1  0.49485102  -0.00417547  0.37644615  1
  In  In25  1  0.50148753  0.00179389  0.87664707  1
  In  In26  1  0.49633112  0.33257343  0.37186530  1
  In  In27  1  0.49737970  0.33178589  0.87391133  1
  In  In28  1  0.51312062  0.65360459  0.39004065  1
  In  In29  1  0.48713103  0.68381301  0.89929229  1
  In  In30  1  0.81374151  0.00015191  0.37719127  1
  In  In31  1  0.81452478  -0.00441504  0.87257248  1
  In  In32  1  0.82015105  0.34348908  0.37718389  1
  In  In33  1  0.82617722  0.33863498  0.85701430  1
  In  In34  1  0.82110657  0.68638096  0.38465124  1
  In  In35  1  0.84444283  0.67390351  0.88478670  1
  In  In36  1  0.01248202  0.17533150  0.37880255  1
  In  In37  1  0.00126134  0.18020118  0.87440427  1
  In  In38  1  -0.00393887  0.48855518  0.37026455  1
  In  In39  1  0.00847486  0.50482712  0.87610580  1
  In  In40  1  -0.00496325  0.82233432  0.37558397  1
  In  In41  1  -0.00438190  0.81944877  0.88064045  1
  In  In42  1  0.33738819  0.16549056  0.37651427  1
  In  In43  1  0.33753150  0.16468039  0.87613231  1
  In  In44  1  0.35283439  0.50946298  0.37345574  1
  In  In45  1  0.33977677  0.50136436  0.87869694  1
  In  In46  1  0.34131923  0.85181934  0.37066109  1
  In  In47  1  0.34258351  0.84646706  0.86233052  1
  In  In48  1  0.62888580  0.14042250  0.34387472  1
  In  In49  1  0.65773597  0.16096218  0.87005667  1
  In  In50  1  0.64802455  0.48612971  0.36196376  1
  In  In51  1  0.66339350  0.49075861  0.87268989  1
  In  In52  1  0.65900365  0.83438604  0.37815711  1
  In  In53  1  0.65654295  0.83584834  0.89003116  1
  In  In54  1  0.17609840  0.01954307  0.11562280  1
  In  In55  1  0.16821781  0.00819689  0.62753276  1
  In  In56  1  0.18369323  0.34407989  0.11329844  1
  In  In57  1  0.18351891  0.31833861  0.63804996  1
  In  In58  1  0.18943737  0.66074167  0.11065294  1
  In  In59  1  0.17922571  0.68310658  0.63409382  1
  In  In60  1  0.50166408  0.00347961  0.13300039  1
  In  In61  1  0.49971459  0.00197013  0.62862707  1
  In  In62  1  0.49673197  0.32908979  0.12525250  1
  In  In63  1  0.49922347  0.33166544  0.62516513  1
  In  In64  1  0.51709432  0.68616108  0.09414286  1
  In  In65  1  0.50333404  0.66019601  0.61822095  1
  In  In66  1  0.81662134  -0.01529381  0.11930999  1
  In  In67  1  0.82952212  -0.01552257  0.62208506  1
  In  In68  1  0.82841004  0.32649275  0.12252027  1
  In  In69  1  0.82930730  0.34454875  0.64405198  1
  In  In70  1  0.80659677  0.66301757  0.11634869  1
  In  In71  1  0.81198881  0.68060696  0.62574046  1
  In  In72  1  0.82715452  0.16154217  -0.00011377  1
  In  In73  1  0.82283561  0.50226772  0.50354101  1
  In  In74  1  -0.00574013  0.00189877  0.24127134  1
  In  In75  1  0.66309352  0.65923452  0.75457772  1
  In  In76  1  0.00288163  -0.00160280  0.74481426  1
  In  In77  1  0.17092337  0.49710518  0.50575083  1
  In  In78  1  -0.00320058  0.33261624  0.24819922  1
  In  In79  1  0.82691114  0.16719349  0.49777649  1
  In  In80  1  0.00314857  0.65706924  0.75887091  1
  In  In81  1  0.83345408  0.50300121  -0.00433109  1
  In  In82  1  0.16583717  0.83336658  -0.00417920  1
  In  In83  1  0.17546392  0.84434307  0.50223901  1
  In  In84  1  -0.00341258  0.66319992  0.24695064  1
  In  In85  1  0.34750759  0.66506480  0.23965358  1
  Cu  Cu86  1  0.65716337  0.32782428  0.49582343  1
  Cu  Cu87  1  0.65942563  0.00059483  0.49650511  1
  Cu  Cu88  1  0.82721743  0.16788160  0.24753316  1
  Cu  Cu89  1  0.81848508  0.51021367  0.24796484  1
  Cu  Cu90  1  0.82801519  0.16116108  0.74982261  1
  Cu  Cu91  1  0.50239079  0.83157804  0.25004732  1
  Cu  Cu92  1  0.00314224  0.32203897  0.51060659  1
  Cu  Cu93  1  0.33833196  0.32652271  -0.00422831  1
  Cu  Cu94  1  0.81726028  0.83347187  0.25102655  1
  Cu  Cu95  1  0.34453595  0.00042496  -0.00144208  1
  Cu  Cu96  1  -0.00718390  0.66687790  0.50238065  1
  Cu  Cu97  1  0.49587668  0.50154156  0.75341394  1
  Cu  Cu98  1  0.17035528  0.49678789  0.75582944  1
  Cu  Cu99  1  0.49747148  0.16695708  0.75109664  1
  Cu  Cu100  1  0.17125940  0.16680049  0.75191641  1
  Cu  Cu101  1  0.33786681  0.00693759  0.50197575  1
  Cu  Cu102  1  0.17880436  0.17006677  0.24855820  1
  Cu  Cu103  1  0.66235929  0.33013787  -0.00083163  1
  Cu  Cu104  1  -0.00060870  -0.00161766  0.50193427  1
  Cu  Cu105  1  0.50905613  0.83570342  0.75649440  1
  Cu  Cu106  1  0.01110772  0.33524949  -0.00558166  1
  Cu  Cu107  1  0.00321451  0.00556613  -0.00314789  1
  Cu  Cu108  1  0.18210311  0.49376213  0.23956513  1
  Cu  Cu109  1  0.65843599  0.00276740  0.00241307  1
  Cu  Cu110  1  0.82815548  0.83013602  0.75213428  1
  Cu  Cu111  1  0.49622559  0.49960939  0.24503826  1
  Cu  Cu112  1  0.17251579  0.84231717  0.24058675  1
  Cu  Cu113  1  0.33596506  0.33334047  0.50534415  1
  Cu  Cu114  1  0.34266740  0.67122457  0.50669671  1
  Se  Se115  1  0.08996927  0.09067647  0.04230552  1
  Se  Se116  1  0.08576914  0.07967197  0.55187576  1
  Se  Se117  1  0.09142383  0.42113833  0.04733771  1
  Se  Se118  1  0.08169004  0.40800751  0.56795134  1
  Se  Se119  1  0.07953116  0.74248360  0.05936941  1
  Se  Se120  1  0.08249719  0.74532772  0.55755305  1
  Se  Se121  1  0.42153161  0.08221784  0.05867410  1
  Se  Se122  1  0.42215684  0.08838732  0.55733831  1
  Se  Se123  1  0.42163089  0.40927486  0.05014063  1
  Se  Se124  1  0.41894217  0.41919593  0.55545465  1
  Se  Se125  1  0.38762427  0.72124423  0.04832824  1
  Se  Se126  1  0.41826661  0.75869635  0.56220301  1
  Se  Se127  1  0.73261346  0.08757000  0.06544791  1
  Se  Se128  1  0.74015413  0.07847977  0.56115493  1
  Se  Se129  1  0.74361998  0.41283818  0.05703700  1
  Se  Se130  1  0.74038974  0.40147838  0.56039188  1
  Se  Se131  1  0.75634200  0.77067637  0.05442940  1
  Se  Se132  1  0.74419074  0.74700305  0.54444280  1
  Se  Se133  1  0.25539030  0.24418416  0.05270014  1
  Se  Se134  1  0.25017117  0.24913749  0.55466755  1
  Se  Se135  1  0.24695207  0.57156267  0.03677043  1
  Se  Se136  1  0.25798924  0.59189729  0.56493261  1
  Se  Se137  1  0.26110774  0.91752249  0.05831206  1
  Se  Se138  1  0.26643084  0.92287132  0.56740638  1
  Se  Se139  1  0.58451825  0.24586397  0.05623609  1
  Se  Se140  1  0.57562719  0.24610199  0.55172485  1
  Se  Se141  1  0.58646920  0.57641666  0.04181307  1
  Se  Se142  1  0.60170283  0.59390033  0.55232231  1
  Se  Se143  1  0.57635745  0.91969726  0.05855168  1
  Se  Se144  1  0.58249528  0.92015865  0.55794696  1
  Se  Se145  1  0.92725522  0.25652126  0.05355634  1
  Se  Se146  1  0.91205596  0.25198717  0.56749245  1
  Se  Se147  1  0.91997507  0.58930862  0.06243648  1
  Se  Se148  1  0.91754481  0.58882185  0.56565959  1
  Se  Se149  1  0.91794730  0.92666087  0.05082949  1
  Se  Se150  1  0.91375237  0.91258155  0.54795711  1
  Se  Se151  1  0.08999388  0.24178404  0.45819573  1
  Se  Se152  1  0.09235295  0.24759322  0.94436864  1
  Se  Se153  1  0.07230781  0.58431140  0.44370424  1
  Se  Se154  1  0.06192571  0.59920626  0.94862327  1
  Se  Se155  1  0.08067965  0.92295905  0.43482318  1
  Se  Se156  1  0.08032926  0.92716690  0.93307216  1
  Se  Se157  1  0.41628228  0.25334882  0.44515007  1
  Se  Se158  1  0.42400235  0.24295312  0.94537825  1
  Se  Se159  1  0.41968385  0.57875837  0.45645305  1
  Se  Se160  1  0.43244984  0.56685587  0.95052682  1
  Se  Se161  1  0.41688370  0.91615201  0.45199134  1
  Se  Se162  1  0.41996974  0.91287273  0.94367043  1
  Se  Se163  1  0.73570169  0.24801793  0.43440727  1
  Se  Se164  1  0.74765965  0.25720787  0.93694538  1
  Se  Se165  1  0.73925285  0.57790040  0.43196603  1
  Se  Se166  1  0.73988090  0.59079416  0.93887748  1
  Se  Se167  1  0.74629682  0.91437810  0.44967246  1
  Se  Se168  1  0.74777560  0.92081442  0.95285002  1
  Se  Se169  1  0.25149024  0.08761677  0.44997284  1
  Se  Se170  1  0.25603658  0.08114360  0.94803028  1
  Se  Se171  1  0.25861505  0.41365380  0.43915365  1
  Se  Se172  1  0.25527673  0.41434131  0.94584109  1
  Se  Se173  1  0.26103479  0.74656229  0.44133136  1
  Se  Se174  1  0.25554309  0.75405034  0.93014759  1
  Se  Se175  1  0.58211862  0.08584573  0.44019954  1
  Se  Se176  1  0.58097617  0.08824774  0.94703239  1
  Se  Se177  1  0.57745180  0.41701297  0.44397135  1
  Se  Se178  1  0.58163841  0.41371458  0.94425811  1
  Se  Se179  1  0.56839327  0.76367114  0.44771349  1
  Se  Se180  1  0.58540354  0.75200385  0.96305770  1
  Se  Se181  1  0.92299307  0.07767209  0.43740365  1
  Se  Se182  1  0.91849182  0.07781921  0.93406931  1
  Se  Se183  1  0.92360191  0.40504517  0.44977023  1
  Se  Se184  1  0.91826532  0.40473885  0.93698855  1
  Se  Se185  1  0.91351954  0.75714133  0.45349439  1
  Se  Se186  1  0.91434189  0.75690812  0.95783420  1
  Se  Se187  1  0.25576656  0.25358798  0.30589591  1
  Se  Se188  1  0.25505356  0.24849066  0.80665857  1
  Se  Se189  1  0.24806292  0.58245113  0.30443897  1
  Se  Se190  1  0.24988936  0.58118401  0.81061412  1
  Se  Se191  1  0.25445423  0.92161084  0.29709108  1
  Se  Se192  1  0.25247827  0.91645701  0.79192270  1
  Se  Se193  1  0.58976631  0.26686542  0.30037970  1
  Se  Se194  1  0.58266665  0.25152110  0.80282846  1
  Se  Se195  1  0.57393902  0.58720065  0.30169063  1
  Se  Se196  1  0.56671282  0.58354485  0.81754176  1
  Se  Se197  1  0.58139894  0.91638178  0.30570668  1
  Se  Se198  1  0.59118867  0.91705765  0.81166446  1
  Se  Se199  1  0.90844953  0.24184777  0.31199612  1
  Se  Se200  1  0.91336549  0.24466078  0.80056643  1
  Se  Se201  1  0.90423008  0.58067992  0.31282914  1
  Se  Se202  1  0.90149773  0.57387724  0.81156147  1
  Se  Se203  1  0.90894781  0.91070746  0.30689884  1
  Se  Se204  1  0.91304453  0.91015865  0.80902074  1
  Se  Se205  1  0.08909076  0.08910383  0.30335871  1
  Se  Se206  1  0.08834156  0.08566488  0.81068277  1
  Se  Se207  1  0.09834037  0.41916574  0.30491515  1
  Se  Se208  1  0.08442481  0.41635782  0.80852878  1
  Se  Se209  1  0.09428060  0.75953275  0.30143551  1
  Se  Se210  1  0.09095019  0.75707365  0.80845183  1
  Se  Se211  1  0.40813608  0.07376608  0.30850851  1
  Se  Se212  1  0.41756676  0.08077202  0.80550755  1
  Se  Se213  1  0.41363248  0.41854723  0.30069604  1
  Se  Se214  1  0.41355123  0.41504609  0.80505507  1
  Se  Se215  1  0.42373671  0.74970918  0.31275443  1
  Se  Se216  1  0.42893481  0.74673239  0.80914308  1
  Se  Se217  1  0.74957825  0.07769571  0.29813853  1
  Se  Se218  1  0.74257288  0.07928236  0.80065111  1
  Se  Se219  1  0.74665123  0.41451854  0.29798723  1
  Se  Se220  1  0.73993281  0.42153117  0.79446021  1
  Se  Se221  1  0.73881622  0.74796676  0.30640597  1
  Se  Se222  1  0.75129317  0.75346705  0.81514496  1
  Se  Se223  1  0.25553913  0.08245438  0.19456105  1
  Se  Se224  1  0.25322790  0.08527600  0.69636532  1
  Se  Se225  1  0.26727980  0.41348180  0.18881545  1
  Se  Se226  1  0.25531640  0.41487700  0.70164601  1
  Se  Se227  1  0.25179096  0.75754023  0.18394569  1
  Se  Se228  1  0.25497491  0.74429347  0.71445342  1
  Se  Se229  1  0.58266593  0.07775128  0.20831002  1
  Se  Se230  1  0.58346846  0.08415357  0.69847813  1
  Se  Se231  1  0.58251415  0.41604896  0.19293121  1
  Se  Se232  1  0.57766113  0.41926444  0.69632308  1
  Se  Se233  1  0.57178046  0.74556689  0.18719216  1
  Se  Se234  1  0.58329943  0.75492036  0.69178057  1
  Se  Se235  1  0.90479064  0.09370286  0.18117215  1
  Se  Se236  1  0.90929738  0.08683183  0.68568138  1
  Se  Se237  1  0.90517038  0.42973554  0.19060240  1
  Se  Se238  1  0.92539985  0.40972218  0.71093573  1
  Se  Se239  1  0.90224459  0.75413373  0.19144191  1
  Se  Se240  1  0.91333319  0.75088375  0.69564825  1
  Se  Se241  1  0.09469584  0.24987700  0.18866032  1
  Se  Se242  1  0.08277021  0.24833166  0.70139324  1
  Se  Se243  1  0.09575265  0.57802397  0.18788710  1
  Se  Se244  1  0.09475732  0.57559979  0.68990260  1
  Se  Se245  1  0.08846824  0.91577667  0.18002799  1
  Se  Se246  1  0.09366568  0.90275152  0.69092849  1
  Se  Se247  1  0.42998353  0.24032190  0.19862637  1
  Se  Se248  1  0.41607564  0.25263269  0.69673399  1
  Se  Se249  1  0.43149365  0.57959554  0.17423712  1
  Se  Se250  1  0.42194183  0.58955153  0.69518491  1
  Se  Se251  1  0.41586520  0.91439537  0.19912177  1
  Se  Se252  1  0.42405347  0.91803902  0.70269871  1
  Se  Se253  1  0.74886148  0.25963688  0.19959873  1
  Se  Se254  1  0.74519774  0.24887026  0.69934017  1
  Se  Se255  1  0.73493540  0.59451541  0.19756639  1
  Se  Se256  1  0.75930738  0.57462692  0.69353687  1
  Se  Se257  1  0.73752164  0.92069963  0.19884350  1
  Se  Se258  1  0.74720517  0.91239161  0.69644137  1
