# generated using pymatgen
data_In86Cu29Se144
_symmetry_space_group_name_H-M   'P 1'
_cell_length_a   17.58444990
_cell_length_b   17.58309480
_cell_length_c   23.44438978
_cell_angle_alpha   90.00184873
_cell_angle_beta   89.99977995
_cell_angle_gamma   89.98080684
_symmetry_Int_Tables_number   1
_chemical_formula_structural   In86Cu29Se144
_chemical_formula_sum   'In86 Cu29 Se144'
_cell_volume   7248.74818504
_cell_formula_units_Z   1
loop_
 _symmetry_equiv_pos_site_id
 _symmetry_equiv_pos_as_xyz
  1  'x, y, z'
loop_
 _atom_site_type_symbol
 _atom_site_label
 _atom_site_symmetry_multiplicity
 _atom_site_fract_x
 _atom_site_fract_y
 _atom_site_fract_z
 _atom_site_occupancy
  In  In0  1  -0.00095461  0.18449503  0.12523963  1
  In  In1  1  -0.00080776  0.15245878  0.63256405  1
  In  In2  1  -0.01133660  0.48904050  0.11977890  1
  In  In3  1  -0.00357421  0.50730680  0.62408348  1
  In  In4  1  0.00515855  0.83809964  0.11702057  1
  In  In5  1  0.01201188  0.83198007  0.62456584  1
  In  In6  1  0.33904184  0.15811710  0.11830269  1
  In  In7  1  0.32001998  0.17654787  0.63987037  1
  In  In8  1  0.34617448  0.50921797  0.11733779  1
  In  In9  1  0.33437905  0.49764491  0.63166039  1
  In  In10  1  0.32246251  0.83098101  0.11924298  1
  In  In11  1  0.33805415  0.83166592  0.62958286  1
  In  In12  1  0.66037503  0.15558645  0.11828627  1
  In  In13  1  0.65794975  0.16497605  0.62938378  1
  In  In14  1  0.67545848  0.50957145  0.12002895  1
  In  In15  1  0.67818035  0.51492417  0.61633429  1
  In  In16  1  0.67127472  0.82035434  0.13009194  1
  In  In17  1  0.65423064  0.83857013  0.63026836  1
  In  In18  1  0.18455956  -0.01376983  0.38953200  1
  In  In19  1  0.15538208  0.00001928  0.86214260  1
  In  In20  1  0.15456967  0.33395533  0.37757731  1
  In  In21  1  0.18333936  0.33771307  0.86561498  1
  In  In22  1  0.18050448  0.66719380  0.37751424  1
  In  In23  1  0.17562772  0.65752452  0.87980639  1
  In  In24  1  0.49413524  -0.01001055  0.37398897  1
  In  In25  1  0.51012768  0.00684365  0.86792582  1
  In  In26  1  0.51339724  0.34905170  0.37707131  1
  In  In27  1  0.49288015  0.34230814  0.88129337  1
  In  In28  1  0.50336877  0.66577454  0.37693904  1
  In  In29  1  0.48894083  0.65626660  0.86702552  1
  In  In30  1  0.83035735  0.01237300  0.36984870  1
  In  In31  1  0.83335960  -0.00125147  0.87547928  1
  In  In32  1  0.83825304  0.33033001  0.37497004  1
  In  In33  1  0.82402710  0.34253614  0.88627859  1
  In  In34  1  0.81393718  0.66322358  0.37039986  1
  In  In35  1  0.83221209  0.67045115  0.87983448  1
  In  In36  1  0.00064317  0.17529177  0.37531729  1
  In  In37  1  0.00442739  0.15445225  0.87311988  1
  In  In38  1  -0.00295290  0.48448890  0.37292544  1
  In  In39  1  -0.00076219  0.50486165  0.88235743  1
  In  In40  1  0.00683253  0.84073588  0.37765769  1
  In  In41  1  -0.00542284  0.83901535  0.88035297  1
  In  In42  1  0.33252614  0.15181871  0.38183844  1
  In  In43  1  0.33751679  0.17749303  0.86345481  1
  In  In44  1  0.33935676  0.52056855  0.37457047  1
  In  In45  1  0.33444565  0.50218682  0.87120071  1
  In  In46  1  0.36173380  0.80357503  0.40736998  1
  In  In47  1  0.32099491  0.82125030  0.86668464  1
  In  In48  1  0.67346317  0.17028653  0.36662750  1
  In  In49  1  0.67476649  0.16077443  0.88281220  1
  In  In50  1  0.65256280  0.50429817  0.38601470  1
  In  In51  1  0.66394827  0.50533489  0.87744278  1
  In  In52  1  0.65868343  0.82259568  0.36503896  1
  In  In53  1  0.67504336  0.83887050  0.86905589  1
  In  In54  1  0.17752246  -0.00612400  0.11826835  1
  In  In55  1  0.16833833  0.00117218  0.63390544  1
  In  In56  1  0.14945726  0.33294708  0.12750714  1
  In  In57  1  0.18561944  0.33880232  0.62923377  1
  In  In58  1  0.17493125  0.67025848  0.11925802  1
  In  In59  1  0.16948245  0.67722884  0.62473949  1
  In  In60  1  0.50699153  0.01350343  0.12144725  1
  In  In61  1  0.50553069  -0.00971327  0.63341766  1
  In  In62  1  0.49716924  0.32937396  0.11708161  1
  In  In63  1  0.48888152  0.33533003  0.62298183  1
  In  In64  1  0.51142131  0.65688975  0.12993655  1
  In  In65  1  0.49516409  0.67260391  0.62602561  1
  In  In66  1  0.82411245  -0.01218001  0.11367381  1
  In  In67  1  0.83004870  0.00015395  0.63678649  1
  In  In68  1  0.84496296  0.34590463  0.11715447  1
  In  In69  1  0.82574847  0.35030711  0.62624740  1
  In  In70  1  0.81767845  0.65290839  0.11601643  1
  In  In71  1  0.82620988  0.64832623  0.62612434  1
  In  In72  1  0.83382775  0.17124529  0.49624134  1
  In  In73  1  0.16730290  0.16736885  -0.00306648  1
  In  In74  1  0.33022156  0.33200716  0.24018189  1
  In  In75  1  0.83272835  0.83015411  0.49480833  1
  In  In76  1  0.66862291  0.33652718  0.24808158  1
  In  In77  1  0.49968924  0.83117070  -0.00693466  1
  In  In78  1  -0.01034716  0.66155693  0.24520541  1
  In  In79  1  0.49446011  0.16673242  0.50311893  1
  In  In80  1  -0.00169528  0.00474631  0.25057379  1
  In  In81  1  0.17365763  0.50458451  0.50719654  1
  In  In82  1  0.00377735  0.33347600  0.75672034  1
  In  In83  1  0.00290022  0.66856497  0.74706608  1
  In  In84  1  0.33600462  -0.00675340  0.24884577  1
  In  In85  1  0.66266677  0.33478595  0.75500787  1
  Cu  Cu86  1  0.82629648  0.83254982  0.24135307  1
  Cu  Cu87  1  0.66480759  0.32897523  0.00250024  1
  Cu  Cu88  1  0.66664246  0.66567101  -0.00056225  1
  Cu  Cu89  1  0.66950032  -0.00315093  -0.00522395  1
  Cu  Cu90  1  0.33239587  0.33675342  0.50351432  1
  Cu  Cu91  1  0.16710038  0.83611924  0.74852847  1
  Cu  Cu92  1  0.17495349  0.82659606  0.25121716  1
  Cu  Cu93  1  0.33365078  -0.00233155  -0.00617087  1
  Cu  Cu94  1  0.00057238  0.33729135  -0.00208847  1
  Cu  Cu95  1  0.65817297  0.67110156  0.49968394  1
  Cu  Cu96  1  0.49991649  0.82994195  0.75245327  1
  Cu  Cu97  1  0.16409319  0.50445562  0.25342891  1
  Cu  Cu98  1  0.00518980  0.67131128  0.00113706  1
  Cu  Cu99  1  0.01113625  -0.00341884  0.50725052  1
  Cu  Cu100  1  0.49695903  0.83208095  0.25410090  1
  Cu  Cu101  1  0.49958887  0.49781472  0.75031336  1
  Cu  Cu102  1  0.32697980  0.00161482  0.51256345  1
  Cu  Cu103  1  -0.00076200  0.00101424  -0.00571089  1
  Cu  Cu104  1  0.50035032  0.50657965  0.24998790  1
  Cu  Cu105  1  0.82844373  0.16852189  0.24531575  1
  Cu  Cu106  1  0.33619521  0.66056212  -0.00569086  1
  Cu  Cu107  1  0.50047899  0.16206349  0.74880591  1
  Cu  Cu108  1  0.83319163  0.83181198  0.75507161  1
  Cu  Cu109  1  -0.00046083  0.32678671  0.50025838  1
  Cu  Cu110  1  0.83219930  0.16252165  0.75777013  1
  Cu  Cu111  1  0.33407469  0.33564866  -0.00649202  1
  Cu  Cu112  1  0.66321542  -0.00149538  0.49995005  1
  Cu  Cu113  1  0.16231143  0.16725377  0.25597720  1
  Cu  Cu114  1  -0.00320088  0.65848606  0.50162327  1
  Se  Se115  1  0.07613907  0.07883817  0.06081371  1
  Se  Se116  1  0.08739639  0.08424976  0.56047829  1
  Se  Se117  1  0.08512061  0.41840557  0.05197815  1
  Se  Se118  1  0.07923103  0.40909485  0.56081878  1
  Se  Se119  1  0.09091524  0.75473471  0.05259063  1
  Se  Se120  1  0.07953517  0.74422072  0.55165476  1
  Se  Se121  1  0.41784823  0.07897632  0.04682290  1
  Se  Se122  1  0.41132551  0.08201474  0.57043891  1
  Se  Se123  1  0.41835058  0.41613000  0.05006894  1
  Se  Se124  1  0.41323538  0.42302467  0.55425813  1
  Se  Se125  1  0.41542324  0.74096376  0.05745573  1
  Se  Se126  1  0.42656127  0.76524505  0.55596370  1
  Se  Se127  1  0.75114963  0.08310123  0.04875097  1
  Se  Se128  1  0.74533948  0.07791258  0.55801179  1
  Se  Se129  1  0.74801364  0.41693758  0.05245745  1
  Se  Se130  1  0.74526466  0.41575382  0.55106408  1
  Se  Se131  1  0.74923790  0.75253524  0.05071103  1
  Se  Se132  1  0.74433896  0.74736393  0.56021172  1
  Se  Se133  1  0.25492074  0.25940797  0.06003779  1
  Se  Se134  1  0.25327958  0.25045450  0.55626241  1
  Se  Se135  1  0.25129801  0.58070580  0.05091779  1
  Se  Se136  1  0.26500610  0.59746187  0.55942741  1
  Se  Se137  1  0.24964976  0.91311193  0.04417305  1
  Se  Se138  1  0.24701906  0.91455331  0.56451694  1
  Se  Se139  1  0.57957258  0.24384740  0.05138255  1
  Se  Se140  1  0.58979420  0.25704482  0.55819736  1
  Se  Se141  1  0.58197703  0.58137312  0.05115698  1
  Se  Se142  1  0.57848152  0.58816936  0.55616923  1
  Se  Se143  1  0.58950296  0.91634179  0.05692991  1
  Se  Se144  1  0.58066293  0.91754298  0.55401183  1
  Se  Se145  1  0.91726523  0.25106788  0.04875134  1
  Se  Se146  1  0.91924928  0.25366638  0.56598497  1
  Se  Se147  1  0.92043557  0.58689717  0.05376485  1
  Se  Se148  1  0.91010769  0.57712065  0.55101610  1
  Se  Se149  1  0.91862101  0.91506383  0.04847848  1
  Se  Se150  1  0.91674475  0.92224787  0.55988786  1
  Se  Se151  1  0.08566708  0.24476204  0.44977804  1
  Se  Se152  1  0.08090991  0.25946822  0.93565569  1
  Se  Se153  1  0.07888928  0.58227793  0.43857898  1
  Se  Se154  1  0.08621154  0.58423381  0.94941776  1
  Se  Se155  1  0.08845436  0.90993934  0.45246281  1
  Se  Se156  1  0.08770073  0.92210802  0.94221945  1
  Se  Se157  1  0.41038540  0.25930706  0.43832728  1
  Se  Se158  1  0.41422086  0.24613871  0.94368736  1
  Se  Se159  1  0.42058877  0.58731997  0.44842110  1
  Se  Se160  1  0.42163102  0.57623175  0.94498936  1
  Se  Se161  1  0.41397319  0.92781400  0.45351935  1
  Se  Se162  1  0.41152209  0.91881765  0.93081605  1
  Se  Se163  1  0.73666359  0.25981527  0.44327190  1
  Se  Se164  1  0.75218531  0.24754610  0.95137258  1
  Se  Se165  1  0.74532459  0.58756054  0.44917091  1
  Se  Se166  1  0.75199834  0.58197916  0.94700162  1
  Se  Se167  1  0.74433533  0.92403419  0.43587922  1
  Se  Se168  1  0.75410343  0.91168822  0.94536127  1
  Se  Se169  1  0.24745918  0.08645108  0.45682324  1
  Se  Se170  1  0.25391247  0.07996961  0.93411080  1
  Se  Se171  1  0.25583789  0.41544303  0.43786289  1
  Se  Se172  1  0.25057233  0.41941917  0.94241730  1
  Se  Se173  1  0.23527047  0.76001466  0.45047635  1
  Se  Se174  1  0.25137787  0.74929298  0.94808302  1
  Se  Se175  1  0.58848233  0.08275721  0.43838156  1
  Se  Se176  1  0.58178634  0.08135156  0.94736820  1
  Se  Se177  1  0.57827356  0.41963584  0.45756427  1
  Se  Se178  1  0.58719566  0.41567520  0.94586364  1
  Se  Se179  1  0.58133979  0.75850322  0.44516849  1
  Se  Se180  1  0.58877784  0.74104663  0.93383910  1
  Se  Se181  1  0.92881306  0.07272231  0.44427418  1
  Se  Se182  1  0.91527704  0.08563753  0.94418493  1
  Se  Se183  1  0.91656194  0.41114982  0.44815994  1
  Se  Se184  1  0.91409477  0.42350678  0.94988927  1
  Se  Se185  1  0.92273861  0.73778341  0.43498744  1
  Se  Se186  1  0.91745946  0.75117064  0.94813077  1
  Se  Se187  1  0.24898647  0.24486218  0.31229269  1
  Se  Se188  1  0.24133444  0.24247148  0.79572174  1
  Se  Se189  1  0.25141768  0.58771089  0.30083869  1
  Se  Se190  1  0.26026634  0.59480922  0.80436241  1
  Se  Se191  1  0.25538211  0.90251673  0.31324412  1
  Se  Se192  1  0.25091797  0.91897884  0.80172343  1
  Se  Se193  1  0.57201133  0.24821811  0.30605753  1
  Se  Se194  1  0.57676012  0.24169230  0.81432759  1
  Se  Se195  1  0.58578602  0.58385213  0.30650672  1
  Se  Se196  1  0.58406200  0.58066636  0.80279788  1
  Se  Se197  1  0.58136948  0.91892838  0.30266228  1
  Se  Se198  1  0.58586106  0.91530215  0.80165777  1
  Se  Se199  1  0.91324307  0.24497019  0.30311551  1
  Se  Se200  1  0.90576897  0.24928958  0.81601634  1
  Se  Se201  1  0.90603826  0.57283823  0.30918125  1
  Se  Se202  1  0.91350300  0.58127255  0.80806618  1
  Se  Se203  1  0.90657836  0.90700596  0.30576375  1
  Se  Se204  1  0.91731513  0.91650556  0.80535149  1
  Se  Se205  1  0.09444077  0.07900321  0.31741864  1
  Se  Se206  1  0.08625715  0.09478447  0.79534569  1
  Se  Se207  1  0.08413874  0.41370068  0.30075099  1
  Se  Se208  1  0.09081556  0.43261100  0.80907071  1
  Se  Se209  1  0.08405142  0.75116826  0.30604788  1
  Se  Se210  1  0.08832397  0.75583764  0.81187255  1
  Se  Se211  1  0.42302764  0.09041277  0.30526584  1
  Se  Se212  1  0.41589028  0.08054536  0.80213470  1
  Se  Se213  1  0.41814297  0.42165724  0.30521681  1
  Se  Se214  1  0.41633719  0.41344237  0.80339857  1
  Se  Se215  1  0.41493218  0.75244582  0.31180074  1
  Se  Se216  1  0.41260017  0.74568550  0.80025123  1
  Se  Se217  1  0.74651138  0.08236005  0.29602101  1
  Se  Se218  1  0.74512705  0.07904836  0.80680252  1
  Se  Se219  1  0.74858865  0.42285803  0.31584201  1
  Se  Se220  1  0.75807158  0.42597088  0.80699834  1
  Se  Se221  1  0.74620687  0.74731560  0.29534977  1
  Se  Se222  1  0.75134886  0.74462287  0.80456739  1
  Se  Se223  1  0.24151176  0.09066003  0.19256400  1
  Se  Se224  1  0.25285925  0.07920517  0.70356519  1
  Se  Se225  1  0.24172289  0.42802748  0.18604510  1
  Se  Se226  1  0.25287578  0.42008813  0.70356275  1
  Se  Se227  1  0.25595541  0.74597200  0.19473479  1
  Se  Se228  1  0.25085721  0.75014002  0.69880278  1
  Se  Se229  1  0.58472432  0.08471536  0.19639544  1
  Se  Se230  1  0.58807403  0.07852203  0.70030696  1
  Se  Se231  1  0.57455611  0.42303054  0.18761109  1
  Se  Se232  1  0.58048565  0.42121136  0.68771595  1
  Se  Se233  1  0.58097600  0.74875261  0.19951149  1
  Se  Se234  1  0.58374711  0.74643161  0.69864417  1
  Se  Se235  1  0.90998747  0.08767442  0.18480012  1
  Se  Se236  1  0.91567461  0.07910942  0.70503360  1
  Se  Se237  1  0.91708552  0.41466646  0.19757815  1
  Se  Se238  1  0.91294239  0.42646651  0.69762774  1
  Se  Se239  1  0.91009045  0.75679665  0.18201385  1
  Se  Se240  1  0.90736207  0.75542441  0.68623899  1
  Se  Se241  1  0.07959597  0.25092384  0.20375192  1
  Se  Se242  1  0.08662601  0.25071287  0.68834873  1
  Se  Se243  1  0.08679102  0.57898527  0.18630987  1
  Se  Se244  1  0.09526878  0.57607245  0.69061078  1
  Se  Se245  1  0.09525362  0.91241465  0.19460198  1
  Se  Se246  1  0.07738081  0.91696016  0.69908794  1
  Se  Se247  1  0.42465982  0.23696803  0.19098367  1
  Se  Se248  1  0.42129577  0.25228480  0.69865130  1
  Se  Se249  1  0.41399664  0.58721017  0.19681648  1
  Se  Se250  1  0.41873398  0.58412374  0.69650005  1
  Se  Se251  1  0.42567088  0.90754133  0.18330774  1
  Se  Se252  1  0.41582420  0.91645159  0.70186762  1
  Se  Se253  1  0.75384638  0.24933205  0.18210970  1
  Se  Se254  1  0.75782527  0.24464782  0.69380052  1
  Se  Se255  1  0.74847201  0.58363741  0.19720525  1
  Se  Se256  1  0.74427442  0.58124288  0.70096254  1
  Se  Se257  1  0.74434512  0.92116286  0.19232852  1
  Se  Se258  1  0.74726291  0.91195901  0.69858241  1
