# generated using pymatgen
data_In86Cu29Se144
_symmetry_space_group_name_H-M   'P 1'
_cell_length_a   17.59367497
_cell_length_b   17.59299845
_cell_length_c   23.44694227
_cell_angle_alpha   90.00043713
_cell_angle_beta   89.99435261
_cell_angle_gamma   90.00359933
_symmetry_Int_Tables_number   1
_chemical_formula_structural   In86Cu29Se144
_chemical_formula_sum   'In86 Cu29 Se144'
_cell_volume   7257.42639976
_cell_formula_units_Z   1
loop_
 _symmetry_equiv_pos_site_id
 _symmetry_equiv_pos_as_xyz
  1  'x, y, z'
loop_
 _atom_site_type_symbol
 _atom_site_label
 _atom_site_symmetry_multiplicity
 _atom_site_fract_x
 _atom_site_fract_y
 _atom_site_fract_z
 _atom_site_occupancy
  In  In0  1  -0.01039862  0.16745333  0.10666029  1
  In  In1  1  -0.01287403  0.16605611  0.64119615  1
  In  In2  1  0.00375037  0.48570867  0.11512256  1
  In  In3  1  0.02039634  0.48121403  0.64229958  1
  In  In4  1  0.00967664  0.84093156  0.12325912  1
  In  In5  1  0.02147053  0.81522118  0.64823686  1
  In  In6  1  0.34532777  0.17755496  0.11172568  1
  In  In7  1  0.33712743  0.16296196  0.63099080  1
  In  In8  1  0.32833015  0.49407505  0.12296371  1
  In  In9  1  0.30677443  0.51557942  0.64869096  1
  In  In10  1  0.31731667  0.81984176  0.12512797  1
  In  In11  1  0.31117986  0.84475785  0.64470678  1
  In  In12  1  0.67296641  0.17659784  0.11903582  1
  In  In13  1  0.67541104  0.18282584  0.61991400  1
  In  In14  1  0.65721371  0.51141402  0.13219086  1
  In  In15  1  0.66748346  0.49554813  0.63412571  1
  In  In16  1  0.65827868  0.82173312  0.12613071  1
  In  In17  1  0.66194158  0.82629701  0.62437470  1
  In  In18  1  0.15376485  0.00198108  0.37835795  1
  In  In19  1  0.17626402  0.00548179  0.86831408  1
  In  In20  1  0.17789297  0.33209825  0.37568378  1
  In  In21  1  0.16928665  0.32768335  0.87144563  1
  In  In22  1  0.17648725  0.66107460  0.38491893  1
  In  In23  1  0.15194688  0.64799645  0.84799372  1
  In  In24  1  0.51025027  0.00450945  0.37639729  1
  In  In25  1  0.49470403  0.01219434  0.87873311  1
  In  In26  1  0.50016250  0.33468370  0.37207145  1
  In  In27  1  0.49753640  0.33501618  0.87750174  1
  In  In28  1  0.49465087  0.65425468  0.37168168  1
  In  In29  1  0.48867631  0.65178617  0.87070479  1
  In  In30  1  0.85250514  0.00003078  0.37510800  1
  In  In31  1  0.86520637  0.03288526  0.86219688  1
  In  In32  1  0.82255499  0.33817788  0.37583515  1
  In  In33  1  0.82871615  0.32283045  0.86565769  1
  In  In34  1  0.83228182  0.66891969  0.37308001  1
  In  In35  1  0.83619377  0.67179704  0.86727965  1
  In  In36  1  0.00858189  0.15386193  0.37755651  1
  In  In37  1  0.00148914  0.17555051  0.87624854  1
  In  In38  1  0.00225028  0.50670542  0.38090122  1
  In  In39  1  0.01019871  0.49840879  0.86205654  1
  In  In40  1  -0.00282072  0.84583768  0.37793246  1
  In  In41  1  0.02228816  0.84330109  0.85677219  1
  In  In42  1  0.33684909  0.18701903  0.37605906  1
  In  In43  1  0.33505898  0.16695143  0.87252812  1
  In  In44  1  0.32978311  0.49835325  0.37223113  1
  In  In45  1  0.33154347  0.49947144  0.87283015  1
  In  In46  1  0.33659653  0.81716784  0.38043831  1
  In  In47  1  0.31197731  0.81772393  0.85452611  1
  In  In48  1  0.66349013  0.17885961  0.37989862  1
  In  In49  1  0.66206803  0.17628552  0.88149107  1
  In  In50  1  0.66980906  0.49297480  0.35928830  1
  In  In51  1  0.65792999  0.48880320  0.87389249  1
  In  In52  1  0.67498844  0.82947365  0.37356938  1
  In  In53  1  0.67402073  0.82804649  0.87734637  1
  In  In54  1  0.15223897  0.01069553  0.12185322  1
  In  In55  1  0.16723510  -0.00543067  0.63729533  1
  In  In56  1  0.16814414  0.34117284  0.10976630  1
  In  In57  1  0.15890871  0.34300565  0.63657605  1
  In  In58  1  0.17551724  0.66565854  0.12546630  1
  In  In59  1  0.16404484  0.66426074  0.62913396  1
  In  In60  1  0.49246807  0.00464427  0.12251368  1
  In  In61  1  0.48408967  0.00657647  0.62585216  1
  In  In62  1  0.49582176  0.33440240  0.12238025  1
  In  In63  1  0.50313569  0.33230425  0.62917081  1
  In  In64  1  0.49879413  0.65160410  0.12767975  1
  In  In65  1  0.49894010  0.66220301  0.63182479  1
  In  In66  1  0.83991421  0.01392360  0.12169930  1
  In  In67  1  0.84064082  0.01728536  0.62492933  1
  In  In68  1  0.83480969  0.32457105  0.12561107  1
  In  In69  1  0.85082640  0.30650693  0.65066851  1
  In  In70  1  0.82633139  0.65362424  0.12150758  1
  In  In71  1  0.83718692  0.65832136  0.63208184  1
  In  In72  1  0.49515181  0.83994264  0.00106863  1
  In  In73  1  0.49353685  0.83802132  0.50684519  1
  In  In74  1  0.49182840  0.48751766  0.50224651  1
  In  In75  1  0.83872957  0.48993186  -0.00785529  1
  In  In76  1  -0.00154752  0.32877304  0.24190719  1
  In  In77  1  0.67252621  -0.00411163  0.24934060  1
  In  In78  1  -0.00382729  0.66645311  0.25533229  1
  In  In79  1  0.83716682  0.84122489  -0.00878216  1
  In  In80  1  0.16940666  0.83701953  -0.01207111  1
  In  In81  1  0.32979704  -0.00461800  0.24652816  1
  In  In82  1  0.16670675  0.17233046  0.50588682  1
  In  In83  1  0.66477748  -0.00002466  0.75446092  1
  In  In84  1  0.83849033  0.84029570  0.50000281  1
  In  In85  1  0.83773719  0.49381107  0.50174646  1
  Cu  Cu86  1  0.33493775  0.34331574  0.50260150  1
  Cu  Cu87  1  0.83614841  0.82901003  0.25169866  1
  Cu  Cu88  1  0.83991830  0.16362877  0.24642133  1
  Cu  Cu89  1  0.00802133  0.66600729  -0.01359759  1
  Cu  Cu90  1  0.82905708  0.50353728  0.75577348  1
  Cu  Cu91  1  0.01248065  0.66581820  0.50891907  1
  Cu  Cu92  1  0.82333819  0.83141597  0.75144064  1
  Cu  Cu93  1  0.49673401  0.81579585  0.24830683  1
  Cu  Cu94  1  0.50218645  0.83100559  0.74515708  1
  Cu  Cu95  1  0.16410512  0.83343044  0.24896186  1
  Cu  Cu96  1  0.16737619  0.49833204  0.24773882  1
  Cu  Cu97  1  0.49868341  0.17144022  0.24889504  1
  Cu  Cu98  1  0.66050035  0.65930802  -0.00086661  1
  Cu  Cu99  1  0.32985152  0.65239530  -0.00298650  1
  Cu  Cu100  1  0.16620948  0.16804047  0.24741091  1
  Cu  Cu101  1  0.66296046  0.33713484  -0.00007807  1
  Cu  Cu102  1  0.49960436  0.16961136  0.75295691  1
  Cu  Cu103  1  0.33208203  0.33408880  -0.00680641  1
  Cu  Cu104  1  0.67238036  0.32943475  0.50440679  1
  Cu  Cu105  1  0.67432811  0.00878745  -0.00314034  1
  Cu  Cu106  1  0.66570391  0.01635196  0.50072144  1
  Cu  Cu107  1  0.32159684  0.66910738  0.51246363  1
  Cu  Cu108  1  0.16819727  0.16613566  0.75381880  1
  Cu  Cu109  1  0.00281849  -0.00059806  0.50595769  1
  Cu  Cu110  1  0.66224380  0.66449726  0.49766282  1
  Cu  Cu111  1  0.49177718  0.49574501  0.24649149  1
  Cu  Cu112  1  0.32544238  0.00409839  0.50844556  1
  Cu  Cu113  1  0.50586133  0.49222708  0.75648099  1
  Cu  Cu114  1  0.33505388  0.00151138  -0.00566936  1
  Se  Se115  1  0.08716812  0.09094700  0.04579649  1
  Se  Se116  1  0.08043391  0.08194163  0.56678575  1
  Se  Se117  1  0.07823195  0.41337219  0.04052765  1
  Se  Se118  1  0.08479860  0.41437235  0.55833832  1
  Se  Se119  1  0.08071085  0.74462590  0.05376190  1
  Se  Se120  1  0.08836664  0.75660436  0.56018913  1
  Se  Se121  1  0.42202368  0.08272776  0.04640555  1
  Se  Se122  1  0.41414711  0.09006129  0.55128315  1
  Se  Se123  1  0.41252004  0.41542206  0.05266180  1
  Se  Se124  1  0.40048458  0.42044029  0.57412638  1
  Se  Se125  1  0.40604410  0.74100214  0.05569358  1
  Se  Se126  1  0.40749493  0.74892641  0.56809852  1
  Se  Se127  1  0.75560638  0.09062321  0.05253707  1
  Se  Se128  1  0.75428505  0.09164464  0.55454964  1
  Se  Se129  1  0.74322521  0.41800848  0.06096215  1
  Se  Se130  1  0.74951986  0.40911438  0.56529853  1
  Se  Se131  1  0.74527742  0.74520593  0.05056257  1
  Se  Se132  1  0.74845883  0.74150347  0.55466285  1
  Se  Se133  1  0.25022809  0.24909888  0.04678617  1
  Se  Se134  1  0.25727520  0.26196701  0.56483114  1
  Se  Se135  1  0.24267525  0.57746120  0.05369964  1
  Se  Se136  1  0.24406964  0.57642925  0.55994134  1
  Se  Se137  1  0.25557144  0.92345272  0.05811525  1
  Se  Se138  1  0.24676964  0.91860829  0.56139446  1
  Se  Se139  1  0.58073679  0.25099504  0.05340510  1
  Se  Se140  1  0.57818668  0.25269507  0.55326796  1
  Se  Se141  1  0.57764678  0.57777235  0.05213674  1
  Se  Se142  1  0.58699950  0.58220575  0.55740083  1
  Se  Se143  1  0.59688641  0.92723555  0.05785784  1
  Se  Se144  1  0.59130061  0.93069979  0.55989436  1
  Se  Se145  1  0.92292666  0.27257912  0.04865852  1
  Se  Se146  1  0.91663428  0.24580561  0.56464216  1
  Se  Se147  1  0.92549845  0.59188416  0.05005073  1
  Se  Se148  1  0.92661788  0.58447359  0.56141030  1
  Se  Se149  1  0.92674810  0.92626246  0.05417762  1
  Se  Se150  1  0.92595148  0.91767340  0.56761644  1
  Se  Se151  1  0.07912445  0.25758865  0.44162032  1
  Se  Se152  1  0.10372154  0.23585468  0.94348947  1
  Se  Se153  1  0.08832315  0.58055128  0.45066448  1
  Se  Se154  1  0.08911342  0.58191536  0.93460875  1
  Se  Se155  1  0.08350053  0.91553482  0.45143100  1
  Se  Se156  1  0.07575283  0.93104173  0.93896637  1
  Se  Se157  1  0.41902758  0.26138257  0.44880200  1
  Se  Se158  1  0.41722133  0.24716552  0.94462076  1
  Se  Se159  1  0.40546261  0.59243485  0.45047140  1
  Se  Se160  1  0.41940999  0.57296413  0.94788020  1
  Se  Se161  1  0.40677755  0.92838202  0.44157201  1
  Se  Se162  1  0.40204981  0.91220408  0.93269942  1
  Se  Se163  1  0.75662294  0.24842311  0.44916104  1
  Se  Se164  1  0.75042400  0.25703468  0.94752590  1
  Se  Se165  1  0.74257524  0.58366037  0.43930526  1
  Se  Se166  1  0.74800397  0.58869757  0.93823191  1
  Se  Se167  1  0.74233321  0.93060932  0.44148890  1
  Se  Se168  1  0.75031166  0.93370382  0.93240338  1
  Se  Se169  1  0.25598429  0.08396577  0.43856810  1
  Se  Se170  1  0.25141345  0.08450928  0.94291715  1
  Se  Se171  1  0.25040897  0.42066404  0.44608224  1
  Se  Se172  1  0.24809461  0.41695033  0.94074952  1
  Se  Se173  1  0.24668167  0.75551101  0.45432252  1
  Se  Se174  1  0.25128171  0.73388601  0.93664071  1
  Se  Se175  1  0.57892926  0.09317395  0.44635614  1
  Se  Se176  1  0.58179730  0.08620083  0.94762939  1
  Se  Se177  1  0.59664945  0.41404099  0.44275690  1
  Se  Se178  1  0.57709106  0.41969909  0.94976814  1
  Se  Se179  1  0.58209934  0.74819452  0.44173871  1
  Se  Se180  1  0.58202184  0.74470841  0.94226837  1
  Se  Se181  1  0.92123810  0.08235756  0.45068453  1
  Se  Se182  1  0.91276119  0.10235413  0.94974709  1
  Se  Se183  1  0.92774092  0.40410926  0.44223744  1
  Se  Se184  1  0.92687911  0.40812006  0.92846043  1
  Se  Se185  1  0.92790174  0.73952620  0.44529955  1
  Se  Se186  1  0.93172472  0.75355709  0.93205182  1
  Se  Se187  1  0.24942935  0.25044622  0.30052922  1
  Se  Se188  1  0.25689681  0.24963829  0.80094218  1
  Se  Se189  1  0.24462110  0.58254289  0.30549586  1
  Se  Se190  1  0.27520349  0.60034060  0.80203064  1
  Se  Se191  1  0.24502660  0.91013786  0.31358589  1
  Se  Se192  1  0.24024004  0.91501999  0.79469476  1
  Se  Se193  1  0.58364033  0.25057203  0.30381773  1
  Se  Se194  1  0.58133173  0.25183020  0.80762847  1
  Se  Se195  1  0.57730801  0.57791403  0.30126368  1
  Se  Se196  1  0.58693466  0.58263800  0.80563921  1
  Se  Se197  1  0.57434622  0.90307537  0.30530471  1
  Se  Se198  1  0.57355758  0.90883527  0.81415786  1
  Se  Se199  1  0.91663678  0.24114824  0.31163286  1
  Se  Se200  1  0.92495583  0.25387113  0.80058919  1
  Se  Se201  1  0.90554219  0.56929032  0.30755199  1
  Se  Se202  1  0.91887638  0.58574102  0.80270068  1
  Se  Se203  1  0.91989934  0.91600010  0.29951114  1
  Se  Se204  1  0.90409860  0.90896832  0.81055157  1
  Se  Se205  1  0.08612356  0.08202804  0.30021180  1
  Se  Se206  1  0.08236968  0.08597931  0.80694472  1
  Se  Se207  1  0.08498086  0.41974677  0.30813281  1
  Se  Se208  1  0.10976444  0.42690093  0.79900805  1
  Se  Se209  1  0.08789286  0.75592047  0.31420229  1
  Se  Se210  1  0.09085954  0.75465723  0.78768801  1
  Se  Se211  1  0.42044726  0.08734061  0.30806297  1
  Se  Se212  1  0.41655493  0.08069569  0.80127905  1
  Se  Se213  1  0.41298049  0.41472239  0.30553350  1
  Se  Se214  1  0.41517152  0.41297286  0.80558937  1
  Se  Se215  1  0.41134594  0.74023116  0.30535408  1
  Se  Se216  1  0.42333350  0.74949976  0.80341828  1
  Se  Se217  1  0.75875032  0.08653447  0.31088719  1
  Se  Se218  1  0.75059719  0.09777456  0.80767105  1
  Se  Se219  1  0.75078746  0.40612565  0.29611276  1
  Se  Se220  1  0.74625553  0.41580367  0.80446653  1
  Se  Se221  1  0.74975248  0.74714390  0.30165013  1
  Se  Se222  1  0.74013405  0.74476294  0.80172049  1
  Se  Se223  1  0.25033422  0.09149301  0.18570539  1
  Se  Se224  1  0.25236688  0.08350516  0.69944864  1
  Se  Se225  1  0.24197920  0.41104773  0.19118717  1
  Se  Se226  1  0.23245319  0.42192747  0.71344156  1
  Se  Se227  1  0.24785592  0.74380143  0.20317996  1
  Se  Se228  1  0.26679855  0.72552314  0.69688118  1
  Se  Se229  1  0.57908147  0.08614166  0.19189767  1
  Se  Se230  1  0.57908681  0.08880108  0.68984312  1
  Se  Se231  1  0.57823637  0.41593543  0.19330123  1
  Se  Se232  1  0.58661718  0.40976835  0.70050896  1
  Se  Se233  1  0.58314291  0.73707246  0.19485525  1
  Se  Se234  1  0.58664760  0.74607692  0.69645742  1
  Se  Se235  1  0.92729383  0.08791219  0.19106345  1
  Se  Se236  1  0.91115165  0.07634392  0.70890116  1
  Se  Se237  1  0.90844528  0.42789208  0.19006505  1
  Se  Se238  1  0.91271118  0.41994358  0.70327249  1
  Se  Se239  1  0.91383195  0.75376211  0.18476786  1
  Se  Se240  1  0.90955025  0.74862442  0.70055703  1
  Se  Se241  1  0.08986868  0.24310641  0.18169555  1
  Se  Se242  1  0.08342829  0.24693077  0.70010461  1
  Se  Se243  1  0.08170005  0.57718458  0.18997036  1
  Se  Se244  1  0.07224830  0.59438678  0.69879745  1
  Se  Se245  1  0.08642285  0.92042300  0.19601889  1
  Se  Se246  1  0.06430513  0.93432674  0.70212871  1
  Se  Se247  1  0.41440521  0.24941239  0.19313094  1
  Se  Se248  1  0.41654632  0.25167759  0.69735294  1
  Se  Se249  1  0.40602200  0.57991609  0.19520849  1
  Se  Se250  1  0.42535808  0.57268069  0.69891783  1
  Se  Se251  1  0.42242561  0.90091856  0.18797005  1
  Se  Se252  1  0.41747193  0.91910488  0.69863364  1
  Se  Se253  1  0.75224550  0.24582143  0.19702642  1
  Se  Se254  1  0.73426692  0.25428285  0.70404967  1
  Se  Se255  1  0.74813033  0.58862438  0.19779092  1
  Se  Se256  1  0.74575990  0.58556459  0.69971433  1
  Se  Se257  1  0.75901049  0.90618614  0.18479752  1
  Se  Se258  1  0.75182924  0.91269683  0.68751336  1
