# generated using pymatgen
data_In86Cu29Se144
_symmetry_space_group_name_H-M   'P 1'
_cell_length_a   17.59403439
_cell_length_b   17.58874080
_cell_length_c   23.44923641
_cell_angle_alpha   90.00083429
_cell_angle_beta   90.03870616
_cell_angle_gamma   90.01084512
_symmetry_Int_Tables_number   1
_chemical_formula_structural   In86Cu29Se144
_chemical_formula_sum   'In86 Cu29 Se144'
_cell_volume   7256.52646461
_cell_formula_units_Z   1
loop_
 _symmetry_equiv_pos_site_id
 _symmetry_equiv_pos_as_xyz
  1  'x, y, z'
loop_
 _atom_site_type_symbol
 _atom_site_label
 _atom_site_symmetry_multiplicity
 _atom_site_fract_x
 _atom_site_fract_y
 _atom_site_fract_z
 _atom_site_occupancy
  In  In0  1  0.01307362  0.16426684  0.12190961  1
  In  In1  1  -0.00830791  0.17068790  0.62268811  1
  In  In2  1  0.01823939  0.51937888  0.10903154  1
  In  In3  1  0.01676767  0.49617546  0.62770170  1
  In  In4  1  -0.00251796  0.82389473  0.12841248  1
  In  In5  1  0.00235908  0.82906987  0.62554665  1
  In  In6  1  0.33134308  0.16843373  0.11684638  1
  In  In7  1  0.34531021  0.16824767  0.62840659  1
  In  In8  1  0.33296373  0.51451504  0.10827754  1
  In  In9  1  0.33210372  0.50265767  0.63000715  1
  In  In10  1  0.31903340  0.81266554  0.11147502  1
  In  In11  1  0.31453572  0.80972387  0.60311269  1
  In  In12  1  0.65172201  0.16921274  0.12946981  1
  In  In13  1  0.66207837  0.15758848  0.61996890  1
  In  In14  1  0.67310419  0.50507355  0.11933955  1
  In  In15  1  0.65965769  0.51376258  0.62387980  1
  In  In16  1  0.65705920  0.83692539  0.13763934  1
  In  In17  1  0.66606202  0.82738898  0.61500084  1
  In  In18  1  0.16126209  -0.01260000  0.37290335  1
  In  In19  1  0.16687186  0.00283482  0.87544384  1
  In  In20  1  0.18295884  0.34571094  0.37031108  1
  In  In21  1  0.18226928  0.33216949  0.88655322  1
  In  In22  1  0.16705620  0.67281104  0.37408920  1
  In  In23  1  0.16726417  0.66790618  0.87918074  1
  In  In24  1  0.50879801  -0.00907026  0.37722236  1
  In  In25  1  0.49804700  -0.00018873  0.88388913  1
  In  In26  1  0.48725269  0.34269015  0.38104922  1
  In  In27  1  0.46783848  0.36133003  0.89889004  1
  In  In28  1  0.49962519  0.66003134  0.37028577  1
  In  In29  1  0.48777803  0.67685274  0.89045650  1
  In  In30  1  0.83169622  0.00247469  0.38442253  1
  In  In31  1  0.83808634  -0.01055800  0.86946268  1
  In  In32  1  0.82313004  0.32841362  0.37909485  1
  In  In33  1  0.84234403  0.34237960  0.87394839  1
  In  In34  1  0.84215372  0.67661700  0.36804580  1
  In  In35  1  0.83774675  0.65294632  0.87116247  1
  In  In36  1  0.00001071  0.14775636  0.37986594  1
  In  In37  1  0.01672285  0.17029834  0.86918806  1
  In  In38  1  0.00893884  0.51651992  0.37141004  1
  In  In39  1  -0.00820582  0.51271942  0.87985848  1
  In  In40  1  0.01712865  0.82539047  0.39301251  1
  In  In41  1  0.00859206  0.84156661  0.86538473  1
  In  In42  1  0.33655754  0.18373681  0.37456931  1
  In  In43  1  0.32516454  0.17978036  0.88751432  1
  In  In44  1  0.30707332  0.53795002  0.40464773  1
  In  In45  1  0.33119587  0.51006560  0.87983102  1
  In  In46  1  0.34986102  0.81076505  0.39181334  1
  In  In47  1  0.33498659  0.81798514  0.88591704  1
  In  In48  1  0.67280007  0.15803173  0.38001345  1
  In  In49  1  0.65186795  0.15786339  0.87572602  1
  In  In50  1  0.64961219  0.49830641  0.37218792  1
  In  In51  1  0.66446972  0.50003837  0.88244770  1
  In  In52  1  0.66358766  0.83348030  0.37052816  1
  In  In53  1  0.66098606  0.82603172  0.87682315  1
  In  In54  1  0.17456066  0.00269408  0.11633307  1
  In  In55  1  0.16525318  -0.01638716  0.62367501  1
  In  In56  1  0.17545098  0.33626844  0.11128705  1
  In  In57  1  0.16908431  0.35121351  0.62563436  1
  In  In58  1  0.16313237  0.66835738  0.12304453  1
  In  In59  1  0.17129498  0.65755895  0.62610324  1
  In  In60  1  0.50256945  -0.00098394  0.12856935  1
  In  In61  1  0.49849509  -0.00274735  0.61973594  1
  In  In62  1  0.48643989  0.33979547  0.10875671  1
  In  In63  1  0.49513522  0.32547945  0.62777700  1
  In  In64  1  0.49830341  0.66927098  0.12359531  1
  In  In65  1  0.48160988  0.65092401  0.60810150  1
  In  In66  1  0.83337774  -0.01159025  0.13138923  1
  In  In67  1  0.84848074  0.00185880  0.61283373  1
  In  In68  1  0.82128177  0.33848812  0.12584984  1
  In  In69  1  0.84540632  0.32884168  0.62224869  1
  In  In70  1  0.84328441  0.65923588  0.13231967  1
  In  In71  1  0.83096281  0.67736563  0.62477423  1
  In  In72  1  0.65962240  0.33826920  0.24752220  1
  In  In73  1  0.00150855  0.34088661  0.24826555  1
  In  In74  1  0.66434945  -0.00332210  0.74145960  1
  In  In75  1  0.00699489  0.34035124  0.75320461  1
  In  In76  1  -0.00094893  -0.00749164  0.25898361  1
  In  In77  1  0.83058103  0.49788976  0.50028626  1
  In  In78  1  0.33245623  0.34586872  0.23920598  1
  In  In79  1  0.66239487  0.33524598  0.75809614  1
  In  In80  1  0.83486840  0.17276251  -0.00191528  1
  In  In81  1  0.33145371  -0.00866540  0.74640306  1
  In  In82  1  0.33337998  -0.00479362  0.24576190  1
  In  In83  1  0.66666769  0.66825226  0.74882773  1
  In  In84  1  0.83264999  0.82898135  0.00408108  1
  In  In85  1  0.16820988  0.16566946  0.49433187  1
  Cu  Cu86  1  0.83588382  0.50826776  0.24591232  1
  Cu  Cu87  1  0.50453328  0.16479834  0.25123840  1
  Cu  Cu88  1  0.49297770  0.82302877  0.25376357  1
  Cu  Cu89  1  0.16815122  0.82113435  0.74596756  1
  Cu  Cu90  1  0.66277654  0.66700916  0.00263349  1
  Cu  Cu91  1  0.00615725  0.66543414  0.50172714  1
  Cu  Cu92  1  0.01158163  0.00050162  -0.00704427  1
  Cu  Cu93  1  0.33611629  -0.00562230  0.00135881  1
  Cu  Cu94  1  0.66449373  0.00197020  0.00825591  1
  Cu  Cu95  1  0.16893117  0.16619817  0.75603356  1
  Cu  Cu96  1  0.66406553  0.66867750  0.49271303  1
  Cu  Cu97  1  0.83502830  0.15793082  0.25963685  1
  Cu  Cu98  1  0.00241827  0.34068117  -0.00428532  1
  Cu  Cu99  1  0.66720627  -0.00114149  0.49716743  1
  Cu  Cu100  1  0.16882205  0.82807014  0.25122858  1
  Cu  Cu101  1  0.83283039  0.16088124  0.74018871  1
  Cu  Cu102  1  0.82746084  0.83127267  0.25414052  1
  Cu  Cu103  1  0.00294216  0.33256198  0.49951473  1
  Cu  Cu104  1  0.48443288  0.17474754  0.75720046  1
  Cu  Cu105  1  0.84622029  0.83280125  0.74446420  1
  Cu  Cu106  1  0.49234663  0.50459430  0.75661896  1
  Cu  Cu107  1  0.00163325  0.67026185  0.00082503  1
  Cu  Cu108  1  0.33657425  0.00054383  0.50270379  1
  Cu  Cu109  1  0.34013757  0.33785670  0.50438825  1
  Cu  Cu110  1  0.66517322  0.33423452  0.00214895  1
  Cu  Cu111  1  0.49174028  0.82576233  0.74877903  1
  Cu  Cu112  1  0.17419908  0.50375560  0.75505530  1
  Cu  Cu113  1  0.48995691  0.50641265  0.24621349  1
  Cu  Cu114  1  0.66157665  0.32497716  0.50076099  1
  Se  Se115  1  0.08921165  0.08580531  0.04886951  1
  Se  Se116  1  0.08259265  0.08174188  0.56060881  1
  Se  Se117  1  0.09013532  0.42207135  0.04646763  1
  Se  Se118  1  0.08589940  0.41841034  0.54918288  1
  Se  Se119  1  0.08075442  0.75703174  0.05396561  1
  Se  Se120  1  0.08864172  0.74543978  0.55890660  1
  Se  Se121  1  0.41724095  0.07668568  0.05842509  1
  Se  Se122  1  0.41757785  0.08643168  0.55448601  1
  Se  Se123  1  0.38257107  0.40081046  0.04666544  1
  Se  Se124  1  0.41961689  0.41814379  0.56277359  1
  Se  Se125  1  0.43187172  0.76201932  0.05329646  1
  Se  Se126  1  0.43113696  0.76212821  0.54820278  1
  Se  Se127  1  0.75048295  0.08120439  0.06321333  1
  Se  Se128  1  0.75018829  0.08063186  0.55369330  1
  Se  Se129  1  0.75245834  0.41852120  0.04995931  1
  Se  Se130  1  0.74000370  0.40755693  0.56247064  1
  Se  Se131  1  0.74334243  0.74406379  0.06630866  1
  Se  Se132  1  0.75078074  0.74533944  0.54744133  1
  Se  Se133  1  0.24344440  0.23879786  0.04737441  1
  Se  Se134  1  0.25403243  0.25470970  0.56025691  1
  Se  Se135  1  0.25600144  0.61128778  0.04562367  1
  Se  Se136  1  0.25518293  0.58041955  0.55525452  1
  Se  Se137  1  0.24634613  0.91174969  0.04890572  1
  Se  Se138  1  0.24569894  0.91721741  0.54667676  1
  Se  Se139  1  0.58239181  0.25127616  0.05506039  1
  Se  Se140  1  0.57823078  0.24570409  0.55758422  1
  Se  Se141  1  0.58038838  0.58143809  0.05525837  1
  Se  Se142  1  0.58373881  0.58126344  0.54554485  1
  Se  Se143  1  0.58558485  0.91462371  0.06003429  1
  Se  Se144  1  0.58408564  0.91754359  0.55243344  1
  Se  Se145  1  0.92524559  0.26149799  0.06046604  1
  Se  Se146  1  0.91624104  0.24879621  0.54685599  1
  Se  Se147  1  0.91164526  0.58756476  0.05008350  1
  Se  Se148  1  0.92347785  0.58405175  0.56090432  1
  Se  Se149  1  0.92730228  0.92707371  0.05532850  1
  Se  Se150  1  0.90704598  0.89350274  0.55571528  1
  Se  Se151  1  0.08163698  0.25959774  0.43237190  1
  Se  Se152  1  0.08268312  0.25212413  0.94506336  1
  Se  Se153  1  0.08964211  0.58447508  0.44716455  1
  Se  Se154  1  0.08310418  0.58369116  0.94808774  1
  Se  Se155  1  0.06461301  0.94389662  0.44706000  1
  Se  Se156  1  0.08940224  0.91074252  0.94227507  1
  Se  Se157  1  0.41855729  0.24958863  0.45141499  1
  Se  Se158  1  0.43877744  0.23144089  0.94434492  1
  Se  Se159  1  0.43765553  0.56924005  0.44502808  1
  Se  Se160  1  0.43839815  0.56281069  0.94660616  1
  Se  Se161  1  0.41958906  0.91839165  0.44728914  1
  Se  Se162  1  0.41778422  0.91045094  0.94753473  1
  Se  Se163  1  0.75009307  0.24491429  0.45043613  1
  Se  Se164  1  0.74102628  0.25745395  0.93569505  1
  Se  Se165  1  0.74601784  0.58518910  0.43453052  1
  Se  Se166  1  0.74806235  0.59024119  0.94536776  1
  Se  Se167  1  0.74580492  0.91140833  0.44390405  1
  Se  Se168  1  0.74296566  0.92515435  0.94405695  1
  Se  Se169  1  0.26076763  0.07616328  0.43453971  1
  Se  Se170  1  0.25239743  0.07770030  0.94625258  1
  Se  Se171  1  0.25056456  0.41573290  0.45200017  1
  Se  Se172  1  0.26580119  0.41490731  0.95251179  1
  Se  Se173  1  0.22991902  0.76885113  0.44512792  1
  Se  Se174  1  0.26059812  0.72767480  0.95484002  1
  Se  Se175  1  0.58080958  0.08308332  0.44614114  1
  Se  Se176  1  0.58078982  0.08236511  0.95320907  1
  Se  Se177  1  0.58419527  0.41297938  0.44746620  1
  Se  Se178  1  0.58196481  0.42162257  0.95294709  1
  Se  Se179  1  0.58003627  0.74930311  0.43799073  1
  Se  Se180  1  0.58279113  0.75685787  0.95282775  1
  Se  Se181  1  0.91521536  0.08332456  0.45299396  1
  Se  Se182  1  0.92283306  0.07917200  0.93767198  1
  Se  Se183  1  0.92432414  0.41376015  0.43658218  1
  Se  Se184  1  0.91334779  0.42265760  0.94834485  1
  Se  Se185  1  0.91758853  0.74392208  0.44884433  1
  Se  Se186  1  0.92140121  0.74878828  0.93731763  1
  Se  Se187  1  0.24549264  0.24720350  0.29895440  1
  Se  Se188  1  0.25012838  0.25075632  0.80814315  1
  Se  Se189  1  0.25259139  0.58603255  0.31074341  1
  Se  Se190  1  0.25393522  0.59141673  0.80727956  1
  Se  Se191  1  0.25341667  0.90321627  0.31140420  1
  Se  Se192  1  0.24666083  0.90155369  0.81029340  1
  Se  Se193  1  0.57699243  0.24963960  0.31342013  1
  Se  Se194  1  0.56753163  0.25175459  0.81634653  1
  Se  Se195  1  0.58347592  0.58184168  0.29657020  1
  Se  Se196  1  0.57739600  0.58400141  0.81323240  1
  Se  Se197  1  0.57774521  0.91285811  0.29933503  1
  Se  Se198  1  0.57362388  0.90937558  0.80549059  1
  Se  Se199  1  0.91547435  0.24515382  0.31168248  1
  Se  Se200  1  0.90966228  0.24173679  0.80421975  1
  Se  Se201  1  0.92031013  0.58698534  0.30116781  1
  Se  Se202  1  0.92143461  0.58249769  0.79926150  1
  Se  Se203  1  0.91083755  0.90367538  0.31798445  1
  Se  Se204  1  0.92321658  0.92255259  0.79626180  1
  Se  Se205  1  0.09588768  0.09140939  0.30386228  1
  Se  Se206  1  0.08421869  0.07700276  0.80020995  1
  Se  Se207  1  0.09658255  0.43100245  0.30286379  1
  Se  Se208  1  0.09508778  0.42372673  0.81807540  1
  Se  Se209  1  0.07804064  0.75528112  0.30697887  1
  Se  Se210  1  0.08444908  0.74410891  0.80528850  1
  Se  Se211  1  0.41956299  0.08850456  0.30985182  1
  Se  Se212  1  0.41244321  0.08238920  0.81244114  1
  Se  Se213  1  0.41279089  0.42938874  0.30937135  1
  Se  Se214  1  0.40917132  0.41982735  0.80843596  1
  Se  Se215  1  0.40764135  0.74103926  0.30493758  1
  Se  Se216  1  0.41498189  0.74596330  0.80879879  1
  Se  Se217  1  0.74910692  0.07525320  0.30809161  1
  Se  Se218  1  0.75299585  0.08845030  0.80602619  1
  Se  Se219  1  0.75793961  0.42513226  0.30599501  1
  Se  Se220  1  0.75793625  0.42979548  0.80696860  1
  Se  Se221  1  0.74344070  0.74428105  0.30286222  1
  Se  Se222  1  0.76066361  0.76137180  0.80763736  1
  Se  Se223  1  0.24395790  0.09168519  0.19203331  1
  Se  Se224  1  0.24218472  0.08758664  0.68869680  1
  Se  Se225  1  0.24059284  0.43445846  0.18168284  1
  Se  Se226  1  0.25287699  0.41671866  0.70125852  1
  Se  Se227  1  0.24954990  0.74622046  0.19501710  1
  Se  Se228  1  0.25697067  0.74550848  0.69217152  1
  Se  Se229  1  0.58636950  0.07840889  0.20089524  1
  Se  Se230  1  0.56579386  0.09458354  0.69702785  1
  Se  Se231  1  0.56764547  0.42243286  0.18522908  1
  Se  Se232  1  0.57633485  0.42781223  0.69578574  1
  Se  Se233  1  0.58082451  0.74251610  0.20036833  1
  Se  Se234  1  0.57484116  0.75094007  0.68635781  1
  Se  Se235  1  0.91626614  0.08894010  0.19258196  1
  Se  Se236  1  0.92017712  0.07957248  0.69184684  1
  Se  Se237  1  0.91259115  0.42668133  0.18506092  1
  Se  Se238  1  0.91152253  0.42402307  0.69244814  1
  Se  Se239  1  0.91484095  0.75181511  0.20120753  1
  Se  Se240  1  0.92372252  0.74089560  0.69617538  1
  Se  Se241  1  0.09345731  0.25243354  0.18925933  1
  Se  Se242  1  0.09225354  0.24653902  0.69040177  1
  Se  Se243  1  0.07353490  0.59371653  0.19212942  1
  Se  Se244  1  0.08725361  0.58146553  0.70021652  1
  Se  Se245  1  0.09237580  0.91372178  0.19110452  1
  Se  Se246  1  0.08555394  0.91022558  0.69773699  1
  Se  Se247  1  0.42622926  0.24530558  0.18923486  1
  Se  Se248  1  0.40642695  0.25952644  0.70262570  1
  Se  Se249  1  0.40906521  0.58505676  0.18799038  1
  Se  Se250  1  0.41815906  0.58935754  0.69629562  1
  Se  Se251  1  0.41679849  0.90014661  0.18743659  1
  Se  Se252  1  0.41605711  0.90248300  0.68315179  1
  Se  Se253  1  0.75696361  0.23960068  0.19769001  1
  Se  Se254  1  0.74948788  0.24645487  0.68961767  1
  Se  Se255  1  0.74462647  0.58560487  0.19530965  1
  Se  Se256  1  0.75923133  0.57570843  0.69262930  1
  Se  Se257  1  0.74747004  0.91884279  0.20268340  1
  Se  Se258  1  0.75724797  0.90741000  0.68629992  1
