# generated using pymatgen
data_In86Cu29Se144
_symmetry_space_group_name_H-M   'P 1'
_cell_length_a   17.57340200
_cell_length_b   17.57639421
_cell_length_c   23.43445923
_cell_angle_alpha   89.99318855
_cell_angle_beta   90.00235123
_cell_angle_gamma   89.98436775
_symmetry_Int_Tables_number   1
_chemical_formula_structural   In86Cu29Se144
_chemical_formula_sum   'In86 Cu29 Se144'
_cell_volume   7238.36609863
_cell_formula_units_Z   1
loop_
 _symmetry_equiv_pos_site_id
 _symmetry_equiv_pos_as_xyz
  1  'x, y, z'
loop_
 _atom_site_type_symbol
 _atom_site_label
 _atom_site_symmetry_multiplicity
 _atom_site_fract_x
 _atom_site_fract_y
 _atom_site_fract_z
 _atom_site_occupancy
  In  In0  1  -0.00398843  0.16750127  0.12687089  1
  In  In1  1  -0.00264225  0.15332942  0.62533634  1
  In  In2  1  0.00967810  0.49291161  0.13017640  1
  In  In3  1  0.00837406  0.51345254  0.62020478  1
  In  In4  1  -0.00423336  0.83559241  0.12741321  1
  In  In5  1  -0.00665020  0.83674719  0.62856207  1
  In  In6  1  0.33677120  0.16029814  0.13242817  1
  In  In7  1  0.32824148  0.17720606  0.61850722  1
  In  In8  1  0.33189062  0.50120413  0.12781502  1
  In  In9  1  0.32840739  0.50911862  0.62120466  1
  In  In10  1  0.31515739  0.84637986  0.13340082  1
  In  In11  1  0.33476451  0.82598963  0.61640271  1
  In  In12  1  0.67749113  0.15658951  0.13572766  1
  In  In13  1  0.67765621  0.17625033  0.62527716  1
  In  In14  1  0.66215823  0.50915764  0.13181197  1
  In  In15  1  0.66731086  0.48394907  0.62808192  1
  In  In16  1  0.67776952  0.82741800  0.12945624  1
  In  In17  1  0.66482991  0.82387571  0.61545942  1
  In  In18  1  0.17572951  0.01117831  0.36768493  1
  In  In19  1  0.14729676  -0.00042184  0.88084987  1
  In  In20  1  0.16487739  0.33385111  0.37355405  1
  In  In21  1  0.17369097  0.34214091  0.87882429  1
  In  In22  1  0.15617010  0.65609025  0.36613416  1
  In  In23  1  0.16226563  0.67444790  0.88318378  1
  In  In24  1  0.48661485  -0.01711725  0.36672629  1
  In  In25  1  0.50917799  -0.00341706  0.87563952  1
  In  In26  1  0.50093483  0.33694750  0.36476446  1
  In  In27  1  0.51493070  0.33607154  0.87565725  1
  In  In28  1  0.50679828  0.67812983  0.36717095  1
  In  In29  1  0.48755938  0.66434648  0.87706041  1
  In  In30  1  0.82503558  -0.00788127  0.36706687  1
  In  In31  1  0.86189986  -0.02285199  0.90259359  1
  In  In32  1  0.84560255  0.34398970  0.36667383  1
  In  In33  1  0.82107196  0.33828117  0.87925123  1
  In  In34  1  0.83415048  0.66686773  0.37476746  1
  In  In35  1  0.85735039  0.65901256  0.87330494  1
  In  In36  1  0.01086808  0.17333800  0.36691072  1
  In  In37  1  0.00206904  0.15115500  0.87990637  1
  In  In38  1  -0.00006507  0.50104498  0.37583203  1
  In  In39  1  0.00073146  0.52095999  0.87262930  1
  In  In40  1  -0.01126470  0.82436117  0.36600532  1
  In  In41  1  0.00148235  0.82968214  0.87885523  1
  In  In42  1  0.31594311  0.15300818  0.36693535  1
  In  In43  1  0.32626796  0.17093581  0.87751595  1
  In  In44  1  0.32346394  0.49065988  0.36745573  1
  In  In45  1  0.33156907  0.50843677  0.88764533  1
  In  In46  1  0.34482107  0.84355526  0.36638721  1
  In  In47  1  0.32866054  0.82072812  0.87952461  1
  In  In48  1  0.66722738  0.16747114  0.36482284  1
  In  In49  1  0.67393137  0.17885633  0.87800604  1
  In  In50  1  0.67588763  0.51167749  0.36706842  1
  In  In51  1  0.67031030  0.48690214  0.87381827  1
  In  In52  1  0.66831342  0.83127138  0.37322813  1
  In  In53  1  0.67069651  0.84517558  0.87536656  1
  In  In54  1  0.16858972  -0.01329777  0.12658492  1
  In  In55  1  0.15029431  -0.00986320  0.61979611  1
  In  In56  1  0.16056296  0.33945258  0.13023378  1
  In  In57  1  0.16734124  0.34025098  0.61629715  1
  In  In58  1  0.16479589  0.66734247  0.13000684  1
  In  In59  1  0.16135091  0.65440822  0.62192881  1
  In  In60  1  0.49488417  0.00366319  0.13253447  1
  In  In61  1  0.50367808  -0.00616435  0.61881651  1
  In  In62  1  0.48928572  0.34400216  0.13521919  1
  In  In63  1  0.51497124  0.34091661  0.62381330  1
  In  In64  1  0.50631771  0.65929895  0.12969319  1
  In  In65  1  0.49164157  0.66738007  0.62244383  1
  In  In66  1  0.83722029  -0.00394643  0.12527791  1
  In  In67  1  0.84528832  -0.00220254  0.62459443  1
  In  In68  1  0.84371627  0.32542602  0.13258548  1
  In  In69  1  0.82132072  0.33071262  0.62614605  1
  In  In70  1  0.82839021  0.67663342  0.13000363  1
  In  In71  1  0.84241538  0.67491062  0.61918356  1
  In  In72  1  0.50227299  0.17200731  0.01596497  1
  In  In73  1  0.16916620  0.83497723  0.48905174  1
  In  In74  1  0.49886763  0.50309213  0.50207876  1
  In  In75  1  0.49514724  0.83214298  0.00215589  1
  In  In76  1  0.33016055  0.66530438  0.74616286  1
  In  In77  1  0.48967421  0.15557755  0.48623897  1
  In  In78  1  0.33917461  0.34193767  0.74221175  1
  In  In79  1  0.32810673  -0.00174255  0.74700723  1
  In  In80  1  -0.00416188  0.34196075  0.75321591  1
  In  In81  1  0.16585527  0.15886166  0.01022905  1
  In  In82  1  0.66705054  0.66249617  0.74953840  1
  In  In83  1  0.83753595  0.50212979  -0.00256558  1
  In  In84  1  0.67671496  0.00249751  0.75640992  1
  In  In85  1  0.83601941  0.16489094  0.49996561  1
  Cu  Cu86  1  0.33760161  0.34025498  0.00435324  1
  Cu  Cu87  1  0.00122039  0.33842794  0.49372021  1
  Cu  Cu88  1  0.66805235  0.33342332  0.49749364  1
  Cu  Cu89  1  0.16368988  0.16768948  0.24551424  1
  Cu  Cu90  1  0.49718887  0.50446056  0.25107640  1
  Cu  Cu91  1  0.16564271  0.49846784  0.25001385  1
  Cu  Cu92  1  0.67137905  0.00400396  0.00700648  1
  Cu  Cu93  1  0.32279825  0.33201802  0.49313861  1
  Cu  Cu94  1  0.16391062  0.83204950  0.25241113  1
  Cu  Cu95  1  0.50285347  0.83050818  0.24512875  1
  Cu  Cu96  1  0.83610476  0.16506628  0.25015259  1
  Cu  Cu97  1  0.33442165  0.66759854  0.49479958  1
  Cu  Cu98  1  -0.00104997  0.66708203  0.49402647  1
  Cu  Cu99  1  0.15445615  0.83194636  0.75348777  1
  Cu  Cu100  1  0.32876135  0.66572659  0.00854942  1
  Cu  Cu101  1  0.00382777  0.33321828  0.00656509  1
  Cu  Cu102  1  0.50253939  0.17033173  0.25051302  1
  Cu  Cu103  1  0.83631116  0.50337293  0.24980732  1
  Cu  Cu104  1  0.66579408  0.66461916  0.00561652  1
  Cu  Cu105  1  0.50888550  0.16520462  0.75412632  1
  Cu  Cu106  1  0.00019103  -0.00123192  0.49766510  1
  Cu  Cu107  1  0.00291881  0.67261550  0.00461390  1
  Cu  Cu108  1  0.66659313  -0.01227834  0.49413614  1
  Cu  Cu109  1  0.83218933  0.83456888  0.24924335  1
  Cu  Cu110  1  0.83256479  0.16533475  0.75416833  1
  Cu  Cu111  1  0.66768416  0.33892176  0.00438664  1
  Cu  Cu112  1  0.67422383  0.66684650  0.49335295  1
  Cu  Cu113  1  0.83971980  0.83263323  0.75297063  1
  Cu  Cu114  1  0.15817566  0.16578962  0.74946038  1
  Se  Se115  1  0.07082909  0.06804374  0.06061855  1
  Se  Se116  1  0.08163621  0.08397579  0.55041785  1
  Se  Se117  1  0.08836390  0.41952628  0.05329370  1
  Se  Se118  1  0.08224802  0.42234046  0.55057714  1
  Se  Se119  1  0.08504980  0.75325327  0.06061744  1
  Se  Se120  1  0.07976764  0.74984846  0.55489362  1
  Se  Se121  1  0.40561077  0.07168031  0.05488432  1
  Se  Se122  1  0.40606938  0.07524427  0.55754933  1
  Se  Se123  1  0.42114253  0.42342036  0.05705911  1
  Se  Se124  1  0.40712436  0.40478585  0.55741179  1
  Se  Se125  1  0.40962813  0.74725368  0.06771267  1
  Se  Se126  1  0.42019806  0.74852897  0.54686213  1
  Se  Se127  1  0.75548649  0.08729936  0.05794491  1
  Se  Se128  1  0.74078441  0.07201362  0.55708076  1
  Se  Se129  1  0.75183237  0.41740161  0.06443369  1
  Se  Se130  1  0.75022106  0.41530591  0.55164802  1
  Se  Se131  1  0.75143015  0.75010246  0.05219039  1
  Se  Se132  1  0.75606907  0.75173904  0.54852373  1
  Se  Se133  1  0.25962648  0.25568268  0.06219837  1
  Se  Se134  1  0.24140890  0.24893939  0.54823126  1
  Se  Se135  1  0.24441729  0.58105127  0.05963195  1
  Se  Se136  1  0.24963022  0.58598149  0.54813672  1
  Se  Se137  1  0.25010518  0.91610882  0.05076980  1
  Se  Se138  1  0.25501704  0.92350152  0.55458185  1
  Se  Se139  1  0.59431222  0.26163961  0.07172194  1
  Se  Se140  1  0.58456838  0.24669269  0.54967552  1
  Se  Se141  1  0.58218634  0.57972754  0.05408467  1
  Se  Se142  1  0.59507971  0.59065096  0.55978250  1
  Se  Se143  1  0.58650047  0.92276475  0.06234560  1
  Se  Se144  1  0.58105727  0.91001277  0.54977604  1
  Se  Se145  1  0.91708095  0.25015261  0.05429309  1
  Se  Se146  1  0.92541272  0.25792486  0.55917990  1
  Se  Se147  1  0.92262125  0.58858607  0.06348238  1
  Se  Se148  1  0.91715243  0.58470084  0.55025728  1
  Se  Se149  1  0.90414542  0.90264115  0.05575127  1
  Se  Se150  1  0.91806768  0.91483322  0.55143726  1
  Se  Se151  1  0.08285263  0.25027069  0.44444663  1
  Se  Se152  1  0.08425852  0.25347613  0.94327960  1
  Se  Se153  1  0.08536949  0.58233522  0.44605970  1
  Se  Se154  1  0.08271962  0.58504953  0.95094794  1
  Se  Se155  1  0.07519039  0.92198989  0.43113923  1
  Se  Se156  1  0.08291182  0.90920863  0.95011323  1
  Se  Se157  1  0.40668503  0.25775863  0.43301217  1
  Se  Se158  1  0.41509538  0.25666933  0.94425470  1
  Se  Se159  1  0.41389113  0.58570969  0.43423936  1
  Se  Se160  1  0.41844079  0.58779717  0.95554206  1
  Se  Se161  1  0.41482167  0.91457966  0.44711035  1
  Se  Se162  1  0.40985786  0.92454146  0.93941149  1
  Se  Se163  1  0.74869925  0.25394356  0.43743540  1
  Se  Se164  1  0.75170343  0.25359257  0.95414741  1
  Se  Se165  1  0.75578716  0.57844621  0.44533408  1
  Se  Se166  1  0.74516382  0.59168308  0.93788018  1
  Se  Se167  1  0.75674163  0.90999991  0.44350686  1
  Se  Se168  1  0.74688859  0.91313700  0.95385384  1
  Se  Se169  1  0.24704949  0.08243170  0.44752734  1
  Se  Se170  1  0.25452125  0.07491105  0.94227582  1
  Se  Se171  1  0.24261970  0.42240898  0.44453929  1
  Se  Se172  1  0.24926715  0.42041974  0.95274228  1
  Se  Se173  1  0.25578637  0.74238026  0.42964475  1
  Se  Se174  1  0.24789223  0.75088046  0.95463740  1
  Se  Se175  1  0.59153783  0.07132430  0.43399599  1
  Se  Se176  1  0.58934412  0.08375301  0.94695751  1
  Se  Se177  1  0.58763490  0.41537553  0.43893901  1
  Se  Se178  1  0.58477913  0.42018145  0.95025253  1
  Se  Se179  1  0.58540041  0.74877703  0.44440556  1
  Se  Se180  1  0.58921438  0.74522697  0.94017759  1
  Se  Se181  1  0.92135017  0.07896495  0.43511500  1
  Se  Se182  1  0.91258149  0.09478008  0.95460975  1
  Se  Se183  1  0.91293455  0.42103281  0.44627956  1
  Se  Se184  1  0.92996947  0.41137943  0.93897307  1
  Se  Se185  1  0.91455578  0.75267686  0.44522300  1
  Se  Se186  1  0.91483775  0.74807064  0.94882672  1
  Se  Se187  1  0.24606121  0.25054433  0.30213632  1
  Se  Se188  1  0.24326251  0.24797382  0.80218200  1
  Se  Se189  1  0.25119356  0.58382399  0.29978705  1
  Se  Se190  1  0.24476453  0.58183015  0.81267318  1
  Se  Se191  1  0.25018135  0.91809710  0.30109076  1
  Se  Se192  1  0.24149963  0.90918941  0.81087999  1
  Se  Se193  1  0.58800068  0.25606627  0.29891669  1
  Se  Se194  1  0.59029437  0.25166395  0.80432674  1
  Se  Se195  1  0.58459183  0.58737370  0.30125899  1
  Se  Se196  1  0.57546043  0.57736563  0.81214047  1
  Se  Se197  1  0.58477351  0.91313096  0.30240778  1
  Se  Se198  1  0.57435887  0.90652920  0.80027656  1
  Se  Se199  1  0.91990093  0.25114762  0.30114473  1
  Se  Se200  1  0.91435577  0.24497328  0.81470794  1
  Se  Se201  1  0.91890758  0.58508209  0.30584586  1
  Se  Se202  1  0.90228457  0.56425625  0.79766149  1
  Se  Se203  1  0.91785327  0.91978244  0.29921047  1
  Se  Se204  1  0.91729263  0.91687075  0.81075125  1
  Se  Se205  1  0.08225714  0.08092836  0.29846348  1
  Se  Se206  1  0.07975041  0.07939811  0.80210962  1
  Se  Se207  1  0.08105819  0.41705216  0.30538296  1
  Se  Se208  1  0.09291942  0.42783078  0.80956462  1
  Se  Se209  1  0.07828304  0.74587215  0.29988597  1
  Se  Se210  1  0.07846976  0.74348769  0.80720784  1
  Se  Se211  1  0.41920183  0.08622048  0.30480796  1
  Se  Se212  1  0.42198296  0.09024353  0.80987335  1
  Se  Se213  1  0.41301674  0.41603951  0.29880305  1
  Se  Se214  1  0.41739888  0.42284600  0.81584234  1
  Se  Se215  1  0.41520620  0.74948438  0.29805119  1
  Se  Se216  1  0.42212413  0.75947283  0.80353071  1
  Se  Se217  1  0.74870625  0.08126728  0.29920143  1
  Se  Se218  1  0.76478775  0.08325462  0.82177247  1
  Se  Se219  1  0.75105947  0.41831387  0.30137745  1
  Se  Se220  1  0.75892291  0.42064214  0.80232163  1
  Se  Se221  1  0.75124763  0.74864159  0.30404242  1
  Se  Se222  1  0.75666565  0.75402781  0.81190069  1
  Se  Se223  1  0.24545141  0.07979089  0.19419984  1
  Se  Se224  1  0.23982412  0.09001563  0.68657026  1
  Se  Se225  1  0.25099707  0.41521299  0.19719781  1
  Se  Se226  1  0.23869732  0.43022613  0.69239384  1
  Se  Se227  1  0.24940036  0.74852356  0.20017825  1
  Se  Se228  1  0.23760133  0.76014142  0.68891825  1
  Se  Se229  1  0.58269613  0.08130789  0.19973562  1
  Se  Se230  1  0.58373735  0.08679601  0.68919267  1
  Se  Se231  1  0.58334202  0.42076939  0.19935107  1
  Se  Se232  1  0.58059959  0.41758740  0.70137748  1
  Se  Se233  1  0.58880701  0.74690704  0.19504294  1
  Se  Se234  1  0.57567033  0.75503959  0.69131867  1
  Se  Se235  1  0.91760884  0.08100128  0.19583293  1
  Se  Se236  1  0.91395598  0.08196449  0.69966765  1
  Se  Se237  1  0.91989573  0.41731561  0.19824145  1
  Se  Se238  1  0.91320805  0.42215172  0.68325851  1
  Se  Se239  1  0.91815480  0.74910500  0.19936654  1
  Se  Se240  1  0.91924212  0.74732421  0.69803802  1
  Se  Se241  1  0.07854341  0.25180716  0.19482995  1
  Se  Se242  1  0.08375784  0.25010046  0.68853862  1
  Se  Se243  1  0.08094605  0.58418298  0.19935724  1
  Se  Se244  1  0.08132401  0.58842476  0.69800006  1
  Se  Se245  1  0.08060017  0.91566985  0.19856223  1
  Se  Se246  1  0.07654727  0.91954563  0.69856356  1
  Se  Se247  1  0.41312199  0.24964886  0.19924876  1
  Se  Se248  1  0.42982119  0.24085977  0.68905206  1
  Se  Se249  1  0.41345253  0.58628098  0.19703810  1
  Se  Se250  1  0.42675679  0.56977287  0.69414529  1
  Se  Se251  1  0.41460733  0.91631729  0.19816387  1
  Se  Se252  1  0.42020046  0.90832318  0.68974119  1
  Se  Se253  1  0.75152687  0.25217846  0.20032239  1
  Se  Se254  1  0.74958488  0.25043915  0.70319009  1
  Se  Se255  1  0.75115482  0.58756201  0.19805469  1
  Se  Se256  1  0.75580146  0.58122749  0.68476976  1
  Se  Se257  1  0.74868207  0.92047459  0.19709919  1
  Se  Se258  1  0.75566089  0.90717740  0.69073008  1
