# generated using pymatgen
data_In86Cu29Se144
_symmetry_space_group_name_H-M   'P 1'
_cell_length_a   17.57926679
_cell_length_b   17.58049197
_cell_length_c   23.43881626
_cell_angle_alpha   89.99683376
_cell_angle_beta   90.00632618
_cell_angle_gamma   90.01204605
_symmetry_Int_Tables_number   1
_chemical_formula_structural   In86Cu29Se144
_chemical_formula_sum   'In86 Cu29 Se144'
_cell_volume   7243.81654473
_cell_formula_units_Z   1
loop_
 _symmetry_equiv_pos_site_id
 _symmetry_equiv_pos_as_xyz
  1  'x, y, z'
loop_
 _atom_site_type_symbol
 _atom_site_label
 _atom_site_symmetry_multiplicity
 _atom_site_fract_x
 _atom_site_fract_y
 _atom_site_fract_z
 _atom_site_occupancy
  In  In0  1  -0.01029557  0.15968232  0.12020721  1
  In  In1  1  -0.01588796  0.16450302  0.62015531  1
  In  In2  1  0.00626969  0.50624683  0.13001498  1
  In  In3  1  0.01662801  0.49343367  0.62019917  1
  In  In4  1  0.00514501  0.83131287  0.13153980  1
  In  In5  1  -0.01515231  0.84493894  0.62912965  1
  In  In6  1  0.33217832  0.16367014  0.12310595  1
  In  In7  1  0.34717300  0.16838797  0.63047360  1
  In  In8  1  0.32815685  0.50147470  0.12942189  1
  In  In9  1  0.33696377  0.49683237  0.62240521  1
  In  In10  1  0.35084206  0.83706111  0.12086988  1
  In  In11  1  0.33203572  0.81772499  0.62442551  1
  In  In12  1  0.67409315  0.17513609  0.11916529  1
  In  In13  1  0.67653448  0.15516548  0.63476281  1
  In  In14  1  0.66202590  0.50089716  0.14004633  1
  In  In15  1  0.65814545  0.51204815  0.63403912  1
  In  In16  1  0.65338263  0.83431277  0.12299370  1
  In  In17  1  0.66690088  0.83192479  0.62276129  1
  In  In18  1  0.16306848  0.00566091  0.36207917  1
  In  In19  1  0.16510001  0.00985317  0.87676241  1
  In  In20  1  0.18408608  0.32653930  0.37236816  1
  In  In21  1  0.16495590  0.31620934  0.87562809  1
  In  In22  1  0.15324179  0.66887446  0.37719141  1
  In  In23  1  0.16405405  0.66562129  0.86926215  1
  In  In24  1  0.48966734  0.00078635  0.37554342  1
  In  In25  1  0.50854341  -0.00753659  0.88115492  1
  In  In26  1  0.50034662  0.34036865  0.36372065  1
  In  In27  1  0.49757987  0.33335970  0.87012073  1
  In  In28  1  0.51390486  0.65655136  0.38401254  1
  In  In29  1  0.50199553  0.66947813  0.87091817  1
  In  In30  1  0.84821419  -0.00934563  0.39281001  1
  In  In31  1  0.83958372  0.00919136  0.87156066  1
  In  In32  1  0.81952028  0.33604295  0.38119395  1
  In  In33  1  0.81904272  0.33189601  0.87232346  1
  In  In34  1  0.83703697  0.67385396  0.37536079  1
  In  In35  1  0.83366214  0.66840386  0.86034020  1
  In  In36  1  0.00229402  0.14905134  0.37708046  1
  In  In37  1  0.00694439  0.15652498  0.88058092  1
  In  In38  1  -0.00468813  0.51609051  0.38239081  1
  In  In39  1  -0.00453154  0.50889222  0.86913951  1
  In  In40  1  -0.00279262  0.83257190  0.37317028  1
  In  In41  1  -0.00914206  0.82649647  0.86536493  1
  In  In42  1  0.32616710  0.16949563  0.35571385  1
  In  In43  1  0.32994364  0.17497955  0.88080420  1
  In  In44  1  0.34602477  0.49073109  0.38148281  1
  In  In45  1  0.33707986  0.50403949  0.86737754  1
  In  In46  1  0.33241227  0.84352133  0.37517202  1
  In  In47  1  0.34480574  0.83007900  0.87529981  1
  In  In48  1  0.67067937  0.17780126  0.37453527  1
  In  In49  1  0.66729991  0.16664220  0.87673600  1
  In  In50  1  0.65210210  0.49497310  0.36915897  1
  In  In51  1  0.67346741  0.50090320  0.85704276  1
  In  In52  1  0.67795908  0.82415933  0.38299716  1
  In  In53  1  0.65677039  0.82717596  0.86851858  1
  In  In54  1  0.15556485  0.01457096  0.13932196  1
  In  In55  1  0.15544377  -0.00964646  0.62520267  1
  In  In56  1  0.18166176  0.32924616  0.12944878  1
  In  In57  1  0.16383260  0.34746332  0.62154780  1
  In  In58  1  0.16334146  0.66121149  0.12642643  1
  In  In59  1  0.17832742  0.65830128  0.63025588  1
  In  In60  1  0.48973617  -0.00508598  0.11935620  1
  In  In61  1  0.51497311  0.00385454  0.62532506  1
  In  In62  1  0.51365081  0.32683645  0.13234714  1
  In  In63  1  0.49241852  0.34078198  0.63098211  1
  In  In64  1  0.49724897  0.67887333  0.12523568  1
  In  In65  1  0.50187784  0.66491258  0.62313604  1
  In  In66  1  0.83357007  0.01187094  0.12365112  1
  In  In67  1  0.83582165  -0.00421305  0.62167613  1
  In  In68  1  0.82928624  0.32236821  0.12833631  1
  In  In69  1  0.83738837  0.31986395  0.62404273  1
  In  In70  1  0.83490676  0.66369952  0.13022167  1
  In  In71  1  0.81976769  0.67405305  0.63527238  1
  In  In72  1  0.16327088  0.83155221  0.49626771  1
  In  In73  1  0.50603507  0.17074055  0.49429115  1
  In  In74  1  0.49975536  0.49873246  -0.00239584  1
  In  In75  1  0.16225872  0.17122063  0.49822403  1
  In  In76  1  0.83117172  0.83272556  -0.01227196  1
  In  In77  1  0.33421015  -0.00081589  0.75801376  1
  In  In78  1  0.83079065  0.50266976  0.50727710  1
  In  In79  1  0.17055947  0.83519574  0.00358616  1
  In  In80  1  0.33532126  0.66738701  0.24657552  1
  In  In81  1  0.83401774  0.49669260  -0.00465008  1
  In  In82  1  0.66797972  0.00055004  0.24902501  1
  In  In83  1  0.17009466  0.49596117  0.00546638  1
  In  In84  1  0.00145434  0.33294624  0.74502651  1
  In  In85  1  -0.00014452  0.33547263  0.25297193  1
  Cu  Cu86  1  0.83035067  0.50561740  0.25942940  1
  Cu  Cu87  1  0.33701759  0.33664043  0.49811143  1
  Cu  Cu88  1  0.16451707  0.50622681  0.25263441  1
  Cu  Cu89  1  0.33797776  0.65851789  0.50499007  1
  Cu  Cu90  1  0.50493502  0.82862511  0.24970612  1
  Cu  Cu91  1  0.83203175  0.16410251  0.74977654  1
  Cu  Cu92  1  0.67220627  -0.00425243  0.50662705  1
  Cu  Cu93  1  0.50801811  0.17435537  0.75320941  1
  Cu  Cu94  1  0.66024158  0.00475565  0.00218867  1
  Cu  Cu95  1  0.83346771  0.16448951  0.24904493  1
  Cu  Cu96  1  0.33460620  -0.00213606  0.49225099  1
  Cu  Cu97  1  0.82661962  0.84179972  0.74736030  1
  Cu  Cu98  1  0.49632331  0.50304958  0.74744850  1
  Cu  Cu99  1  0.66681197  0.66672440  0.50496747  1
  Cu  Cu100  1  -0.00090815  -0.00131127  0.00047354  1
  Cu  Cu101  1  0.66584962  0.33126062  -0.00020431  1
  Cu  Cu102  1  0.17411134  0.49964699  0.74591608  1
  Cu  Cu103  1  0.33656665  0.32817609  0.00053378  1
  Cu  Cu104  1  0.16700092  0.16499319  0.75396344  1
  Cu  Cu105  1  0.66172673  0.67079335  -0.00522285  1
  Cu  Cu106  1  -0.00115661  0.32210652  0.00104721  1
  Cu  Cu107  1  -0.00010982  0.67266556  0.50306674  1
  Cu  Cu108  1  0.66076202  0.33345875  0.50114776  1
  Cu  Cu109  1  0.83594609  0.83270212  0.25512530  1
  Cu  Cu110  1  0.16531301  0.83771792  0.25254573  1
  Cu  Cu111  1  0.33282121  0.00648854  -0.00067550  1
  Cu  Cu112  1  0.49624894  0.16613439  0.24632563  1
  Cu  Cu113  1  0.50041054  0.83103023  0.74747966  1
  Cu  Cu114  1  0.15819795  0.82787990  0.74688273  1
  Se  Se115  1  0.08238126  0.07986593  0.05585984  1
  Se  Se116  1  0.07516953  0.07477081  0.55458247  1
  Se  Se117  1  0.07454394  0.40480463  0.06239451  1
  Se  Se118  1  0.08329344  0.41137461  0.54473549  1
  Se  Se119  1  0.07480139  0.74152407  0.05575239  1
  Se  Se120  1  0.08185609  0.74823613  0.56657157  1
  Se  Se121  1  0.41961205  0.08831212  0.05107513  1
  Se  Se122  1  0.41379217  0.07766088  0.55420603  1
  Se  Se123  1  0.41175049  0.41137399  0.06147842  1
  Se  Se124  1  0.42256430  0.41662090  0.55181446  1
  Se  Se125  1  0.41718568  0.74764219  0.05020080  1
  Se  Se126  1  0.41909806  0.74914356  0.55249265  1
  Se  Se127  1  0.75012216  0.08445519  0.05133406  1
  Se  Se128  1  0.75203095  0.08584733  0.55579634  1
  Se  Se129  1  0.74267744  0.41437581  0.06098871  1
  Se  Se130  1  0.73889862  0.41167008  0.56480885  1
  Se  Se131  1  0.74624584  0.74553380  0.05626000  1
  Se  Se132  1  0.75364926  0.75005035  0.55429177  1
  Se  Se133  1  0.24900254  0.24815371  0.05268250  1
  Se  Se134  1  0.26206065  0.25240057  0.55958014  1
  Se  Se135  1  0.26187234  0.59567373  0.05599031  1
  Se  Se136  1  0.24887818  0.57765195  0.55393821  1
  Se  Se137  1  0.25443921  0.92872180  0.06359664  1
  Se  Se138  1  0.25724522  0.92188609  0.55717037  1
  Se  Se139  1  0.58055292  0.24949004  0.05224394  1
  Se  Se140  1  0.58738880  0.25122170  0.56621105  1
  Se  Se141  1  0.59212455  0.58599475  0.05892914  1
  Se  Se142  1  0.58290729  0.57928097  0.55325957  1
  Se  Se143  1  0.57863289  0.91586764  0.05100150  1
  Se  Se144  1  0.58114505  0.91491348  0.55343217  1
  Se  Se145  1  0.90799363  0.24723786  0.05376656  1
  Se  Se146  1  0.92477416  0.25864283  0.54960754  1
  Se  Se147  1  0.92304173  0.58662429  0.05616971  1
  Se  Se148  1  0.92138501  0.59352823  0.56615824  1
  Se  Se149  1  0.91858759  0.91580811  0.05784514  1
  Se  Se150  1  0.92046921  0.92018393  0.54963201  1
  Se  Se151  1  0.07665650  0.25905809  0.43473781  1
  Se  Se152  1  0.08719213  0.24182967  0.95038569  1
  Se  Se153  1  0.08460524  0.58695559  0.45388692  1
  Se  Se154  1  0.07997760  0.58452455  0.94435013  1
  Se  Se155  1  0.08038547  0.92858960  0.43880375  1
  Se  Se156  1  0.07405794  0.91603483  0.93890250  1
  Se  Se157  1  0.40723640  0.25010653  0.43494894  1
  Se  Se158  1  0.42395967  0.25202293  0.94518554  1
  Se  Se159  1  0.42272540  0.57863517  0.44933385  1
  Se  Se160  1  0.40898707  0.59075173  0.94209396  1
  Se  Se161  1  0.42197663  0.91111405  0.44818876  1
  Se  Se162  1  0.41276193  0.91929441  0.94669227  1
  Se  Se163  1  0.74707942  0.24891377  0.45317309  1
  Se  Se164  1  0.75165841  0.24846742  0.94792024  1
  Se  Se165  1  0.74323714  0.58573781  0.44008124  1
  Se  Se166  1  0.74336413  0.59022106  0.93698765  1
  Se  Se167  1  0.75405819  0.91053890  0.45292988  1
  Se  Se168  1  0.73747094  0.92664008  0.93657982  1
  Se  Se169  1  0.25581894  0.08213171  0.43660370  1
  Se  Se170  1  0.24708717  0.08758780  0.94671037  1
  Se  Se171  1  0.24922865  0.41625787  0.44581344  1
  Se  Se172  1  0.25746833  0.40963656  0.93955431  1
  Se  Se173  1  0.26003639  0.73955161  0.44174549  1
  Se  Se174  1  0.25405352  0.74387345  0.94062365  1
  Se  Se175  1  0.59595978  0.07277476  0.43941373  1
  Se  Se176  1  0.57953059  0.08865421  0.94647869  1
  Se  Se177  1  0.57887271  0.41059324  0.44264894  1
  Se  Se178  1  0.59652567  0.41691756  0.93704196  1
  Se  Se179  1  0.58446252  0.75178300  0.45057542  1
  Se  Se180  1  0.57693568  0.75374778  0.94438929  1
  Se  Se181  1  0.90318271  0.10330413  0.44978239  1
  Se  Se182  1  0.91459669  0.08363688  0.94935161  1
  Se  Se183  1  0.91879723  0.41488904  0.44386792  1
  Se  Se184  1  0.92730311  0.40478677  0.93742269  1
  Se  Se185  1  0.91824616  0.75357511  0.44719548  1
  Se  Se186  1  0.92272075  0.73397350  0.94008374  1
  Se  Se187  1  0.24359557  0.25243948  0.29004137  1
  Se  Se188  1  0.25296300  0.24918943  0.80231940  1
  Se  Se189  1  0.24748785  0.58355854  0.31366366  1
  Se  Se190  1  0.25128188  0.58641314  0.80185973  1
  Se  Se191  1  0.25318083  0.91924625  0.30198978  1
  Se  Se192  1  0.23832327  0.90580469  0.81140834  1
  Se  Se193  1  0.58059012  0.24441524  0.30322434  1
  Se  Se194  1  0.59207449  0.25671677  0.80658793  1
  Se  Se195  1  0.58278030  0.58922351  0.30230821  1
  Se  Se196  1  0.58076236  0.58670233  0.80022219  1
  Se  Se197  1  0.58209710  0.91031135  0.31238004  1
  Se  Se198  1  0.57959334  0.91826352  0.80129225  1
  Se  Se199  1  0.90741364  0.24805703  0.31231498  1
  Se  Se200  1  0.91682507  0.24271560  0.81014115  1
  Se  Se201  1  0.91883119  0.58926360  0.30589557  1
  Se  Se202  1  0.91107643  0.57684642  0.79730577  1
  Se  Se203  1  0.91385572  0.92098225  0.30787679  1
  Se  Se204  1  0.91399726  0.91966678  0.80252828  1
  Se  Se205  1  0.08707152  0.09665402  0.29762041  1
  Se  Se206  1  0.08103767  0.08067765  0.80234728  1
  Se  Se207  1  0.08563933  0.42719031  0.31522857  1
  Se  Se208  1  0.09404296  0.42059003  0.80935529  1
  Se  Se209  1  0.08213618  0.75214069  0.30363348  1
  Se  Se210  1  0.07649492  0.74248707  0.80054208  1
  Se  Se211  1  0.41756275  0.07929722  0.29989471  1
  Se  Se212  1  0.42540700  0.09219146  0.81294167  1
  Se  Se213  1  0.40207944  0.40969264  0.30057911  1
  Se  Se214  1  0.41559478  0.41648480  0.80140359  1
  Se  Se215  1  0.42216089  0.75314344  0.31230532  1
  Se  Se216  1  0.41575299  0.74857422  0.80020281  1
  Se  Se217  1  0.75778753  0.08316070  0.31319401  1
  Se  Se218  1  0.74725427  0.08309045  0.80496404  1
  Se  Se219  1  0.74766062  0.41659940  0.30640353  1
  Se  Se220  1  0.76178431  0.41814336  0.79610012  1
  Se  Se221  1  0.74932587  0.74929073  0.30410693  1
  Se  Se222  1  0.74543251  0.75385091  0.79918163  1
  Se  Se223  1  0.26518750  0.07385170  0.19558019  1
  Se  Se224  1  0.24497676  0.08439295  0.68989696  1
  Se  Se225  1  0.24709539  0.42240722  0.20015200  1
  Se  Se226  1  0.25420586  0.41295389  0.69342642  1
  Se  Se227  1  0.24492482  0.76156221  0.18779073  1
  Se  Se228  1  0.25115103  0.74888021  0.70024845  1
  Se  Se229  1  0.57935290  0.08725190  0.18582747  1
  Se  Se230  1  0.58402013  0.08213651  0.70269119  1
  Se  Se231  1  0.58528289  0.41198462  0.20382755  1
  Se  Se232  1  0.58181048  0.41703978  0.69845428  1
  Se  Se233  1  0.58840041  0.74618492  0.19729928  1
  Se  Se234  1  0.58407886  0.74879099  0.69244726  1
  Se  Se235  1  0.91758862  0.08054346  0.19833013  1
  Se  Se236  1  0.91472333  0.08146236  0.69484678  1
  Se  Se237  1  0.90568706  0.42630507  0.19253035  1
  Se  Se238  1  0.91354211  0.42301185  0.68586256  1
  Se  Se239  1  0.91649139  0.75009718  0.19658945  1
  Se  Se240  1  0.91252958  0.75490617  0.69822900  1
  Se  Se241  1  0.08081292  0.24714416  0.18694974  1
  Se  Se242  1  0.09113245  0.24067495  0.68570446  1
  Se  Se243  1  0.08060781  0.59052514  0.20183462  1
  Se  Se244  1  0.08539275  0.57931278  0.69455156  1
  Se  Se245  1  0.07734041  0.91959720  0.20131473  1
  Se  Se246  1  0.07678936  0.91792021  0.69999459  1
  Se  Se247  1  0.41507293  0.24991857  0.19166147  1
  Se  Se248  1  0.41775827  0.25260276  0.70264229  1
  Se  Se249  1  0.42923440  0.57553085  0.19198781  1
  Se  Se250  1  0.41413214  0.58516293  0.69146173  1
  Se  Se251  1  0.42201758  0.91471799  0.19849579  1
  Se  Se252  1  0.41885642  0.91460712  0.68893398  1
  Se  Se253  1  0.74537829  0.24798021  0.20057990  1
  Se  Se254  1  0.75139330  0.25154424  0.69856229  1
  Se  Se255  1  0.75051185  0.58740317  0.20038964  1
  Se  Se256  1  0.75033961  0.58084322  0.70216921  1
  Se  Se257  1  0.75796764  0.90837471  0.18830564  1
  Se  Se258  1  0.74449694  0.92203763  0.69074596  1
