# generated using pymatgen
data_In86Cu29Se144
_symmetry_space_group_name_H-M   'P 1'
_cell_length_a   17.64131177
_cell_length_b   17.64212740
_cell_length_c   23.50196300
_cell_angle_alpha   89.98906102
_cell_angle_beta   90.02580775
_cell_angle_gamma   90.00271879
_symmetry_Int_Tables_number   1
_chemical_formula_structural   In86Cu29Se144
_chemical_formula_sum   'In86 Cu29 Se144'
_cell_volume   7314.52140040
_cell_formula_units_Z   1
loop_
 _symmetry_equiv_pos_site_id
 _symmetry_equiv_pos_as_xyz
  1  'x, y, z'
loop_
 _atom_site_type_symbol
 _atom_site_label
 _atom_site_symmetry_multiplicity
 _atom_site_fract_x
 _atom_site_fract_y
 _atom_site_fract_z
 _atom_site_occupancy
  In  In0  1  -0.01040594  0.17864794  0.13370562  1
  In  In1  1  -0.00326640  0.16732644  0.61887661  1
  In  In2  1  -0.01015139  0.49819146  0.12259413  1
  In  In3  1  0.01125008  0.50292536  0.62739653  1
  In  In4  1  0.00083834  0.82737375  0.11947479  1
  In  In5  1  -0.01371500  0.82931919  0.62314421  1
  In  In6  1  0.33796264  0.16351114  0.12160777  1
  In  In7  1  0.33026091  0.17745420  0.63158692  1
  In  In8  1  0.36431655  0.49506455  0.13367841  1
  In  In9  1  0.32577063  0.49960161  0.61533581  1
  In  In10  1  0.32417491  0.83075738  0.12656183  1
  In  In11  1  0.34442536  0.83481573  0.61647451  1
  In  In12  1  0.69852533  0.21573100  0.06590987  1
  In  In13  1  0.67127625  0.16261227  0.63265164  1
  In  In14  1  0.66174648  0.48921639  0.10478918  1
  In  In15  1  0.65706105  0.50755237  0.63453440  1
  In  In16  1  0.66995102  0.81503503  0.11740299  1
  In  In17  1  0.66692754  0.83496757  0.62757809  1
  In  In18  1  0.17054406  -0.00617665  0.38578243  1
  In  In19  1  0.16467929  -0.00461159  0.87051298  1
  In  In20  1  0.15635941  0.34336193  0.38191837  1
  In  In21  1  0.16682778  0.32658977  0.87035151  1
  In  In22  1  0.19352037  0.64043715  0.40865239  1
  In  In23  1  0.16971875  0.67840520  0.87071104  1
  In  In24  1  0.49006275  -0.00496086  0.37608963  1
  In  In25  1  0.51027464  0.01116841  0.85913711  1
  In  In26  1  0.51383782  0.33843468  0.37261223  1
  In  In27  1  0.50266179  0.33614917  0.88188500  1
  In  In28  1  0.50118049  0.66359913  0.38094056  1
  In  In29  1  0.50316949  0.65244164  0.87531430  1
  In  In30  1  0.83556453  -0.00316473  0.38181016  1
  In  In31  1  0.82313356  0.01277806  0.88207974  1
  In  In32  1  0.82507408  0.32042928  0.36350601  1
  In  In33  1  0.79232762  0.38177011  0.92843300  1
  In  In34  1  0.84194075  0.66917228  0.37825385  1
  In  In35  1  0.83205510  0.66789324  0.86993269  1
  In  In36  1  -0.00966560  0.17725167  0.38062607  1
  In  In37  1  -0.01206930  0.17160904  0.88049878  1
  In  In38  1  0.00812092  0.50025573  0.37314382  1
  In  In39  1  -0.02532062  0.49912161  0.88031316  1
  In  In40  1  0.00213033  0.82960421  0.38386841  1
  In  In41  1  0.00748745  0.83028881  0.87553607  1
  In  In42  1  0.33410036  0.15441422  0.37687411  1
  In  In43  1  0.34820133  0.18520618  0.85939242  1
  In  In44  1  0.33626751  0.50139998  0.38166667  1
  In  In45  1  0.35139608  0.49711607  0.88311819  1
  In  In46  1  0.35348659  0.80389638  0.40657293  1
  In  In47  1  0.31975464  0.83241103  0.87176718  1
  In  In48  1  0.66668719  0.17780528  0.37184126  1
  In  In49  1  0.66159100  0.17170672  0.87916988  1
  In  In50  1  0.66621314  0.48814174  0.37543535  1
  In  In51  1  0.66331051  0.50298651  0.87302928  1
  In  In52  1  0.66917977  0.82992823  0.38692207  1
  In  In53  1  0.67186571  0.83890981  0.86668107  1
  In  In54  1  0.17443025  -0.01114877  0.12238392  1
  In  In55  1  0.17180684  0.00936520  0.62108091  1
  In  In56  1  0.16546987  0.32442105  0.13013891  1
  In  In57  1  0.17274675  0.34473864  0.61689581  1
  In  In58  1  0.17063897  0.67660798  0.12748555  1
  In  In59  1  0.16176612  0.65841942  0.61931002  1
  In  In60  1  0.50063665  0.01081591  0.12233892  1
  In  In61  1  0.50782044  -0.00611973  0.63283998  1
  In  In62  1  0.52154451  0.35668681  0.08029639  1
  In  In63  1  0.49733034  0.34230195  0.63127127  1
  In  In64  1  0.50209067  0.63366793  0.12327360  1
  In  In65  1  0.50071393  0.67399810  0.61512871  1
  In  In66  1  0.83484424  -0.00032074  0.11592931  1
  In  In67  1  0.82797675  0.00057628  0.62526033  1
  In  In68  1  0.84029054  0.33499701  0.11914375  1
  In  In69  1  0.83135177  0.32152028  0.62693516  1
  In  In70  1  0.82011707  0.65696129  0.10271341  1
  In  In71  1  0.81906314  0.67282029  0.64004200  1
  In  In72  1  0.66608949  0.66070349  0.24662296  1
  In  In73  1  0.33081532  -0.00333835  0.25015201  1
  In  In74  1  0.33415848  0.66423599  0.74406203  1
  In  In75  1  0.49756512  0.82737180  -0.00976852  1
  In  In76  1  0.50363044  0.16480271  0.49806947  1
  In  In77  1  0.00209445  0.66922247  0.25072127  1
  In  In78  1  0.16996814  0.15665762  0.00332567  1
  In  In79  1  0.16690451  0.50204252  0.00300102  1
  In  In80  1  0.66456009  0.00620036  0.24691979  1
  In  In81  1  0.83481290  0.50049946  0.50010713  1
  In  In82  1  -0.00519051  0.33495187  0.75648151  1
  In  In83  1  -0.00345771  0.00277536  0.75388995  1
  In  In84  1  0.33317792  0.33200500  0.24994957  1
  In  In85  1  -0.00061987  0.00166505  0.24271982  1
  Cu  Cu86  1  0.83025482  0.83506900  0.74804000  1
  Cu  Cu87  1  0.50052689  0.82687441  0.74425205  1
  Cu  Cu88  1  0.82209817  0.17388253  0.75741406  1
  Cu  Cu89  1  0.50878883  0.17794645  0.24103125  1
  Cu  Cu90  1  0.50177033  0.49416528  0.75257300  1
  Cu  Cu91  1  0.17117678  0.49983153  0.74548471  1
  Cu  Cu92  1  0.16987919  0.50315612  0.25884030  1
  Cu  Cu93  1  0.82924344  0.49298342  0.76206900  1
  Cu  Cu94  1  0.33445636  0.00039481  0.50357951  1
  Cu  Cu95  1  0.00541666  -0.00613827  -0.00259342  1
  Cu  Cu96  1  -0.00570592  0.67237862  0.50475618  1
  Cu  Cu97  1  0.16402668  0.83564666  0.74782286  1
  Cu  Cu98  1  -0.00123098  0.33101479  0.49975081  1
  Cu  Cu99  1  0.66732238  0.33519966  0.49802280  1
  Cu  Cu100  1  0.16923387  0.17211136  0.74382789  1
  Cu  Cu101  1  0.66655170  0.66884783  0.51010225  1
  Cu  Cu102  1  0.50275855  0.16994656  0.75160005  1
  Cu  Cu103  1  -0.00251009  0.00475456  0.50317142  1
  Cu  Cu104  1  0.32869587  -0.00669498  -0.00542822  1
  Cu  Cu105  1  0.66945254  -0.00141656  0.50794948  1
  Cu  Cu106  1  0.00093423  0.66971012  -0.00376752  1
  Cu  Cu107  1  0.82794527  0.48818793  0.24538411  1
  Cu  Cu108  1  0.17400800  0.82508093  0.26079642  1
  Cu  Cu109  1  0.49666740  0.82728263  0.25728848  1
  Cu  Cu110  1  0.83570108  0.83158155  0.24501835  1
  Cu  Cu111  1  0.15873905  0.16696737  0.25671290  1
  Cu  Cu112  1  0.65880202  -0.00488911  -0.00874117  1
  Cu  Cu113  1  0.33280711  0.32981332  0.50340804  1
  Cu  Cu114  1  0.33579841  0.66425797  0.00038707  1
  Se  Se115  1  0.07524760  0.07380339  0.06649659  1
  Se  Se116  1  0.08376628  0.08747503  0.55353230  1
  Se  Se117  1  0.07997237  0.40720601  0.06034581  1
  Se  Se118  1  0.07823546  0.41894035  0.55177949  1
  Se  Se119  1  0.08666516  0.74631594  0.05273278  1
  Se  Se120  1  0.07890384  0.75222776  0.55883036  1
  Se  Se121  1  0.40809350  0.07457356  0.05113514  1
  Se  Se122  1  0.41557941  0.08183199  0.56349522  1
  Se  Se123  1  0.39826013  0.41985929  0.04505606  1
  Se  Se124  1  0.41683406  0.41294757  0.55532135  1
  Se  Se125  1  0.41666073  0.74396299  0.06224169  1
  Se  Se126  1  0.40275730  0.73622698  0.54788829  1
  Se  Se127  1  0.73810934  0.07102786  0.05282827  1
  Se  Se128  1  0.74944538  0.08822597  0.55681802  1
  Se  Se129  1  0.77047163  0.42810105  0.04777979  1
  Se  Se130  1  0.74462785  0.41416395  0.56192484  1
  Se  Se131  1  0.76956219  0.77046743  0.04595763  1
  Se  Se132  1  0.75286163  0.75067981  0.56018202  1
  Se  Se133  1  0.25690424  0.25716871  0.05689374  1
  Se  Se134  1  0.24896236  0.24729662  0.55520467  1
  Se  Se135  1  0.25895537  0.58611322  0.06499018  1
  Se  Se136  1  0.24658360  0.58509404  0.54869656  1
  Se  Se137  1  0.25032871  0.90868500  0.04979519  1
  Se  Se138  1  0.25087770  0.91838014  0.55669976  1
  Se  Se139  1  0.55275601  0.22359313  0.04544312  1
  Se  Se140  1  0.58854317  0.25517468  0.56055627  1
  Se  Se141  1  0.61926755  0.61795463  0.06056705  1
  Se  Se142  1  0.58378662  0.57891385  0.55550874  1
  Se  Se143  1  0.58340091  0.91601964  0.05711226  1
  Se  Se144  1  0.58254025  0.91601663  0.55708822  1
  Se  Se145  1  0.92124726  0.24530742  0.05276943  1
  Se  Se146  1  0.91252458  0.25032603  0.55196016  1
  Se  Se147  1  0.92156063  0.58059434  0.04695648  1
  Se  Se148  1  0.91556120  0.59085733  0.56587300  1
  Se  Se149  1  0.92119852  0.91392934  0.05305256  1
  Se  Se150  1  0.91342766  0.92214049  0.55698430  1
  Se  Se151  1  0.08483329  0.24815929  0.44765836  1
  Se  Se152  1  0.08324418  0.25148554  0.94495100  1
  Se  Se153  1  0.07058009  0.58246403  0.45136976  1
  Se  Se154  1  0.08105786  0.58864692  0.93636693  1
  Se  Se155  1  0.07824465  0.91877610  0.45069615  1
  Se  Se156  1  0.09003051  0.91443428  0.94386576  1
  Se  Se157  1  0.41325447  0.25654326  0.43788640  1
  Se  Se158  1  0.41596699  0.24656390  0.94327045  1
  Se  Se159  1  0.41218953  0.58959362  0.44896383  1
  Se  Se160  1  0.42563397  0.58278915  0.95389867  1
  Se  Se161  1  0.42321201  0.91817616  0.45427487  1
  Se  Se162  1  0.41338927  0.92303209  0.93123616  1
  Se  Se163  1  0.74927977  0.25218937  0.44464926  1
  Se  Se164  1  0.74844464  0.24187744  0.95615397  1
  Se  Se165  1  0.74136450  0.59189662  0.44169725  1
  Se  Se166  1  0.76345402  0.57273537  0.93721220  1
  Se  Se167  1  0.75204921  0.91667940  0.45044712  1
  Se  Se168  1  0.74778301  0.91469197  0.94294942  1
  Se  Se169  1  0.25217113  0.08380141  0.45035136  1
  Se  Se170  1  0.25773942  0.08063880  0.93338828  1
  Se  Se171  1  0.25241051  0.41357673  0.44654596  1
  Se  Se172  1  0.25165093  0.41123083  0.93994429  1
  Se  Se173  1  0.22279757  0.77278743  0.44737765  1
  Se  Se174  1  0.25296208  0.74656394  0.94672118  1
  Se  Se175  1  0.59368093  0.07275733  0.43836175  1
  Se  Se176  1  0.57612664  0.08158073  0.94210343  1
  Se  Se177  1  0.58109733  0.41951087  0.45020898  1
  Se  Se178  1  0.58349077  0.42421285  0.94744941  1
  Se  Se179  1  0.58387481  0.74724312  0.45046258  1
  Se  Se180  1  0.59434084  0.74244252  0.93564624  1
  Se  Se181  1  0.91507249  0.08528061  0.44690484  1
  Se  Se182  1  0.91964867  0.07968711  0.94947732  1
  Se  Se183  1  0.91829730  0.40974734  0.43689656  1
  Se  Se184  1  0.93686849  0.39016473  0.94515154  1
  Se  Se185  1  0.91040395  0.75385974  0.45111766  1
  Se  Se186  1  0.91858357  0.74922979  0.93927417  1
  Se  Se187  1  0.24518691  0.24324628  0.31406099  1
  Se  Se188  1  0.25050739  0.25834820  0.79588134  1
  Se  Se189  1  0.24843401  0.58459454  0.31527022  1
  Se  Se190  1  0.25163509  0.57527194  0.81163537  1
  Se  Se191  1  0.25453266  0.90773064  0.31751013  1
  Se  Se192  1  0.24834451  0.91827004  0.79923580  1
  Se  Se193  1  0.58840948  0.25701138  0.29936618  1
  Se  Se194  1  0.58134510  0.25360037  0.80859737  1
  Se  Se195  1  0.57838632  0.57382984  0.30816872  1
  Se  Se196  1  0.58382627  0.58353233  0.79953623  1
  Se  Se197  1  0.58083684  0.90877576  0.31091349  1
  Se  Se198  1  0.58241679  0.91246601  0.79754455  1
  Se  Se199  1  0.92260587  0.25011409  0.30093480  1
  Se  Se200  1  0.90034295  0.25478798  0.81668294  1
  Se  Se201  1  0.90561497  0.57322777  0.30481637  1
  Se  Se202  1  0.91806054  0.58384855  0.80156276  1
  Se  Se203  1  0.91492042  0.90790321  0.30660511  1
  Se  Se204  1  0.90664534  0.91419702  0.81290881  1
  Se  Se205  1  0.08574386  0.07956951  0.31393222  1
  Se  Se206  1  0.08727482  0.09993886  0.80840856  1
  Se  Se207  1  0.08292165  0.41566658  0.30218299  1
  Se  Se208  1  0.08750903  0.42969399  0.81138712  1
  Se  Se209  1  0.09058025  0.74627183  0.31793878  1
  Se  Se210  1  0.08276913  0.75086078  0.79989853  1
  Se  Se211  1  0.43007148  0.09364356  0.30040479  1
  Se  Se212  1  0.41231848  0.08284033  0.79585772  1
  Se  Se213  1  0.42278871  0.42270519  0.30819694  1
  Se  Se214  1  0.41842850  0.41474942  0.80795804  1
  Se  Se215  1  0.41595726  0.75004526  0.31510005  1
  Se  Se216  1  0.42189739  0.75214305  0.80968160  1
  Se  Se217  1  0.75740684  0.08673103  0.31075377  1
  Se  Se218  1  0.74194561  0.08555333  0.80812708  1
  Se  Se219  1  0.74276211  0.41152659  0.30125751  1
  Se  Se220  1  0.75678924  0.40752425  0.82129443  1
  Se  Se221  1  0.75559979  0.75481282  0.30794065  1
  Se  Se222  1  0.74791729  0.74849479  0.79952658  1
  Se  Se223  1  0.23834492  0.09054496  0.19353270  1
  Se  Se224  1  0.25131142  0.08429754  0.69556094  1
  Se  Se225  1  0.24520526  0.42732148  0.19096585  1
  Se  Se226  1  0.25343590  0.41805708  0.69188439  1
  Se  Se227  1  0.25533458  0.74720127  0.20187874  1
  Se  Se228  1  0.24393572  0.75590146  0.68696810  1
  Se  Se229  1  0.58828552  0.09785388  0.18259228  1
  Se  Se230  1  0.58414168  0.08363878  0.69928498  1
  Se  Se231  1  0.57021774  0.42211834  0.17230618  1
  Se  Se232  1  0.58875614  0.41140362  0.70144026  1
  Se  Se233  1  0.57366821  0.75343137  0.19086018  1
  Se  Se234  1  0.58244600  0.74452547  0.69054730  1
  Se  Se235  1  0.89751857  0.08908582  0.19526250  1
  Se  Se236  1  0.90788547  0.09793934  0.69727189  1
  Se  Se237  1  0.91986471  0.41315797  0.19515179  1
  Se  Se238  1  0.90810477  0.42493861  0.69043321  1
  Se  Se239  1  0.90711758  0.74523300  0.18517087  1
  Se  Se240  1  0.91710944  0.75035279  0.70058296  1
  Se  Se241  1  0.08089914  0.25126942  0.20188009  1
  Se  Se242  1  0.08377753  0.25232007  0.68834566  1
  Se  Se243  1  0.08999920  0.57587537  0.19112509  1
  Se  Se244  1  0.08580364  0.58665644  0.69902960  1
  Se  Se245  1  0.09482329  0.90058868  0.19578389  1
  Se  Se246  1  0.08366317  0.91773075  0.68900446  1
  Se  Se247  1  0.42203167  0.25225470  0.18446186  1
  Se  Se248  1  0.41935866  0.25356884  0.69811936  1
  Se  Se249  1  0.40883001  0.59874615  0.20243735  1
  Se  Se250  1  0.42470053  0.57335089  0.68744986  1
  Se  Se251  1  0.42630180  0.90994747  0.19138049  1
  Se  Se252  1  0.41532587  0.91148953  0.69454471  1
  Se  Se253  1  0.73761697  0.25339673  0.16885138  1
  Se  Se254  1  0.74321850  0.25670941  0.70036322  1
  Se  Se255  1  0.75556466  0.57368499  0.18479531  1
  Se  Se256  1  0.74935093  0.57584456  0.70440301  1
  Se  Se257  1  0.75067077  0.90787831  0.18830299  1
  Se  Se258  1  0.74823022  0.92091500  0.69636254  1
