# generated using pymatgen
data_In86Cu29Se144
_symmetry_space_group_name_H-M   'P 1'
_cell_length_a   17.57627295
_cell_length_b   17.57503439
_cell_length_c   23.43879676
_cell_angle_alpha   89.99086251
_cell_angle_beta   89.97619938
_cell_angle_gamma   90.00789156
_symmetry_Int_Tables_number   1
_chemical_formula_structural   In86Cu29Se144
_chemical_formula_sum   'In86 Cu29 Se144'
_cell_volume   7240.32794988
_cell_formula_units_Z   1
loop_
 _symmetry_equiv_pos_site_id
 _symmetry_equiv_pos_as_xyz
  1  'x, y, z'
loop_
 _atom_site_type_symbol
 _atom_site_label
 _atom_site_symmetry_multiplicity
 _atom_site_fract_x
 _atom_site_fract_y
 _atom_site_fract_z
 _atom_site_occupancy
  In  In0  1  0.00697353  0.15951613  0.13444179  1
  In  In1  1  -0.01116896  0.16230466  0.61748071  1
  In  In2  1  0.00027483  0.50490983  0.13693783  1
  In  In3  1  -0.00180630  0.50061454  0.61480424  1
  In  In4  1  0.01327696  0.82567404  0.13577138  1
  In  In5  1  -0.00474479  0.84743132  0.62823094  1
  In  In6  1  0.33469776  0.17427711  0.12077179  1
  In  In7  1  0.33228266  0.18132341  0.62678980  1
  In  In8  1  0.33440638  0.49618295  0.12573328  1
  In  In9  1  0.32439465  0.49850611  0.63375906  1
  In  In10  1  0.33124384  0.82786487  0.11265701  1
  In  In11  1  0.32594061  0.81777124  0.63114738  1
  In  In12  1  0.65167966  0.15791234  0.11912256  1
  In  In13  1  0.67203001  0.16556019  0.63115572  1
  In  In14  1  0.66210889  0.51093151  0.12364062  1
  In  In15  1  0.66845845  0.49961884  0.62776897  1
  In  In16  1  0.66181922  0.84480477  0.12316850  1
  In  In17  1  0.67352342  0.82454016  0.63324752  1
  In  In18  1  0.16307718  0.01683403  0.37413325  1
  In  In19  1  0.16625209  -0.00263914  0.88031194  1
  In  In20  1  0.16651701  0.33593158  0.37395938  1
  In  In21  1  0.16941231  0.32173549  0.87355540  1
  In  In22  1  0.16199548  0.65818273  0.36816466  1
  In  In23  1  0.19088512  0.66114173  0.88421797  1
  In  In24  1  0.50980859  -0.01412795  0.36388276  1
  In  In25  1  0.51945592  -0.00742811  0.88971479  1
  In  In26  1  0.49792281  0.34317845  0.37065837  1
  In  In27  1  0.49702303  0.33470790  0.87523633  1
  In  In28  1  0.49833408  0.67674550  0.36721895  1
  In  In29  1  0.49892684  0.66290930  0.87662946  1
  In  In30  1  0.83512553  0.00071023  0.37430322  1
  In  In31  1  0.83308911  -0.00340016  0.86390055  1
  In  In32  1  0.84153895  0.31827856  0.39040640  1
  In  In33  1  0.83011751  0.34574150  0.86814886  1
  In  In34  1  0.84533694  0.65643825  0.38995794  1
  In  In35  1  0.83139107  0.67801131  0.87048155  1
  In  In36  1  -0.00152837  0.17041314  0.37348776  1
  In  In37  1  0.01799702  0.15957887  0.87825388  1
  In  In38  1  0.00684171  0.50047893  0.37776683  1
  In  In39  1  0.01352124  0.49596946  0.87125597  1
  In  In40  1  -0.00671264  0.82439916  0.36735787  1
  In  In41  1  -0.00455734  0.84188348  0.87812049  1
  In  In42  1  0.31706985  0.16550144  0.37496780  1
  In  In43  1  0.33086054  0.17016701  0.88056463  1
  In  In44  1  0.32655950  0.49238960  0.36517210  1
  In  In45  1  0.34544959  0.52088760  0.86238305  1
  In  In46  1  0.34511479  0.81845598  0.36645979  1
  In  In47  1  0.35151552  0.80795732  0.90192167  1
  In  In48  1  0.68121521  0.16470001  0.37860813  1
  In  In49  1  0.65716690  0.15905174  0.86767465  1
  In  In50  1  0.67410247  0.50316996  0.38497915  1
  In  In51  1  0.65685263  0.49033464  0.86287073  1
  In  In52  1  0.66563417  0.84372000  0.37476742  1
  In  In53  1  0.66605003  0.83054094  0.86772672  1
  In  In54  1  0.15682061  -0.00550635  0.12068212  1
  In  In55  1  0.14853566  -0.00184071  0.62604633  1
  In  In56  1  0.17248199  0.32785351  0.13162009  1
  In  In57  1  0.17133392  0.33715686  0.61812721  1
  In  In58  1  0.16219338  0.67623677  0.12561625  1
  In  In59  1  0.17849304  0.65908042  0.62958558  1
  In  In60  1  0.50289884  -0.00181234  0.11501906  1
  In  In61  1  0.50554140  0.00980065  0.63288579  1
  In  In62  1  0.48730588  0.32426293  0.11791872  1
  In  In63  1  0.49520258  0.33554008  0.63600526  1
  In  In64  1  0.48648206  0.65909699  0.10633651  1
  In  In65  1  0.49950777  0.66186781  0.63583901  1
  In  In66  1  0.82933728  0.00280901  0.13541800  1
  In  In67  1  0.83076836  0.00207879  0.62376423  1
  In  In68  1  0.83711402  0.34356130  0.13504254  1
  In  In69  1  0.82096181  0.33011604  0.60932221  1
  In  In70  1  0.83885730  0.67474675  0.12913254  1
  In  In71  1  0.81440420  0.65498145  0.60620518  1
  In  In72  1  -0.00050474  0.66910882  0.74727036  1
  In  In73  1  0.50671633  0.83262313  0.49466148  1
  In  In74  1  0.32999500  -0.00239732  0.24067374  1
  In  In75  1  0.15953866  0.83121583  0.49815484  1
  In  In76  1  0.83168466  0.50322755  0.00576868  1
  In  In77  1  0.17318400  0.50086833  -0.00164296  1
  In  In78  1  0.50550962  0.49990724  0.50315632  1
  In  In79  1  0.33532327  -0.00242031  0.76199960  1
  In  In80  1  0.50079102  0.16786128  0.50776793  1
  In  In81  1  0.66896929  0.67059475  0.25097007  1
  In  In82  1  0.83304534  0.83503517  -0.00133395  1
  In  In83  1  -0.00066688  0.32621508  0.74730093  1
  In  In84  1  0.82726732  0.16968977  0.00500189  1
  In  In85  1  0.66902520  0.32907999  0.25524494  1
  Cu  Cu86  1  0.65649624  0.33496035  -0.00678354  1
  Cu  Cu87  1  -0.00750150  0.00661910  0.49854837  1
  Cu  Cu88  1  0.49673574  0.83401321  0.76179048  1
  Cu  Cu89  1  0.83742767  0.16565235  0.74353679  1
  Cu  Cu90  1  0.82975945  0.50248859  0.74066935  1
  Cu  Cu91  1  0.32907583  0.01052965  0.00182947  1
  Cu  Cu92  1  0.83721649  0.83389190  0.25222860  1
  Cu  Cu93  1  0.17228569  0.50652677  0.24990516  1
  Cu  Cu94  1  0.49516257  0.50380629  0.75253797  1
  Cu  Cu95  1  0.67209587  0.00279196  0.50122863  1
  Cu  Cu96  1  -0.00369785  0.00272687  0.00484265  1
  Cu  Cu97  1  0.32462443  -0.00296114  0.49677531  1
  Cu  Cu98  1  0.50659781  0.17053336  0.75497783  1
  Cu  Cu99  1  0.16945786  0.83010772  0.75665253  1
  Cu  Cu100  1  0.00505518  0.33383029  0.49661097  1
  Cu  Cu101  1  0.00560298  0.66950569  0.49574406  1
  Cu  Cu102  1  0.83064222  0.83440445  0.74544530  1
  Cu  Cu103  1  0.33307150  0.65654777  0.50077102  1
  Cu  Cu104  1  0.33517976  0.33542598  -0.00082906  1
  Cu  Cu105  1  0.16017500  0.17711589  0.25286227  1
  Cu  Cu106  1  0.32614757  0.33252166  0.49748814  1
  Cu  Cu107  1  0.49714358  0.16101973  0.24205104  1
  Cu  Cu108  1  0.66054348  0.66341459  -0.00648620  1
  Cu  Cu109  1  0.00560146  0.33188962  0.00252763  1
  Cu  Cu110  1  0.83230808  0.16572817  0.25736674  1
  Cu  Cu111  1  0.84582558  0.50077830  0.26213156  1
  Cu  Cu112  1  0.49651029  0.49907982  0.24397341  1
  Cu  Cu113  1  0.16924024  0.83889999  0.24527076  1
  Cu  Cu114  1  0.16627841  0.15787890  0.75264048  1
  Se  Se115  1  0.08077842  0.08909970  0.05454942  1
  Se  Se116  1  0.08206536  0.08374483  0.55181118  1
  Se  Se117  1  0.07942288  0.41719432  0.06267533  1
  Se  Se118  1  0.08640007  0.41798255  0.55066065  1
  Se  Se119  1  0.08352281  0.75866392  0.05469180  1
  Se  Se120  1  0.07862438  0.74310339  0.56668113  1
  Se  Se121  1  0.41698339  0.08897252  0.05474146  1
  Se  Se122  1  0.40506761  0.07270207  0.56107289  1
  Se  Se123  1  0.41704522  0.42056358  0.05205543  1
  Se  Se124  1  0.40959435  0.40967113  0.55806858  1
  Se  Se125  1  0.41990459  0.75754371  0.04118933  1
  Se  Se126  1  0.41297014  0.74244232  0.55633335  1
  Se  Se127  1  0.74198433  0.06843786  0.05582360  1
  Se  Se128  1  0.75007128  0.08962033  0.55547726  1
  Se  Se129  1  0.73920674  0.40564236  0.05959909  1
  Se  Se130  1  0.75498013  0.43628066  0.55217627  1
  Se  Se131  1  0.74240743  0.73863728  0.05667194  1
  Se  Se132  1  0.75301493  0.76719223  0.55187417  1
  Se  Se133  1  0.24776913  0.25538445  0.05296485  1
  Se  Se134  1  0.24721264  0.24452748  0.55025423  1
  Se  Se135  1  0.25611678  0.59298517  0.05971241  1
  Se  Se136  1  0.25058814  0.57588364  0.55540571  1
  Se  Se137  1  0.24825031  0.92275353  0.05337479  1
  Se  Se138  1  0.25291579  0.91651955  0.56198498  1
  Se  Se139  1  0.58089210  0.25019884  0.05167448  1
  Se  Se140  1  0.58762163  0.26067025  0.56484774  1
  Se  Se141  1  0.58142087  0.57559960  0.04626871  1
  Se  Se142  1  0.58835475  0.59821203  0.55922136  1
  Se  Se143  1  0.58375779  0.91317291  0.04685019  1
  Se  Se144  1  0.58661887  0.92553057  0.56061797  1
  Se  Se145  1  0.92052063  0.25895936  0.06330646  1
  Se  Se146  1  0.91714235  0.25231507  0.54850585  1
  Se  Se147  1  0.92722912  0.59206359  0.05956762  1
  Se  Se148  1  0.91896938  0.58619606  0.54732275  1
  Se  Se149  1  0.91917405  0.92043244  0.06564923  1
  Se  Se150  1  0.91481266  0.91969323  0.55333580  1
  Se  Se151  1  0.08618271  0.24928916  0.44192538  1
  Se  Se152  1  0.08754846  0.24929807  0.94898589  1
  Se  Se153  1  0.09131446  0.58415452  0.44754071  1
  Se  Se154  1  0.07640349  0.59031489  0.94258437  1
  Se  Se155  1  0.07439215  0.92518878  0.43853294  1
  Se  Se156  1  0.07751713  0.91925073  0.94956856  1
  Se  Se157  1  0.41245259  0.25385089  0.44034458  1
  Se  Se158  1  0.41914456  0.25028397  0.94697936  1
  Se  Se159  1  0.41644455  0.58519556  0.43677948  1
  Se  Se160  1  0.40684313  0.59117279  0.94540869  1
  Se  Se161  1  0.40821646  0.92236653  0.43784842  1
  Se  Se162  1  0.41192932  0.92774914  0.94780056  1
  Se  Se163  1  0.74028111  0.25211553  0.45290948  1
  Se  Se164  1  0.74677760  0.26076480  0.93783168  1
  Se  Se165  1  0.74909134  0.58613357  0.45404742  1
  Se  Se166  1  0.74627394  0.58498491  0.93580172  1
  Se  Se167  1  0.75102319  0.91884964  0.44504088  1
  Se  Se168  1  0.74526253  0.92443554  0.93833160  1
  Se  Se169  1  0.24335000  0.08707677  0.45086582  1
  Se  Se170  1  0.24338377  0.08860195  0.94654332  1
  Se  Se171  1  0.25015132  0.42093765  0.44307738  1
  Se  Se172  1  0.25883984  0.41308412  0.93469716  1
  Se  Se173  1  0.25757880  0.74395116  0.44176720  1
  Se  Se174  1  0.22759060  0.76745660  0.95338109  1
  Se  Se175  1  0.58183470  0.07350382  0.44164299  1
  Se  Se176  1  0.58730278  0.09507213  0.95066069  1
  Se  Se177  1  0.59188989  0.40274572  0.44527130  1
  Se  Se178  1  0.57849229  0.42443603  0.94255151  1
  Se  Se179  1  0.59581127  0.73752649  0.43980308  1
  Se  Se180  1  0.58517240  0.75267219  0.93996246  1
  Se  Se181  1  0.91201605  0.09014393  0.44270850  1
  Se  Se182  1  0.91650151  0.07938398  0.94174323  1
  Se  Se183  1  0.92037943  0.41942060  0.44608353  1
  Se  Se184  1  0.92553735  0.41226277  0.94356346  1
  Se  Se185  1  0.92090744  0.75792222  0.44975553  1
  Se  Se186  1  0.92448812  0.73921279  0.94512850  1
  Se  Se187  1  0.25177777  0.25470671  0.30275968  1
  Se  Se188  1  0.25126299  0.24190086  0.80269116  1
  Se  Se189  1  0.25876513  0.59153422  0.30007637  1
  Se  Se190  1  0.23424797  0.57618575  0.80266320  1
  Se  Se191  1  0.24574975  0.91325818  0.31322968  1
  Se  Se192  1  0.25341467  0.90109437  0.82039700  1
  Se  Se193  1  0.57430862  0.23620091  0.31057650  1
  Se  Se194  1  0.58818175  0.25985002  0.80501968  1
  Se  Se195  1  0.58072333  0.57026697  0.30810356  1
  Se  Se196  1  0.58224549  0.58870017  0.80192512  1
  Se  Se197  1  0.57818438  0.89583681  0.29584968  1
  Se  Se198  1  0.58383944  0.92271234  0.80440580  1
  Se  Se199  1  0.91297143  0.25545421  0.30586409  1
  Se  Se200  1  0.91315840  0.23840631  0.81394963  1
  Se  Se201  1  0.92553976  0.59101231  0.31081835  1
  Se  Se202  1  0.91021317  0.57286039  0.80832956  1
  Se  Se203  1  0.91960255  0.92075632  0.30368853  1
  Se  Se204  1  0.91896798  0.91247692  0.79900834  1
  Se  Se205  1  0.07868102  0.08702487  0.30112323  1
  Se  Se206  1  0.08413070  0.07268264  0.80410531  1
  Se  Se207  1  0.08843366  0.42298129  0.30449799  1
  Se  Se208  1  0.09604147  0.41649178  0.80062624  1
  Se  Se209  1  0.08997359  0.75367760  0.30264184  1
  Se  Se210  1  0.08541455  0.75048940  0.81544818  1
  Se  Se211  1  0.41781978  0.08530539  0.30910260  1
  Se  Se212  1  0.42943432  0.08736253  0.81647156  1
  Se  Se213  1  0.41509378  0.41338648  0.29710873  1
  Se  Se214  1  0.41419820  0.41548055  0.80405204  1
  Se  Se215  1  0.42345196  0.74889327  0.29119834  1
  Se  Se216  1  0.41101014  0.74935413  0.81064781  1
  Se  Se217  1  0.74609200  0.07875907  0.30372497  1
  Se  Se218  1  0.75219632  0.08715138  0.80110384  1
  Se  Se219  1  0.75890900  0.41918448  0.31470857  1
  Se  Se220  1  0.74798763  0.41627723  0.79413571  1
  Se  Se221  1  0.76205819  0.75073086  0.31499175  1
  Se  Se222  1  0.74821246  0.74866088  0.79729570  1
  Se  Se223  1  0.23793489  0.09445452  0.18975054  1
  Se  Se224  1  0.24915429  0.08001555  0.69073449  1
  Se  Se225  1  0.25146113  0.41812398  0.19674261  1
  Se  Se226  1  0.26048393  0.39396689  0.69435952  1
  Se  Se227  1  0.25213952  0.75693352  0.19149008  1
  Se  Se228  1  0.24937796  0.74191964  0.70546461  1
  Se  Se229  1  0.58059921  0.07537991  0.19342760  1
  Se  Se230  1  0.58909104  0.08567911  0.70259991  1
  Se  Se231  1  0.58164485  0.41651249  0.18899818  1
  Se  Se232  1  0.58038214  0.42396017  0.69719190  1
  Se  Se233  1  0.58172607  0.74023032  0.17818667  1
  Se  Se234  1  0.57686816  0.75467089  0.69952785  1
  Se  Se235  1  0.91559639  0.08422680  0.20103826  1
  Se  Se236  1  0.92054460  0.07975458  0.69372726  1
  Se  Se237  1  0.92358881  0.41580402  0.20514608  1
  Se  Se238  1  0.91195800  0.41814068  0.68642635  1
  Se  Se239  1  0.92076666  0.74787417  0.20177493  1
  Se  Se240  1  0.90617541  0.74973426  0.68401551  1
  Se  Se241  1  0.07576163  0.25913390  0.19875572  1
  Se  Se242  1  0.08946462  0.23676525  0.68764024  1
  Se  Se243  1  0.08728273  0.59059738  0.19839733  1
  Se  Se244  1  0.08565071  0.57094463  0.69194645  1
  Se  Se245  1  0.08109439  0.92562359  0.20103413  1
  Se  Se246  1  0.08623480  0.91122006  0.70210824  1
  Se  Se247  1  0.41359191  0.25021236  0.19672157  1
  Se  Se248  1  0.41619430  0.24716971  0.70276040  1
  Se  Se249  1  0.41953731  0.58526301  0.18935616  1
  Se  Se250  1  0.40784633  0.58480084  0.69961493  1
  Se  Se251  1  0.42117522  0.90856950  0.18500242  1
  Se  Se252  1  0.42034835  0.90813983  0.69220558  1
  Se  Se253  1  0.75276629  0.23822927  0.18864569  1
  Se  Se254  1  0.75777960  0.25524537  0.69335601  1
  Se  Se255  1  0.76313393  0.57274847  0.19612331  1
  Se  Se256  1  0.74774687  0.59224975  0.69343055  1
  Se  Se257  1  0.74867818  0.91066215  0.19831077  1
  Se  Se258  1  0.74758937  0.92253846  0.69544352  1
