# generated using pymatgen
data_In86Cu29Se144
_symmetry_space_group_name_H-M   'P 1'
_cell_length_a   17.58257581
_cell_length_b   17.58661550
_cell_length_c   23.44424558
_cell_angle_alpha   90.00424857
_cell_angle_beta   89.98239653
_cell_angle_gamma   90.00405445
_symmetry_Int_Tables_number   1
_chemical_formula_structural   In86Cu29Se144
_chemical_formula_sum   'In86 Cu29 Se144'
_cell_volume   7249.38235490
_cell_formula_units_Z   1
loop_
 _symmetry_equiv_pos_site_id
 _symmetry_equiv_pos_as_xyz
  1  'x, y, z'
loop_
 _atom_site_type_symbol
 _atom_site_label
 _atom_site_symmetry_multiplicity
 _atom_site_fract_x
 _atom_site_fract_y
 _atom_site_fract_z
 _atom_site_occupancy
  In  In0  1  0.01367987  0.16655097  0.11917808  1
  In  In1  1  0.00475038  0.15175265  0.62978119  1
  In  In2  1  -0.00716671  0.51227660  0.13830308  1
  In  In3  1  -0.00284009  0.50874555  0.61942524  1
  In  In4  1  -0.00011424  0.81905777  0.12518769  1
  In  In5  1  0.01260909  0.84155864  0.61503120  1
  In  In6  1  0.32997438  0.16691217  0.11703552  1
  In  In7  1  0.32636802  0.16543638  0.62719029  1
  In  In8  1  0.34978199  0.49910996  0.12917583  1
  In  In9  1  0.35032043  0.48952192  0.62890058  1
  In  In10  1  0.33211075  0.83790126  0.12886892  1
  In  In11  1  0.32274254  0.84154789  0.63113893  1
  In  In12  1  0.66854781  0.18121373  0.11764268  1
  In  In13  1  0.65614470  0.16783585  0.62914042  1
  In  In14  1  0.66564139  0.49741101  0.12206831  1
  In  In15  1  0.66946829  0.50586016  0.61649559  1
  In  In16  1  0.65385806  0.83166782  0.12730019  1
  In  In17  1  0.67181444  0.82508404  0.63231122  1
  In  In18  1  0.18099650  -0.00636273  0.39037593  1
  In  In19  1  0.16706230  -0.00289783  0.87336658  1
  In  In20  1  0.15690847  0.34110788  0.37495084  1
  In  In21  1  0.17032760  0.31604090  0.87850430  1
  In  In22  1  0.17563506  0.67329738  0.36373655  1
  In  In23  1  0.18587898  0.66642354  0.87854901  1
  In  In24  1  0.48909252  0.01013701  0.37424314  1
  In  In25  1  0.50746972  0.01020601  0.86960202  1
  In  In26  1  0.51260435  0.33930865  0.36734800  1
  In  In27  1  0.49510769  0.34477012  0.88526890  1
  In  In28  1  0.48600352  0.65353112  0.36102020  1
  In  In29  1  0.49939896  0.66559680  0.87285657  1
  In  In30  1  0.82512501  -0.00595604  0.38077063  1
  In  In31  1  0.83022905  -0.00705642  0.86749526  1
  In  In32  1  0.84000983  0.34779401  0.36984093  1
  In  In33  1  0.82889939  0.34080972  0.88311677  1
  In  In34  1  0.83237526  0.66493297  0.37370235  1
  In  In35  1  0.82078928  0.66869242  0.87548520  1
  In  In36  1  0.00751010  0.18317410  0.37044981  1
  In  In37  1  0.01490767  0.15721068  0.88220589  1
  In  In38  1  -0.00216086  0.49027388  0.36464693  1
  In  In39  1  -0.00387016  0.49100487  0.88031322  1
  In  In40  1  0.00857920  0.82634815  0.38071135  1
  In  In41  1  0.00623275  0.84699666  0.87592673  1
  In  In42  1  0.33276474  0.15454528  0.37515344  1
  In  In43  1  0.33506767  0.16479003  0.87118047  1
  In  In44  1  0.33089567  0.50862940  0.37274352  1
  In  In45  1  0.34906492  0.50703550  0.87082710  1
  In  In46  1  0.32697011  0.83219077  0.37446292  1
  In  In47  1  0.32414435  0.82639895  0.86964373  1
  In  In48  1  0.65165825  0.17189284  0.37188970  1
  In  In49  1  0.66468684  0.15225434  0.88178421  1
  In  In50  1  0.66360427  0.50792842  0.37192114  1
  In  In51  1  0.65311597  0.50908416  0.89044625  1
  In  In52  1  0.68088117  0.82777039  0.38032509  1
  In  In53  1  0.66893637  0.83214781  0.86617360  1
  In  In54  1  0.17555449  0.01317452  0.11031468  1
  In  In55  1  0.16894503  -0.00372396  0.62417920  1
  In  In56  1  0.17025914  0.31927684  0.12653968  1
  In  In57  1  0.19336140  0.33171142  0.61877889  1
  In  In58  1  0.16005539  0.67200505  0.13599048  1
  In  In59  1  0.16840397  0.67974459  0.62166475  1
  In  In60  1  0.48462886  -0.00258574  0.12037503  1
  In  In61  1  0.49435236  0.00552277  0.63827742  1
  In  In62  1  0.52154546  0.35117028  0.09849999  1
  In  In63  1  0.48251992  0.33931087  0.62113700  1
  In  In64  1  0.51808221  0.64529137  0.15020867  1
  In  In65  1  0.50814406  0.65948849  0.62898621  1
  In  In66  1  0.83879371  -0.00045144  0.12020789  1
  In  In67  1  0.84475543  -0.00965240  0.63437336  1
  In  In68  1  0.81167623  0.35374103  0.13411221  1
  In  In69  1  0.82548348  0.34022826  0.62033690  1
  In  In70  1  0.83927299  0.65567541  0.13311449  1
  In  In71  1  0.82432329  0.66172490  0.61503442  1
  In  In72  1  0.83659143  0.83220187  -0.00645793  1
  In  In73  1  0.49335035  0.83277831  0.00281249  1
  In  In74  1  0.83320785  0.16825468  -0.00226524  1
  In  In75  1  0.66511782  0.33193362  0.75598494  1
  In  In76  1  0.00225905  0.00210451  0.24520226  1
  In  In77  1  0.83788756  0.16653774  0.50075993  1
  In  In78  1  0.16849306  0.50276527  0.49111041  1
  In  In79  1  0.00209772  0.66971572  0.74234852  1
  In  In80  1  0.49394869  0.17044346  0.50584103  1
  In  In81  1  0.00305482  0.32683817  0.75797871  1
  In  In82  1  0.16929778  0.49811044  0.01052782  1
  In  In83  1  0.33505177  0.33496685  0.24776811  1
  In  In84  1  0.66101305  -0.00074498  0.25246762  1
  In  In85  1  0.49637766  0.83116978  0.50229946  1
  Cu  Cu86  1  0.00349388  0.00012089  0.50360935  1
  Cu  Cu87  1  0.67116907  0.34481024  0.49269550  1
  Cu  Cu88  1  0.49404882  0.17004622  0.24399487  1
  Cu  Cu89  1  0.49425647  0.83270341  0.25120421  1
  Cu  Cu90  1  0.83615974  0.82790973  0.25107446  1
  Cu  Cu91  1  0.83516033  0.15938207  0.75607172  1
  Cu  Cu92  1  0.16735155  0.84215865  0.25289903  1
  Cu  Cu93  1  0.00455164  0.66415011  0.00888026  1
  Cu  Cu94  1  0.00388702  0.33514192  0.49471148  1
  Cu  Cu95  1  0.66108071  0.66468296  0.49763008  1
  Cu  Cu96  1  0.83033101  0.18016262  0.24963039  1
  Cu  Cu97  1  0.83063234  0.50592294  0.74452459  1
  Cu  Cu98  1  0.82517677  0.49984372  0.25236198  1
  Cu  Cu99  1  0.16970698  0.16179833  0.75148889  1
  Cu  Cu100  1  0.16994045  0.16017606  0.24507675  1
  Cu  Cu101  1  0.49504077  0.82966449  0.75107214  1
  Cu  Cu102  1  0.32850818  0.00132470  -0.00608438  1
  Cu  Cu103  1  0.50498923  0.50009117  0.75380851  1
  Cu  Cu104  1  0.83181941  0.83117646  0.74791837  1
  Cu  Cu105  1  0.66887132  -0.00547177  0.50725189  1
  Cu  Cu106  1  0.34341452  0.67095548  0.00262651  1
  Cu  Cu107  1  0.18242998  0.49755389  0.75069201  1
  Cu  Cu108  1  -0.00905240  0.66599117  0.49551735  1
  Cu  Cu109  1  0.32972645  0.66857139  0.49626113  1
  Cu  Cu110  1  0.66893982  0.66437350  0.00602921  1
  Cu  Cu111  1  0.16611192  0.83628394  0.74719565  1
  Cu  Cu112  1  -0.00937925  0.33546876  0.00472858  1
  Cu  Cu113  1  0.49762041  0.16484486  0.75056403  1
  Cu  Cu114  1  0.32914330  0.33021924  -0.00008382  1
  Se  Se115  1  0.07552879  0.07874494  0.04618296  1
  Se  Se116  1  0.08720506  0.08429661  0.55483696  1
  Se  Se117  1  0.07323805  0.41117282  0.06698981  1
  Se  Se118  1  0.08340580  0.41183317  0.56028022  1
  Se  Se119  1  0.09086487  0.74846187  0.05529883  1
  Se  Se120  1  0.08000132  0.74450207  0.54805321  1
  Se  Se121  1  0.41257207  0.08243180  0.04817650  1
  Se  Se122  1  0.41009667  0.07011822  0.55898567  1
  Se  Se123  1  0.41056646  0.42130185  0.04687727  1
  Se  Se124  1  0.41743335  0.42171460  0.54552985  1
  Se  Se125  1  0.42269325  0.73983947  0.07162267  1
  Se  Se126  1  0.40797186  0.74196994  0.56374844  1
  Se  Se127  1  0.74265485  0.07437472  0.05643099  1
  Se  Se128  1  0.74705929  0.08082066  0.56429380  1
  Se  Se129  1  0.74581384  0.41693736  0.04989478  1
  Se  Se130  1  0.75589302  0.42443922  0.54784130  1
  Se  Se131  1  0.74937763  0.74818041  0.06302564  1
  Se  Se132  1  0.74150575  0.75122082  0.55135542  1
  Se  Se133  1  0.24237765  0.24603017  0.04750215  1
  Se  Se134  1  0.26108851  0.24540026  0.54788781  1
  Se  Se135  1  0.25969544  0.59324645  0.06395545  1
  Se  Se136  1  0.25476654  0.58534686  0.56023620  1
  Se  Se137  1  0.25545747  0.91442744  0.05249632  1
  Se  Se138  1  0.23847216  0.90318960  0.55487896  1
  Se  Se139  1  0.56590929  0.22863225  0.04849236  1
  Se  Se140  1  0.59394797  0.26483210  0.55670466  1
  Se  Se141  1  0.57887668  0.58824693  0.05907444  1
  Se  Se142  1  0.57703825  0.58123802  0.55013742  1
  Se  Se143  1  0.58937814  0.92598214  0.05596902  1
  Se  Se144  1  0.58306742  0.92110150  0.56642087  1
  Se  Se145  1  0.91196141  0.25630138  0.06703730  1
  Se  Se146  1  0.92812763  0.25712682  0.56194193  1
  Se  Se147  1  0.91782558  0.58111732  0.05715545  1
  Se  Se148  1  0.91141539  0.57946320  0.54844525  1
  Se  Se149  1  0.92906430  0.91854193  0.05525315  1
  Se  Se150  1  0.91455113  0.91860495  0.55319310  1
  Se  Se151  1  0.08920674  0.24970322  0.44758703  1
  Se  Se152  1  0.07634967  0.25534191  0.95108381  1
  Se  Se153  1  0.07512447  0.59040039  0.43342109  1
  Se  Se154  1  0.08236166  0.58656284  0.94230041  1
  Se  Se155  1  0.08407186  0.91470011  0.44918481  1
  Se  Se156  1  0.09362163  0.91253317  0.94684715  1
  Se  Se157  1  0.41904610  0.25496501  0.43291862  1
  Se  Se158  1  0.41174244  0.24999779  0.94332636  1
  Se  Se159  1  0.41438383  0.58625191  0.44428951  1
  Se  Se160  1  0.42236004  0.58585068  0.94742425  1
  Se  Se161  1  0.40809017  0.92502859  0.44472588  1
  Se  Se162  1  0.41115005  0.91982753  0.93541465  1
  Se  Se163  1  0.74573085  0.25296247  0.43841100  1
  Se  Se164  1  0.73543405  0.25835579  0.94487498  1
  Se  Se165  1  0.74855386  0.58450651  0.44415934  1
  Se  Se166  1  0.75404571  0.58469440  0.95058026  1
  Se  Se167  1  0.75232391  0.91246384  0.45438832  1
  Se  Se168  1  0.73892670  0.92190608  0.94215457  1
  Se  Se169  1  0.24923973  0.09365229  0.45273677  1
  Se  Se170  1  0.24747830  0.08670258  0.94032105  1
  Se  Se171  1  0.26116060  0.40679569  0.44047945  1
  Se  Se172  1  0.25321927  0.41696412  0.93873380  1
  Se  Se173  1  0.24465297  0.74967006  0.44402738  1
  Se  Se174  1  0.25568140  0.75161915  0.95186968  1
  Se  Se175  1  0.58979916  0.07511274  0.44688143  1
  Se  Se176  1  0.57332944  0.08436497  0.95067316  1
  Se  Se177  1  0.58167748  0.42276599  0.44235020  1
  Se  Se178  1  0.58616800  0.41275473  0.95473716  1
  Se  Se179  1  0.58004456  0.74347190  0.43669681  1
  Se  Se180  1  0.59276336  0.74736888  0.94416601  1
  Se  Se181  1  0.92758594  0.07864055  0.43762072  1
  Se  Se182  1  0.91812519  0.07072212  0.94061555  1
  Se  Se183  1  0.92031256  0.42034640  0.44531923  1
  Se  Se184  1  0.91050797  0.42206818  0.95322988  1
  Se  Se185  1  0.91034716  0.75368312  0.44356761  1
  Se  Se186  1  0.92979618  0.73816698  0.93801252  1
  Se  Se187  1  0.24516298  0.24372495  0.30792669  1
  Se  Se188  1  0.25164679  0.25006517  0.80151850  1
  Se  Se189  1  0.23436048  0.56655169  0.30318418  1
  Se  Se190  1  0.25873647  0.58582807  0.80431227  1
  Se  Se191  1  0.24989619  0.92453899  0.30721267  1
  Se  Se192  1  0.25038868  0.91768909  0.80187333  1
  Se  Se193  1  0.58250361  0.25023352  0.29508965  1
  Se  Se194  1  0.57510569  0.24292787  0.81467027  1
  Se  Se195  1  0.58945093  0.59192266  0.29935386  1
  Se  Se196  1  0.58885647  0.58282628  0.80743582  1
  Se  Se197  1  0.57497345  0.90910928  0.31636205  1
  Se  Se198  1  0.57952492  0.91406739  0.80343077  1
  Se  Se199  1  0.91785934  0.25702215  0.30315204  1
  Se  Se200  1  0.90866658  0.24109656  0.81883343  1
  Se  Se201  1  0.91297937  0.58148653  0.30375982  1
  Se  Se202  1  0.91571006  0.57900466  0.80711466  1
  Se  Se203  1  0.91185857  0.91465172  0.30901770  1
  Se  Se204  1  0.91746083  0.91110740  0.80165481  1
  Se  Se205  1  0.09155436  0.08418106  0.31083985  1
  Se  Se206  1  0.08242543  0.08094737  0.80313780  1
  Se  Se207  1  0.08228955  0.40921502  0.29724705  1
  Se  Se208  1  0.09653878  0.42389628  0.81115144  1
  Se  Se209  1  0.08212391  0.75561992  0.30129134  1
  Se  Se210  1  0.09128576  0.75070485  0.80940749  1
  Se  Se211  1  0.41375441  0.08456958  0.29753844  1
  Se  Se212  1  0.41337647  0.07900481  0.80079040  1
  Se  Se213  1  0.42472662  0.42837885  0.30380447  1
  Se  Se214  1  0.42124963  0.41279489  0.80355827  1
  Se  Se215  1  0.40699988  0.75180911  0.30306554  1
  Se  Se216  1  0.41384234  0.74488545  0.80495170  1
  Se  Se217  1  0.75654480  0.09269573  0.30942199  1
  Se  Se218  1  0.74427480  0.08071661  0.80524563  1
  Se  Se219  1  0.74193234  0.41510505  0.30499485  1
  Se  Se220  1  0.75374733  0.42938174  0.81007941  1
  Se  Se221  1  0.74887695  0.74821984  0.30308900  1
  Se  Se222  1  0.74888575  0.74488964  0.79854432  1
  Se  Se223  1  0.25350110  0.08152059  0.18952265  1
  Se  Se224  1  0.25036029  0.07787586  0.69593644  1
  Se  Se225  1  0.24293970  0.42234480  0.18717999  1
  Se  Se226  1  0.26013628  0.41145405  0.69664515  1
  Se  Se227  1  0.24911639  0.75671736  0.19863635  1
  Se  Se228  1  0.24909968  0.74708731  0.69890899  1
  Se  Se229  1  0.57766377  0.08633197  0.18669370  1
  Se  Se230  1  0.58783954  0.08295473  0.70251075  1
  Se  Se231  1  0.57737716  0.41381409  0.18692432  1
  Se  Se232  1  0.58113999  0.41921046  0.68933188  1
  Se  Se233  1  0.58813597  0.75361841  0.20574240  1
  Se  Se234  1  0.58220880  0.74775861  0.69883610  1
  Se  Se235  1  0.90722021  0.09578463  0.19071634  1
  Se  Se236  1  0.92083077  0.08020940  0.70243443  1
  Se  Se237  1  0.91216446  0.41738852  0.19954087  1
  Se  Se238  1  0.91500712  0.42001319  0.69342757  1
  Se  Se239  1  0.92041535  0.74465584  0.19912715  1
  Se  Se240  1  0.91111053  0.75614506  0.68200522  1
  Se  Se241  1  0.08279500  0.24484982  0.19756388  1
  Se  Se242  1  0.09286384  0.24798560  0.69057722  1
  Se  Se243  1  0.08849277  0.58081573  0.20296092  1
  Se  Se244  1  0.09681598  0.57230321  0.69067997  1
  Se  Se245  1  0.09147086  0.91479261  0.18424960  1
  Se  Se246  1  0.08014574  0.91786082  0.69477049  1
  Se  Se247  1  0.42167832  0.25251035  0.18074736  1
  Se  Se248  1  0.41902382  0.24586280  0.69168341  1
  Se  Se249  1  0.40190297  0.59349274  0.20377429  1
  Se  Se250  1  0.42052716  0.58134519  0.69822328  1
  Se  Se251  1  0.41559700  0.92051952  0.19897011  1
  Se  Se252  1  0.41201219  0.91565532  0.70043151  1
  Se  Se253  1  0.73940028  0.25447282  0.19744891  1
  Se  Se254  1  0.76105100  0.24363055  0.69453827  1
  Se  Se255  1  0.74370809  0.58146008  0.19564623  1
  Se  Se256  1  0.74618729  0.58584710  0.69108353  1
  Se  Se257  1  0.75778813  0.91188996  0.19179189  1
  Se  Se258  1  0.74708912  0.91855763  0.69826742  1
