# generated using pymatgen
data_In86Cu29Se144
_symmetry_space_group_name_H-M   'P 1'
_cell_length_a   17.58970117
_cell_length_b   17.59067079
_cell_length_c   23.44610802
_cell_angle_alpha   90.00947480
_cell_angle_beta   90.00261565
_cell_angle_gamma   90.01360986
_symmetry_Int_Tables_number   1
_chemical_formula_structural   In86Cu29Se144
_chemical_formula_sum   'In86 Cu29 Se144'
_cell_volume   7254.56882270
_cell_formula_units_Z   1
loop_
 _symmetry_equiv_pos_site_id
 _symmetry_equiv_pos_as_xyz
  1  'x, y, z'
loop_
 _atom_site_type_symbol
 _atom_site_label
 _atom_site_symmetry_multiplicity
 _atom_site_fract_x
 _atom_site_fract_y
 _atom_site_fract_z
 _atom_site_occupancy
  In  In0  1  -0.00827447  0.15579423  0.11641220  1
  In  In1  1  -0.02640217  0.18244694  0.65027313  1
  In  In2  1  -0.00319677  0.51004165  0.12214111  1
  In  In3  1  -0.00846906  0.50374546  0.63698556  1
  In  In4  1  0.00404983  0.82965808  0.12287028  1
  In  In5  1  -0.01229440  0.84576853  0.64927032  1
  In  In6  1  0.33110363  0.16356483  0.12003080  1
  In  In7  1  0.34119000  0.17760050  0.63238128  1
  In  In8  1  0.33936720  0.48868743  0.12379312  1
  In  In9  1  0.34436019  0.49046782  0.63577089  1
  In  In10  1  0.34570948  0.85206705  0.11819551  1
  In  In11  1  0.33766549  0.82248573  0.62785019  1
  In  In12  1  0.65815041  0.16048287  0.11301929  1
  In  In13  1  0.67348936  0.16202984  0.63484111  1
  In  In14  1  0.66090587  0.49996093  0.11287538  1
  In  In15  1  0.66107417  0.50878199  0.63307306  1
  In  In16  1  0.66896939  0.83879183  0.12532303  1
  In  In17  1  0.64726226  0.83532188  0.62452322  1
  In  In18  1  0.16504478  -0.00123977  0.36131368  1
  In  In19  1  0.16053651  0.00927085  0.88761092  1
  In  In20  1  0.16697967  0.32081979  0.37230031  1
  In  In21  1  0.16291044  0.32590414  0.87365301  1
  In  In22  1  0.16457225  0.67585912  0.37057558  1
  In  In23  1  0.17894963  0.66993576  0.87286986  1
  In  In24  1  0.49054730  -0.01345757  0.35475829  1
  In  In25  1  0.49635511  0.00488682  0.88462319  1
  In  In26  1  0.50234033  0.34079970  0.37382524  1
  In  In27  1  0.51034887  0.32734786  0.86972430  1
  In  In28  1  0.50015446  0.66089932  0.38079545  1
  In  In29  1  0.50172209  0.66928740  0.87968664  1
  In  In30  1  0.84233939  0.00685703  0.36769521  1
  In  In31  1  0.84783638  -0.00473991  0.86982779  1
  In  In32  1  0.81867038  0.33323792  0.37833556  1
  In  In33  1  0.83639207  0.33090466  0.87640791  1
  In  In34  1  0.84929799  0.65944961  0.37119465  1
  In  In35  1  0.81771488  0.65465984  0.86094711  1
  In  In36  1  0.00006312  0.15873911  0.37463359  1
  In  In37  1  -0.00151375  0.16807187  0.87422041  1
  In  In38  1  -0.00958353  0.51353807  0.37304191  1
  In  In39  1  -0.01027312  0.48481909  0.87088780  1
  In  In40  1  0.00385857  0.83367024  0.36566783  1
  In  In41  1  0.00271259  0.84248731  0.86724197  1
  In  In42  1  0.34080765  0.16869565  0.36044315  1
  In  In43  1  0.33535844  0.17411078  0.88322025  1
  In  In44  1  0.34943630  0.50156754  0.37233480  1
  In  In45  1  0.33976847  0.50090031  0.87312043  1
  In  In46  1  0.33468796  0.83787100  0.37117104  1
  In  In47  1  0.34398897  0.82196353  0.88805346  1
  In  In48  1  0.67603719  0.16761189  0.37619417  1
  In  In49  1  0.66261500  0.17415327  0.87789225  1
  In  In50  1  0.66003978  0.48895879  0.37686305  1
  In  In51  1  0.66987392  0.51038126  0.88148473  1
  In  In52  1  0.65703248  0.82990231  0.37232235  1
  In  In53  1  0.66588276  0.80872864  0.87694162  1
  In  In54  1  0.16616498  0.00067084  0.12108577  1
  In  In55  1  0.16091540  -0.01123213  0.62090882  1
  In  In56  1  0.19196283  0.32973306  0.11693562  1
  In  In57  1  0.16515626  0.33232960  0.63676580  1
  In  In58  1  0.14803293  0.66826752  0.12033749  1
  In  In59  1  0.16416595  0.67261981  0.63714047  1
  In  In60  1  0.50108662  -0.00318766  0.12830531  1
  In  In61  1  0.50697783  -0.01092739  0.62314323  1
  In  In62  1  0.47845702  0.31840419  0.10050451  1
  In  In63  1  0.48732396  0.34274670  0.64092306  1
  In  In64  1  0.50989985  0.66959333  0.10996115  1
  In  In65  1  0.50167721  0.66281581  0.62903470  1
  In  In66  1  0.82406328  0.00820951  0.12998940  1
  In  In67  1  0.82890592  0.01201414  0.62873202  1
  In  In68  1  0.83389303  0.33406684  0.11439807  1
  In  In69  1  0.82633376  0.32147550  0.64369902  1
  In  In70  1  0.83425454  0.66637610  0.11769174  1
  In  In71  1  0.83315140  0.67267906  0.64444481  1
  In  In72  1  0.16718296  0.83308804  0.49268058  1
  In  In73  1  0.16513250  0.15918205  0.49983892  1
  In  In74  1  0.00622483  0.33296892  0.24012844  1
  In  In75  1  0.82602651  0.50017458  0.49977770  1
  In  In76  1  0.82938050  0.83176375  -0.00341373  1
  In  In77  1  0.32766377  0.66754357  0.24622191  1
  In  In78  1  0.82643304  0.83480017  0.50546690  1
  In  In79  1  0.67164047  0.67056112  0.24054554  1
  In  In80  1  0.66917942  -0.00234177  0.75321292  1
  In  In81  1  0.17178650  0.49652543  0.50835120  1
  In  In82  1  0.16345156  0.49738727  -0.00406438  1
  In  In83  1  0.50893194  0.16651480  0.50335529  1
  In  In84  1  0.66508309  0.33551353  0.24846394  1
  In  In85  1  0.32767186  0.01089823  0.76289529  1
  Cu  Cu86  1  0.16807150  0.49930970  0.75637535  1
  Cu  Cu87  1  0.33895286  0.33797532  0.50482983  1
  Cu  Cu88  1  0.00357586  0.67065182  0.50775254  1
  Cu  Cu89  1  0.34808217  0.65974892  0.50725805  1
  Cu  Cu90  1  0.49494761  0.82959238  0.75553244  1
  Cu  Cu91  1  0.66625663  0.00256979  0.50055287  1
  Cu  Cu92  1  0.16476236  0.16008499  0.75806616  1
  Cu  Cu93  1  0.83372076  0.17079096  0.24803452  1
  Cu  Cu94  1  0.66852772  0.00485454  0.00050527  1
  Cu  Cu95  1  0.16333516  0.83491162  0.24310131  1
  Cu  Cu96  1  0.49944290  0.16536804  0.23637639  1
  Cu  Cu97  1  -0.00875140  0.66608597  -0.00608607  1
  Cu  Cu98  1  0.33478838  -0.00076740  0.00382763  1
  Cu  Cu99  1  0.50053645  0.49486891  0.24491633  1
  Cu  Cu100  1  0.32964067  0.66823433  -0.00050082  1
  Cu  Cu101  1  0.17338784  0.16627320  0.24357205  1
  Cu  Cu102  1  0.65844242  0.66492954  0.50335765  1
  Cu  Cu103  1  0.67053652  0.33812476  -0.00759975  1
  Cu  Cu104  1  -0.00856657  0.01271274  0.49986777  1
  Cu  Cu105  1  0.50293696  0.50569376  0.75910390  1
  Cu  Cu106  1  -0.01401674  0.32719772  0.51355741  1
  Cu  Cu107  1  0.84150403  0.83305324  0.24359744  1
  Cu  Cu108  1  0.34199632  0.00147296  0.49106245  1
  Cu  Cu109  1  0.16498364  0.49390342  0.24036894  1
  Cu  Cu110  1  0.00097257  0.32807275  -0.00383644  1
  Cu  Cu111  1  0.83127782  0.49477014  0.75478220  1
  Cu  Cu112  1  0.00087910  0.00102248  -0.00393307  1
  Cu  Cu113  1  0.66427874  0.33265736  0.50581151  1
  Cu  Cu114  1  0.17343253  0.83481579  0.75559974  1
  Se  Se115  1  0.08597080  0.08444792  0.04937169  1
  Se  Se116  1  0.07161124  0.08432731  0.56514613  1
  Se  Se117  1  0.07806206  0.40657162  0.06189205  1
  Se  Se118  1  0.07095714  0.40984485  0.56494391  1
  Se  Se119  1  0.07598195  0.74950469  0.04550392  1
  Se  Se120  1  0.07982841  0.75674432  0.56411406  1
  Se  Se121  1  0.42163184  0.07948589  0.05686096  1
  Se  Se122  1  0.40985630  0.07797411  0.56040527  1
  Se  Se123  1  0.42285108  0.43259798  0.04525816  1
  Se  Se124  1  0.42212293  0.41874560  0.55811523  1
  Se  Se125  1  0.41250856  0.75139055  0.05340353  1
  Se  Se126  1  0.42483385  0.75188911  0.55701830  1
  Se  Se127  1  0.75696738  0.08644513  0.05038568  1
  Se  Se128  1  0.74559419  0.08637391  0.55603270  1
  Se  Se129  1  0.75217507  0.41994734  0.04866757  1
  Se  Se130  1  0.74587069  0.41076963  0.56610526  1
  Se  Se131  1  0.73577890  0.74185578  0.05375192  1
  Se  Se132  1  0.74284003  0.73754895  0.56382123  1
  Se  Se133  1  0.26313830  0.24983371  0.04442389  1
  Se  Se134  1  0.25334204  0.25693750  0.55779647  1
  Se  Se135  1  0.25114657  0.58687994  0.06141214  1
  Se  Se136  1  0.25741155  0.59095039  0.56696996  1
  Se  Se137  1  0.24578241  0.91468002  0.05127817  1
  Se  Se138  1  0.26219830  0.92105477  0.55276823  1
  Se  Se139  1  0.58773318  0.25299973  0.04526519  1
  Se  Se140  1  0.58596961  0.25738737  0.57004008  1
  Se  Se141  1  0.57753669  0.57698275  0.04327175  1
  Se  Se142  1  0.58025496  0.57837386  0.55639571  1
  Se  Se143  1  0.58841790  0.92093800  0.05599590  1
  Se  Se144  1  0.58004117  0.91422728  0.54557265  1
  Se  Se145  1  0.91494452  0.24627260  0.04977152  1
  Se  Se146  1  0.90258109  0.24578263  0.56544393  1
  Se  Se147  1  0.91271693  0.58068040  0.04782424  1
  Se  Se148  1  0.91546944  0.59201833  0.56130637  1
  Se  Se149  1  0.91677096  0.92357825  0.05836257  1
  Se  Se150  1  0.92430992  0.92203797  0.56068209  1
  Se  Se151  1  0.07069092  0.25803084  0.44753668  1
  Se  Se152  1  0.08596606  0.24437856  0.94652788  1
  Se  Se153  1  0.08180378  0.59067428  0.44667300  1
  Se  Se154  1  0.07515859  0.58619568  0.93450482  1
  Se  Se155  1  0.07246097  0.93113474  0.44006547  1
  Se  Se156  1  0.08073923  0.91131011  0.94700174  1
  Se  Se157  1  0.41122455  0.25224429  0.44234033  1
  Se  Se158  1  0.43430355  0.24547681  0.94326312  1
  Se  Se159  1  0.42349274  0.57334262  0.45042001  1
  Se  Se160  1  0.41271895  0.58573786  0.94593400  1
  Se  Se161  1  0.42248473  0.91598329  0.43896740  1
  Se  Se162  1  0.41999595  0.91625131  0.95200017  1
  Se  Se163  1  0.74737485  0.25038348  0.45166726  1
  Se  Se164  1  0.75382169  0.24805450  0.94648885  1
  Se  Se165  1  0.74019982  0.59459158  0.43710236  1
  Se  Se166  1  0.75247552  0.59710970  0.94755034  1
  Se  Se167  1  0.74626735  0.92359397  0.43843465  1
  Se  Se168  1  0.74151359  0.92265394  0.93514976  1
  Se  Se169  1  0.25838654  0.07857223  0.43347007  1
  Se  Se170  1  0.25484354  0.08555819  0.95001585  1
  Se  Se171  1  0.25571768  0.40960132  0.44035932  1
  Se  Se172  1  0.25578756  0.40938270  0.93983023  1
  Se  Se173  1  0.26525547  0.73552606  0.44358066  1
  Se  Se174  1  0.24240534  0.75217169  0.95183019  1
  Se  Se175  1  0.58460385  0.07539104  0.43540909  1
  Se  Se176  1  0.58428059  0.08846411  0.94777957  1
  Se  Se177  1  0.58102741  0.41364717  0.45068417  1
  Se  Se178  1  0.58350517  0.41849788  0.94110992  1
  Se  Se179  1  0.58185678  0.74930455  0.44560652  1
  Se  Se180  1  0.56655178  0.76626864  0.94917240  1
  Se  Se181  1  0.90774971  0.09197011  0.44552332  1
  Se  Se182  1  0.91567750  0.08210079  0.94356288  1
  Se  Se183  1  0.92298048  0.41058763  0.44309967  1
  Se  Se184  1  0.91550668  0.41553970  0.95022122  1
  Se  Se185  1  0.92587047  0.74989040  0.44476520  1
  Se  Se186  1  0.91687501  0.74738658  0.93168997  1
  Se  Se187  1  0.25121654  0.25287628  0.29846331  1
  Se  Se188  1  0.25075703  0.24358093  0.80734380  1
  Se  Se189  1  0.24088820  0.57172592  0.30900850  1
  Se  Se190  1  0.25532976  0.58261669  0.80439728  1
  Se  Se191  1  0.24979349  0.91161923  0.29954466  1
  Se  Se192  1  0.24889815  0.91221144  0.82164456  1
  Se  Se193  1  0.57461887  0.24022942  0.30676160  1
  Se  Se194  1  0.60484124  0.25983034  0.79781300  1
  Se  Se195  1  0.58058875  0.57637630  0.30396375  1
  Se  Se196  1  0.58681051  0.59077386  0.80905388  1
  Se  Se197  1  0.59760869  0.91975882  0.29939798  1
  Se  Se198  1  0.57516478  0.91211610  0.81401545  1
  Se  Se199  1  0.91166743  0.25294393  0.30858165  1
  Se  Se200  1  0.92685419  0.26016001  0.80595345  1
  Se  Se201  1  0.92206561  0.58633346  0.29456323  1
  Se  Se202  1  0.91963272  0.57946177  0.80314964  1
  Se  Se203  1  0.92036890  0.91808530  0.30060719  1
  Se  Se204  1  0.91345412  0.91053146  0.79535384  1
  Se  Se205  1  0.08426590  0.09056770  0.29964349  1
  Se  Se206  1  0.08139054  0.07641017  0.80879836  1
  Se  Se207  1  0.08749800  0.42296819  0.31139749  1
  Se  Se208  1  0.08465535  0.41260402  0.80500802  1
  Se  Se209  1  0.08295855  0.74801695  0.29704651  1
  Se  Se210  1  0.08990413  0.75040284  0.80703131  1
  Se  Se211  1  0.41590645  0.08234811  0.29170610  1
  Se  Se212  1  0.42984663  0.09658979  0.80984014  1
  Se  Se213  1  0.41755513  0.41264190  0.29988314  1
  Se  Se214  1  0.42208161  0.41502794  0.80652806  1
  Se  Se215  1  0.42319963  0.74811435  0.30741400  1
  Se  Se216  1  0.41205209  0.74598096  0.80800443  1
  Se  Se217  1  0.75134773  0.08696738  0.30279364  1
  Se  Se218  1  0.75713077  0.08888016  0.81111644  1
  Se  Se219  1  0.75935549  0.42986112  0.30453533  1
  Se  Se220  1  0.74863745  0.41951965  0.81404373  1
  Se  Se221  1  0.76292596  0.75378583  0.30817299  1
  Se  Se222  1  0.75407190  0.75835620  0.79857188  1
  Se  Se223  1  0.25246742  0.07958090  0.19126006  1
  Se  Se224  1  0.24065054  0.08749779  0.68720361  1
  Se  Se225  1  0.25565162  0.41263849  0.19584545  1
  Se  Se226  1  0.25030356  0.41606484  0.70072841  1
  Se  Se227  1  0.24278646  0.75532691  0.18200245  1
  Se  Se228  1  0.25557872  0.75144757  0.70174591  1
  Se  Se229  1  0.59078333  0.08357107  0.19251393  1
  Se  Se230  1  0.57048854  0.08393053  0.69440577  1
  Se  Se231  1  0.57450600  0.41349259  0.18231028  1
  Se  Se232  1  0.58201690  0.42290997  0.70128613  1
  Se  Se233  1  0.57212891  0.75759035  0.19068774  1
  Se  Se234  1  0.58060181  0.75046088  0.69926606  1
  Se  Se235  1  0.91717851  0.08552672  0.19656581  1
  Se  Se236  1  0.91808280  0.06853492  0.70412084  1
  Se  Se237  1  0.90880704  0.42172738  0.18931820  1
  Se  Se238  1  0.91472587  0.41189349  0.70153321  1
  Se  Se239  1  0.91654419  0.74602751  0.18820009  1
  Se  Se240  1  0.93752246  0.73257876  0.70513523  1
  Se  Se241  1  0.09387816  0.24309721  0.18027722  1
  Se  Se242  1  0.08457944  0.24735999  0.70398052  1
  Se  Se243  1  0.08091025  0.58301865  0.19588414  1
  Se  Se244  1  0.08472106  0.58117703  0.70031323  1
  Se  Se245  1  0.08044685  0.91905727  0.19085286  1
  Se  Se246  1  0.09196503  0.92148556  0.70349711  1
  Se  Se247  1  0.41608696  0.25213658  0.18738846  1
  Se  Se248  1  0.41235138  0.25227750  0.70776981  1
  Se  Se249  1  0.42561987  0.58361237  0.18799079  1
  Se  Se250  1  0.41827023  0.58482520  0.70062637  1
  Se  Se251  1  0.41612333  0.91935429  0.19911197  1
  Se  Se252  1  0.41614982  0.91673788  0.69836294  1
  Se  Se253  1  0.75247361  0.24608108  0.18682631  1
  Se  Se254  1  0.72627103  0.25631955  0.70996161  1
  Se  Se255  1  0.75491550  0.57197106  0.18603119  1
  Se  Se256  1  0.74886070  0.58196035  0.70330596  1
  Se  Se257  1  0.75153038  0.91489284  0.19705974  1
  Se  Se258  1  0.75091820  0.90704016  0.68593815  1
