# generated using pymatgen
data_In86Cu29Se144
_symmetry_space_group_name_H-M   'P 1'
_cell_length_a   17.57665556
_cell_length_b   17.57969390
_cell_length_c   23.43805986
_cell_angle_alpha   90.00719956
_cell_angle_beta   90.01443484
_cell_angle_gamma   90.01394645
_symmetry_Int_Tables_number   1
_chemical_formula_structural   In86Cu29Se144
_chemical_formula_sum   'In86 Cu29 Se144'
_cell_volume   7242.17775420
_cell_formula_units_Z   1
loop_
 _symmetry_equiv_pos_site_id
 _symmetry_equiv_pos_as_xyz
  1  'x, y, z'
loop_
 _atom_site_type_symbol
 _atom_site_label
 _atom_site_symmetry_multiplicity
 _atom_site_fract_x
 _atom_site_fract_y
 _atom_site_fract_z
 _atom_site_occupancy
  In  In0  1  0.00151074  0.17183421  0.12375317  1
  In  In1  1  0.00359335  0.17331227  0.62115706  1
  In  In2  1  -0.01977031  0.49750409  0.11423831  1
  In  In3  1  -0.00069587  0.50352633  0.64352639  1
  In  In4  1  0.01516011  0.84359751  0.09939437  1
  In  In5  1  0.01083341  0.82433830  0.62995223  1
  In  In6  1  0.33951814  0.16841761  0.12054057  1
  In  In7  1  0.32258004  0.17994413  0.62807073  1
  In  In8  1  0.33551982  0.49806427  0.12910981  1
  In  In9  1  0.31820004  0.50877614  0.64854866  1
  In  In10  1  0.31934397  0.83089174  0.12632623  1
  In  In11  1  0.31213783  0.84199404  0.62452672  1
  In  In12  1  0.67203554  0.16980534  0.12321863  1
  In  In13  1  0.67521020  0.16011216  0.63306124  1
  In  In14  1  0.68446008  0.48751273  0.12826908  1
  In  In15  1  0.65626352  0.49401371  0.62632758  1
  In  In16  1  0.67561110  0.82760974  0.12970404  1
  In  In17  1  0.68327787  0.84156369  0.63210290  1
  In  In18  1  0.14756171  0.01501385  0.38061033  1
  In  In19  1  0.14904112  0.00498401  0.89332516  1
  In  In20  1  0.14179353  0.30470716  0.34641492  1
  In  In21  1  0.15427651  0.33239375  0.86153642  1
  In  In22  1  0.17387673  0.65935283  0.37789277  1
  In  In23  1  0.16618738  0.66764032  0.86841638  1
  In  In24  1  0.50686675  -0.00814777  0.37003331  1
  In  In25  1  0.51582157  0.00452306  0.87490307  1
  In  In26  1  0.49849666  0.33065463  0.36673946  1
  In  In27  1  0.50087713  0.32558809  0.87746166  1
  In  In28  1  0.49612936  0.66339849  0.36415885  1
  In  In29  1  0.48985019  0.66422426  0.87368166  1
  In  In30  1  0.84884806  0.00736212  0.36087896  1
  In  In31  1  0.83811543  0.01666251  0.89673802  1
  In  In32  1  0.82259596  0.32430925  0.36824848  1
  In  In33  1  0.83611357  0.33145722  0.87464073  1
  In  In34  1  0.83462008  0.68125662  0.36935506  1
  In  In35  1  0.85834809  0.64909910  0.90128073  1
  In  In36  1  -0.00429371  0.16346208  0.37090336  1
  In  In37  1  -0.02533420  0.18382678  0.90114888  1
  In  In38  1  0.01136576  0.49252652  0.37528176  1
  In  In39  1  -0.01827716  0.48566943  0.85046895  1
  In  In40  1  -0.00577914  0.84199853  0.37485111  1
  In  In41  1  0.01045705  0.81972678  0.89675074  1
  In  In42  1  0.31798276  0.16462679  0.36941074  1
  In  In43  1  0.32039913  0.17501700  0.88378437  1
  In  In44  1  0.32686511  0.49820472  0.36828593  1
  In  In45  1  0.32103180  0.49407878  0.86095842  1
  In  In46  1  0.32613907  0.82312263  0.37044427  1
  In  In47  1  0.32441593  0.81977946  0.87247395  1
  In  In48  1  0.67618441  0.17208368  0.36468184  1
  In  In49  1  0.67379028  0.17013750  0.88215068  1
  In  In50  1  0.66370840  0.49818916  0.36598511  1
  In  In51  1  0.68837954  0.48203695  0.88083918  1
  In  In52  1  0.68136051  0.84142392  0.35769739  1
  In  In53  1  0.67151664  0.84738177  0.87446420  1
  In  In54  1  0.15877912  0.00161925  0.11789030  1
  In  In55  1  0.15893702  0.00139420  0.61431694  1
  In  In56  1  0.17573680  0.32179739  0.13475541  1
  In  In57  1  0.16435897  0.33590572  0.63289606  1
  In  In58  1  0.16039550  0.68348206  0.12506667  1
  In  In59  1  0.15666712  0.67614811  0.63939385  1
  In  In60  1  0.50276512  0.01940304  0.12204288  1
  In  In61  1  0.51121378  0.01104742  0.62700063  1
  In  In62  1  0.51557917  0.32013660  0.12754884  1
  In  In63  1  0.49222410  0.33811426  0.63389972  1
  In  In64  1  0.49635154  0.67143637  0.12742730  1
  In  In65  1  0.49954233  0.65219737  0.62483446  1
  In  In66  1  0.84220585  -0.00484011  0.11904967  1
  In  In67  1  0.82107617  0.00096037  0.63144584  1
  In  In68  1  0.83339182  0.33343167  0.12158560  1
  In  In69  1  0.84892584  0.32467963  0.63982520  1
  In  In70  1  0.83580960  0.65932228  0.11246218  1
  In  In71  1  0.84299550  0.67225271  0.63344228  1
  In  In72  1  0.83732192  0.49792129  0.51369200  1
  In  In73  1  0.33663747  0.00104282  0.74971885  1
  In  In74  1  0.16657033  0.49836808  0.50429470  1
  In  In75  1  0.33008920  -0.00088240  0.24314015  1
  In  In76  1  0.66998266  0.66472986  0.75508603  1
  In  In77  1  -0.00625952  0.00337205  0.76555042  1
  In  In78  1  0.49060719  0.16661267  0.50267711  1
  In  In79  1  0.15941735  0.49808410  -0.00858963  1
  In  In80  1  0.84255104  0.84139213  0.49928235  1
  In  In81  1  0.49886811  0.83112314  0.49268964  1
  In  In82  1  0.49319821  0.49041630  0.50295035  1
  In  In83  1  -0.00331482  0.66387622  0.24309326  1
  In  In84  1  0.50517212  0.49528695  -0.00817460  1
  In  In85  1  0.49835621  0.83687257  -0.00855524  1
  Cu  Cu86  1  -0.00305411  0.32855158  0.49753444  1
  Cu  Cu87  1  0.82901025  0.49970803  0.24453547  1
  Cu  Cu88  1  0.00203230  0.33515971  -0.00324957  1
  Cu  Cu89  1  0.67133152  0.00742866  0.50006703  1
  Cu  Cu90  1  0.83345902  0.16701571  0.76190904  1
  Cu  Cu91  1  0.16687620  0.49886087  0.24699014  1
  Cu  Cu92  1  0.83525820  0.16518201  0.24226794  1
  Cu  Cu93  1  0.67021458  0.31974632  0.49912092  1
  Cu  Cu94  1  0.50319332  0.49401530  0.75441337  1
  Cu  Cu95  1  0.66424261  0.00841233  0.00574295  1
  Cu  Cu96  1  0.31844803  0.00181929  0.49801913  1
  Cu  Cu97  1  0.50275601  0.50645032  0.24374659  1
  Cu  Cu98  1  0.32867158  0.67227208  0.50082387  1
  Cu  Cu99  1  0.66225185  0.65956927  0.00248617  1
  Cu  Cu100  1  0.50372271  0.17059682  0.24508296  1
  Cu  Cu101  1  0.33512468  0.33018573  0.00331529  1
  Cu  Cu102  1  0.50088845  0.83129455  0.75308453  1
  Cu  Cu103  1  -0.00427680  0.00386242  0.49627795  1
  Cu  Cu104  1  0.16445180  0.83828633  0.75725214  1
  Cu  Cu105  1  0.33053233  0.00082814  0.00119449  1
  Cu  Cu106  1  0.83687824  0.83560395  0.76116139  1
  Cu  Cu107  1  0.32117578  0.66483144  -0.00141685  1
  Cu  Cu108  1  0.31460741  0.33245577  0.50104248  1
  Cu  Cu109  1  0.15988463  0.17081383  0.75373160  1
  Cu  Cu110  1  0.50608893  0.83459620  0.24829781  1
  Cu  Cu111  1  0.51003230  0.16642637  0.75411836  1
  Cu  Cu112  1  0.16117814  0.83499540  0.24651515  1
  Cu  Cu113  1  0.67762762  0.67078095  0.48807313  1
  Cu  Cu114  1  0.83692605  0.83292295  0.23838120  1
  Se  Se115  1  0.07164474  0.08168502  0.05013261  1
  Se  Se116  1  0.07935843  0.08916101  0.54927356  1
  Se  Se117  1  0.08300820  0.40867503  0.06156217  1
  Se  Se118  1  0.06802152  0.41327664  0.56233277  1
  Se  Se119  1  0.07583606  0.73141613  0.04441557  1
  Se  Se120  1  0.09258853  0.75181494  0.55839365  1
  Se  Se121  1  0.41762757  0.08601000  0.04792369  1
  Se  Se122  1  0.40112105  0.07305538  0.56285861  1
  Se  Se123  1  0.41700713  0.41208870  0.05895299  1
  Se  Se124  1  0.39549210  0.41157678  0.56375141  1
  Se  Se125  1  0.40695436  0.74669212  0.05235910  1
  Se  Se126  1  0.41299333  0.74720000  0.56219060  1
  Se  Se127  1  0.75602957  0.08417655  0.05620776  1
  Se  Se128  1  0.75387179  0.08637417  0.55612061  1
  Se  Se129  1  0.76342443  0.42471644  0.05036147  1
  Se  Se130  1  0.74232207  0.40199942  0.56355388  1
  Se  Se131  1  0.74338005  0.74661190  0.05304755  1
  Se  Se132  1  0.74954641  0.74591219  0.55704296  1
  Se  Se133  1  0.24829945  0.24858091  0.05473476  1
  Se  Se134  1  0.23444147  0.24967865  0.55647438  1
  Se  Se135  1  0.24779701  0.58301040  0.06068063  1
  Se  Se136  1  0.25636007  0.58970741  0.56473755  1
  Se  Se137  1  0.24998624  0.91724839  0.05501525  1
  Se  Se138  1  0.23718268  0.91267644  0.54683531  1
  Se  Se139  1  0.58446731  0.24306120  0.05135716  1
  Se  Se140  1  0.58342413  0.25212080  0.56374240  1
  Se  Se141  1  0.58271182  0.58206814  0.06268339  1
  Se  Se142  1  0.59482629  0.59030662  0.54806184  1
  Se  Se143  1  0.58429188  0.91849513  0.06003861  1
  Se  Se144  1  0.59298595  0.91963904  0.55594915  1
  Se  Se145  1  0.91909384  0.25310137  0.05197901  1
  Se  Se146  1  0.91145348  0.25165205  0.55538002  1
  Se  Se147  1  0.92814764  0.59331698  0.04183976  1
  Se  Se148  1  0.93171039  0.59298855  0.56406784  1
  Se  Se149  1  0.89363150  0.89071791  0.04768383  1
  Se  Se150  1  0.92670450  0.92766345  0.56788041  1
  Se  Se151  1  0.07987226  0.25194728  0.43845384  1
  Se  Se152  1  0.09156810  0.25671613  0.94391710  1
  Se  Se153  1  0.07386711  0.59006812  0.44625172  1
  Se  Se154  1  0.07283748  0.57993381  0.92713142  1
  Se  Se155  1  0.07870953  0.91637979  0.44632524  1
  Se  Se156  1  0.09877101  0.90055313  0.96004057  1
  Se  Se157  1  0.40467684  0.25959430  0.44160840  1
  Se  Se158  1  0.41769574  0.24706448  0.94851617  1
  Se  Se159  1  0.41027551  0.58975146  0.44240790  1
  Se  Se160  1  0.39990496  0.58200638  0.94158954  1
  Se  Se161  1  0.40386346  0.92633461  0.43880057  1
  Se  Se162  1  0.40555995  0.92576003  0.93298915  1
  Se  Se163  1  0.75347836  0.24031985  0.44462762  1
  Se  Se164  1  0.78229824  0.22858989  0.94404587  1
  Se  Se165  1  0.75582161  0.58139892  0.43674574  1
  Se  Se166  1  0.74951452  0.57622140  0.95268571  1
  Se  Se167  1  0.74890732  0.92646244  0.43745368  1
  Se  Se168  1  0.74372867  0.92474543  0.95020661  1
  Se  Se169  1  0.24195578  0.09169359  0.44587118  1
  Se  Se170  1  0.24453705  0.08676058  0.95203498  1
  Se  Se171  1  0.24226432  0.41007202  0.43438758  1
  Se  Se172  1  0.25616995  0.40622349  0.93923946  1
  Se  Se173  1  0.24490557  0.75250051  0.44653677  1
  Se  Se174  1  0.24043609  0.74970529  0.94592390  1
  Se  Se175  1  0.58547462  0.08210946  0.44037149  1
  Se  Se176  1  0.58239966  0.08910621  0.94926785  1
  Se  Se177  1  0.59084210  0.40574618  0.44262129  1
  Se  Se178  1  0.60017347  0.39662866  0.94802015  1
  Se  Se179  1  0.59470471  0.74928006  0.43048336  1
  Se  Se180  1  0.59023588  0.73990338  0.93802030  1
  Se  Se181  1  0.91092891  0.08400724  0.44288460  1
  Se  Se182  1  0.95400995  0.05978531  0.95881297  1
  Se  Se183  1  0.91627711  0.41158452  0.44069923  1
  Se  Se184  1  0.92424571  0.41861649  0.93903524  1
  Se  Se185  1  0.92724620  0.74095267  0.44573335  1
  Se  Se186  1  0.88988804  0.77595251  0.95284101  1
  Se  Se187  1  0.26494856  0.25963726  0.29750524  1
  Se  Se188  1  0.25184852  0.24965973  0.80320288  1
  Se  Se189  1  0.24709961  0.58515854  0.30042188  1
  Se  Se190  1  0.26754454  0.60450263  0.80300892  1
  Se  Se191  1  0.23882739  0.91649636  0.30924521  1
  Se  Se192  1  0.24165361  0.92376607  0.81526081  1
  Se  Se193  1  0.58693289  0.25348393  0.30018488  1
  Se  Se194  1  0.59121666  0.24906975  0.80923473  1
  Se  Se195  1  0.58787731  0.58811219  0.29933244  1
  Se  Se196  1  0.58249745  0.57157030  0.81770952  1
  Se  Se197  1  0.58966032  0.92316570  0.29528658  1
  Se  Se198  1  0.58395689  0.91669462  0.80174147  1
  Se  Se199  1  0.91316444  0.24836865  0.30175900  1
  Se  Se200  1  0.92679924  0.24708496  0.80824317  1
  Se  Se201  1  0.91082052  0.57436054  0.30996008  1
  Se  Se202  1  0.90940479  0.59984056  0.80584146  1
  Se  Se203  1  0.92167786  0.91214937  0.29527066  1
  Se  Se204  1  0.91134600  0.91212710  0.82711742  1
  Se  Se205  1  0.08018182  0.08445559  0.30059248  1
  Se  Se206  1  0.08153315  0.09897756  0.81999933  1
  Se  Se207  1  0.07590261  0.41782281  0.29462054  1
  Se  Se208  1  0.10560487  0.44386247  0.79978089  1
  Se  Se209  1  0.08559716  0.75121132  0.30949522  1
  Se  Se210  1  0.07611638  0.75785788  0.80823883  1
  Se  Se211  1  0.42406307  0.08798560  0.30637957  1
  Se  Se212  1  0.42097441  0.09113068  0.81259627  1
  Se  Se213  1  0.42280813  0.42549183  0.30395913  1
  Se  Se214  1  0.42036495  0.41089929  0.80773747  1
  Se  Se215  1  0.41760351  0.75537014  0.30035448  1
  Se  Se216  1  0.41551169  0.74945857  0.80247851  1
  Se  Se217  1  0.75186648  0.08135295  0.29767251  1
  Se  Se218  1  0.75624764  0.07952808  0.81553607  1
  Se  Se219  1  0.74755004  0.41510513  0.30036275  1
  Se  Se220  1  0.75733999  0.41177634  0.80119528  1
  Se  Se221  1  0.75465748  0.74756128  0.29172198  1
  Se  Se222  1  0.75748610  0.74985881  0.81851083  1
  Se  Se223  1  0.24119508  0.09103994  0.18756318  1
  Se  Se224  1  0.23537647  0.08571587  0.69343531  1
  Se  Se225  1  0.25450919  0.41567722  0.19786514  1
  Se  Se226  1  0.26415716  0.39516875  0.70138745  1
  Se  Se227  1  0.24900740  0.74789535  0.20081267  1
  Se  Se228  1  0.25011302  0.75858901  0.70182097  1
  Se  Se229  1  0.58890379  0.08612324  0.19536831  1
  Se  Se230  1  0.59139296  0.07866613  0.70342554  1
  Se  Se231  1  0.58452661  0.41955478  0.19250314  1
  Se  Se232  1  0.58561467  0.41110513  0.70067146  1
  Se  Se233  1  0.58518729  0.74786860  0.19477910  1
  Se  Se234  1  0.58131865  0.75412321  0.68799539  1
  Se  Se235  1  0.91923870  0.08190937  0.18963508  1
  Se  Se236  1  0.91188217  0.08922190  0.69534738  1
  Se  Se237  1  0.91496703  0.41814655  0.19337461  1
  Se  Se238  1  0.91053458  0.42357638  0.70590803  1
  Se  Se239  1  0.91862607  0.75575682  0.17831180  1
  Se  Se240  1  0.91913287  0.75897828  0.70204321  1
  Se  Se241  1  0.07392091  0.25721809  0.19692888  1
  Se  Se242  1  0.07601637  0.25172780  0.69787990  1
  Se  Se243  1  0.08612210  0.57326188  0.18239756  1
  Se  Se244  1  0.10147840  0.57113856  0.70384020  1
  Se  Se245  1  0.08080043  0.91056756  0.18549014  1
  Se  Se246  1  0.08811951  0.92284225  0.69787525  1
  Se  Se247  1  0.41664258  0.25140235  0.19313452  1
  Se  Se248  1  0.42058708  0.24007388  0.69719235  1
  Se  Se249  1  0.41346334  0.58848840  0.19505491  1
  Se  Se250  1  0.42341174  0.58413484  0.70324569  1
  Se  Se251  1  0.42576694  0.91109625  0.18361871  1
  Se  Se252  1  0.42595522  0.90967538  0.68567351  1
  Se  Se253  1  0.75156667  0.25345270  0.19402394  1
  Se  Se254  1  0.75275121  0.24649731  0.70161365  1
  Se  Se255  1  0.75491756  0.58958698  0.19032182  1
  Se  Se256  1  0.75359935  0.57625285  0.68904066  1
  Se  Se257  1  0.75227353  0.92233062  0.19224115  1
  Se  Se258  1  0.75264040  0.91993000  0.70943416  1
