# generated using pymatgen
data_In86Cu29Se144
_symmetry_space_group_name_H-M   'P 1'
_cell_length_a   17.58435975
_cell_length_b   17.57807795
_cell_length_c   23.44430462
_cell_angle_alpha   89.98987197
_cell_angle_beta   89.99907364
_cell_angle_gamma   89.98305945
_symmetry_Int_Tables_number   1
_chemical_formula_structural   In86Cu29Se144
_chemical_formula_sum   'In86 Cu29 Se144'
_cell_volume   7246.61645905
_cell_formula_units_Z   1
loop_
 _symmetry_equiv_pos_site_id
 _symmetry_equiv_pos_as_xyz
  1  'x, y, z'
loop_
 _atom_site_type_symbol
 _atom_site_label
 _atom_site_symmetry_multiplicity
 _atom_site_fract_x
 _atom_site_fract_y
 _atom_site_fract_z
 _atom_site_occupancy
  In  In0  1  -0.01182077  0.15408982  0.11672922  1
  In  In1  1  0.01779278  0.18134528  0.61727667  1
  In  In2  1  0.00524742  0.49936748  0.12964631  1
  In  In3  1  -0.00412745  0.48866735  0.62017809  1
  In  In4  1  0.01972102  0.85474447  0.11798649  1
  In  In5  1  -0.00935660  0.84645123  0.62214237  1
  In  In6  1  0.32722704  0.17838763  0.12828542  1
  In  In7  1  0.31934016  0.17175091  0.64031096  1
  In  In8  1  0.33862461  0.48708592  0.13394443  1
  In  In9  1  0.31557622  0.49107899  0.61384381  1
  In  In10  1  0.30580613  0.84960440  0.14830197  1
  In  In11  1  0.33739063  0.83537310  0.62663985  1
  In  In12  1  0.67322192  0.15770925  0.13200690  1
  In  In13  1  0.66045126  0.15059215  0.62371104  1
  In  In14  1  0.65752851  0.51166248  0.13227627  1
  In  In15  1  0.68223935  0.49488675  0.62490159  1
  In  In16  1  0.67471951  0.82779507  0.12865124  1
  In  In17  1  0.66906014  0.83348746  0.62946298  1
  In  In18  1  0.18012876  0.01687894  0.36048708  1
  In  In19  1  0.17154948  -0.00225303  0.87583191  1
  In  In20  1  0.17320621  0.32989161  0.37953192  1
  In  In21  1  0.15544803  0.31614092  0.85626280  1
  In  In22  1  0.16566473  0.65769164  0.37027364  1
  In  In23  1  0.17857327  0.67222318  0.87963606  1
  In  In24  1  0.49484149  -0.00261124  0.36491315  1
  In  In25  1  0.50027684  0.00401887  0.86498681  1
  In  In26  1  0.49204559  0.32514779  0.36795983  1
  In  In27  1  0.49617574  0.34328498  0.87646427  1
  In  In28  1  0.50178558  0.66608635  0.36789497  1
  In  In29  1  0.49871646  0.65187406  0.87769120  1
  In  In30  1  0.83128591  -0.00078351  0.37576098  1
  In  In31  1  0.83303620  0.00228535  0.87850107  1
  In  In32  1  0.82794411  0.33888098  0.38295874  1
  In  In33  1  0.83004303  0.31745627  0.87446608  1
  In  In34  1  0.82561446  0.67449302  0.38010796  1
  In  In35  1  0.83735255  0.68220359  0.87814233  1
  In  In36  1  0.00928170  0.15677819  0.38077541  1
  In  In37  1  -0.00362098  0.16719993  0.87596104  1
  In  In38  1  0.00580204  0.49266405  0.38419902  1
  In  In39  1  0.01245872  0.49523367  0.87269886  1
  In  In40  1  -0.01290089  0.83234806  0.37645004  1
  In  In41  1  0.00284707  0.83345411  0.88417345  1
  In  In42  1  0.32079133  0.15963248  0.37246144  1
  In  In43  1  0.31746753  0.14858054  0.85622214  1
  In  In44  1  0.31216868  0.48879572  0.35299984  1
  In  In45  1  0.34327405  0.50016162  0.87754000  1
  In  In46  1  0.33198372  0.84190611  0.36490881  1
  In  In47  1  0.32002498  0.84704984  0.87877395  1
  In  In48  1  0.66976279  0.17219090  0.36968314  1
  In  In49  1  0.68230794  0.16556712  0.87383515  1
  In  In50  1  0.67265138  0.50722312  0.37160963  1
  In  In51  1  0.64995593  0.49304110  0.87422509  1
  In  In52  1  0.67324242  0.84078968  0.36665298  1
  In  In53  1  0.67764586  0.84234451  0.87404994  1
  In  In54  1  0.16197356  0.00457782  0.12563739  1
  In  In55  1  0.16886304  0.00920539  0.62738743  1
  In  In56  1  0.18168487  0.33077949  0.12804850  1
  In  In57  1  0.16617925  0.32312931  0.62727420  1
  In  In58  1  0.16285186  0.68079765  0.13360193  1
  In  In59  1  0.18017669  0.66513911  0.62223357  1
  In  In60  1  0.49748422  0.00158893  0.13216085  1
  In  In61  1  0.49509375  0.01515018  0.64348340  1
  In  In62  1  0.49361295  0.34483111  0.12801156  1
  In  In63  1  0.47980088  0.32382054  0.62453412  1
  In  In64  1  0.50164094  0.66364819  0.12560319  1
  In  In65  1  0.50246522  0.67960391  0.62724576  1
  In  In66  1  0.83555521  -0.00101219  0.12632750  1
  In  In67  1  0.82675650  -0.00351998  0.61676323  1
  In  In68  1  0.83691020  0.31614934  0.12785251  1
  In  In69  1  0.84376019  0.33686431  0.61586226  1
  In  In70  1  0.82044664  0.67186874  0.12919236  1
  In  In71  1  0.82860349  0.65955498  0.62031295  1
  In  In72  1  0.50088148  0.50012619  0.49958892  1
  In  In73  1  0.15891873  0.83542713  0.50114073  1
  In  In74  1  0.00233553  0.32689865  0.25998106  1
  In  In75  1  0.49894055  0.17002344  -0.00520547  1
  In  In76  1  0.49114089  0.16285313  0.50210429  1
  In  In77  1  0.17137639  0.50159301  0.00310975  1
  In  In78  1  0.49964383  0.82965361  0.00871701  1
  In  In79  1  -0.00259840  0.67183468  0.25146721  1
  In  In80  1  0.00174801  0.66581079  0.75854014  1
  In  In81  1  0.50201163  0.84131134  0.49155630  1
  In  In82  1  0.82853771  0.49981225  0.00406736  1
  In  In83  1  0.66209105  0.32564745  0.74581275  1
  In  In84  1  0.00467720  0.00363497  0.74479986  1
  In  In85  1  0.33985279  0.66560085  0.75186820  1
  Cu  Cu86  1  0.50693070  0.49815117  0.25175230  1
  Cu  Cu87  1  0.49997557  0.50351949  0.74852857  1
  Cu  Cu88  1  0.33135586  0.65984615  0.49160949  1
  Cu  Cu89  1  0.16533517  0.49103227  0.74365197  1
  Cu  Cu90  1  0.66849525  0.33152616  0.49789167  1
  Cu  Cu91  1  0.16293107  0.16689328  0.24846185  1
  Cu  Cu92  1  0.32664575  0.00049912  0.00163923  1
  Cu  Cu93  1  0.83075850  0.49774124  0.25591470  1
  Cu  Cu94  1  0.00436272  0.32854427  0.50044913  1
  Cu  Cu95  1  0.66481262  -0.00383628  0.49855060  1
  Cu  Cu96  1  0.49912177  0.17058352  0.24903505  1
  Cu  Cu97  1  0.68032731  0.00178284  0.00230993  1
  Cu  Cu98  1  -0.00410706  0.66237581  0.49705524  1
  Cu  Cu99  1  0.50907993  0.82975868  0.75471952  1
  Cu  Cu100  1  0.00059448  0.32506258  -0.00388221  1
  Cu  Cu101  1  0.67719868  0.66717457  0.50084880  1
  Cu  Cu102  1  0.00058635  0.00530072  -0.00088363  1
  Cu  Cu103  1  0.83019948  0.15761145  0.25092097  1
  Cu  Cu104  1  0.83327894  0.83784921  0.24951948  1
  Cu  Cu105  1  0.00015916  0.67816596  0.00707585  1
  Cu  Cu106  1  -0.00406178  0.00279329  0.49830432  1
  Cu  Cu107  1  0.82944973  0.49888341  0.74316749  1
  Cu  Cu108  1  0.66334245  0.33407264  0.00009200  1
  Cu  Cu109  1  0.50375991  0.83261563  0.24465317  1
  Cu  Cu110  1  0.66521097  0.66572780  0.00405806  1
  Cu  Cu111  1  0.82893305  0.83381924  0.74990851  1
  Cu  Cu112  1  0.32977556  0.33242912  -0.00006106  1
  Cu  Cu113  1  0.83846755  0.16372569  0.74832382  1
  Cu  Cu114  1  0.33312987  0.67285189  0.00588092  1
  Se  Se115  1  0.08723665  0.08785474  0.05098100  1
  Se  Se116  1  0.08391149  0.07894890  0.55347112  1
  Se  Se117  1  0.07655579  0.40671194  0.05832480  1
  Se  Se118  1  0.08724369  0.41087078  0.55621896  1
  Se  Se119  1  0.09274919  0.75602086  0.05453212  1
  Se  Se120  1  0.07195056  0.74080072  0.56292882  1
  Se  Se121  1  0.41136244  0.08026333  0.05855625  1
  Se  Se122  1  0.40726227  0.07544677  0.56572053  1
  Se  Se123  1  0.41209575  0.41738400  0.05239397  1
  Se  Se124  1  0.40482717  0.40465014  0.54813341  1
  Se  Se125  1  0.40225962  0.75554666  0.07160074  1
  Se  Se126  1  0.40989378  0.74308261  0.55064985  1
  Se  Se127  1  0.75728377  0.08880555  0.05680539  1
  Se  Se128  1  0.74644135  0.08449245  0.54882730  1
  Se  Se129  1  0.74295131  0.40937074  0.06554002  1
  Se  Se130  1  0.75305348  0.41640976  0.54916286  1
  Se  Se131  1  0.75071137  0.75091182  0.05153534  1
  Se  Se132  1  0.75144972  0.75512411  0.55737022  1
  Se  Se133  1  0.24627572  0.24775046  0.05047114  1
  Se  Se134  1  0.25235689  0.24291405  0.55945076  1
  Se  Se135  1  0.25490137  0.59042332  0.06723860  1
  Se  Se136  1  0.24373992  0.58203772  0.54482103  1
  Se  Se137  1  0.24893006  0.91761454  0.05936961  1
  Se  Se138  1  0.25588477  0.92076813  0.55775206  1
  Se  Se139  1  0.58564241  0.25268333  0.06263743  1
  Se  Se140  1  0.58689494  0.25604814  0.55917596  1
  Se  Se141  1  0.58051865  0.58115412  0.05293358  1
  Se  Se142  1  0.59091462  0.59168744  0.56000548  1
  Se  Se143  1  0.59250959  0.92653021  0.06047730  1
  Se  Se144  1  0.58116620  0.92540051  0.56307446  1
  Se  Se145  1  0.91292580  0.24694397  0.04923378  1
  Se  Se146  1  0.91729669  0.24374128  0.54962743  1
  Se  Se147  1  0.92361880  0.59067002  0.06261282  1
  Se  Se148  1  0.91591964  0.57853383  0.55480473  1
  Se  Se149  1  0.91897197  0.92031655  0.05407010  1
  Se  Se150  1  0.91116415  0.91570097  0.54639970  1
  Se  Se151  1  0.08764735  0.24722028  0.44558979  1
  Se  Se152  1  0.08744036  0.24919894  0.94086376  1
  Se  Se153  1  0.08620803  0.58542282  0.44643569  1
  Se  Se154  1  0.07592422  0.59482691  0.94501496  1
  Se  Se155  1  0.07755432  0.92526794  0.43645816  1
  Se  Se156  1  0.08603004  0.92154594  0.94684814  1
  Se  Se157  1  0.40430667  0.25380844  0.44116774  1
  Se  Se158  1  0.40380107  0.25192345  0.93536899  1
  Se  Se159  1  0.41223620  0.58130929  0.43288699  1
  Se  Se160  1  0.41218224  0.58577201  0.95250996  1
  Se  Se161  1  0.40337046  0.93057654  0.44178177  1
  Se  Se162  1  0.41806275  0.92640987  0.94524429  1
  Se  Se163  1  0.74924564  0.24439270  0.44635486  1
  Se  Se164  1  0.74848935  0.24930225  0.95087317  1
  Se  Se165  1  0.75461420  0.57851064  0.44745208  1
  Se  Se166  1  0.74232291  0.58651383  0.93851880  1
  Se  Se167  1  0.74832026  0.91311931  0.44501423  1
  Se  Se168  1  0.75879913  0.91344885  0.94961678  1
  Se  Se169  1  0.23975842  0.08472263  0.44580366  1
  Se  Se170  1  0.25140391  0.08653322  0.94364370  1
  Se  Se171  1  0.24696787  0.42966874  0.43978336  1
  Se  Se172  1  0.24851629  0.41065618  0.93644961  1
  Se  Se173  1  0.25334298  0.75027458  0.43819528  1
  Se  Se174  1  0.25259088  0.75613362  0.95105972  1
  Se  Se175  1  0.58313962  0.07639402  0.43884500  1
  Se  Se176  1  0.59374661  0.07472749  0.94158124  1
  Se  Se177  1  0.58658723  0.40840218  0.43732070  1
  Se  Se178  1  0.57702424  0.41801143  0.95173803  1
  Se  Se179  1  0.59353851  0.74356203  0.44056337  1
  Se  Se180  1  0.58692157  0.74615427  0.94089541  1
  Se  Se181  1  0.91155355  0.08512476  0.44506918  1
  Se  Se182  1  0.91445902  0.08695532  0.94609062  1
  Se  Se183  1  0.91842142  0.41413826  0.45054500  1
  Se  Se184  1  0.92118036  0.41303209  0.94106703  1
  Se  Se185  1  0.91280007  0.75080731  0.45002536  1
  Se  Se186  1  0.91433774  0.75717916  0.95308417  1
  Se  Se187  1  0.24528645  0.24973136  0.30301480  1
  Se  Se188  1  0.27430564  0.27068964  0.80399304  1
  Se  Se189  1  0.26542889  0.60772413  0.29737958  1
  Se  Se190  1  0.24174474  0.57288431  0.80695893  1
  Se  Se191  1  0.24661897  0.91801931  0.29663804  1
  Se  Se192  1  0.25612103  0.92664281  0.80151934  1
  Se  Se193  1  0.58477915  0.25265266  0.30133965  1
  Se  Se194  1  0.57842495  0.24385899  0.81483193  1
  Se  Se195  1  0.58919183  0.58601954  0.30161436  1
  Se  Se196  1  0.58378585  0.58423178  0.80177890  1
  Se  Se197  1  0.58418695  0.91781943  0.29983729  1
  Se  Se198  1  0.59021760  0.91755268  0.80524227  1
  Se  Se199  1  0.90669512  0.23918247  0.31466246  1
  Se  Se200  1  0.91754407  0.24924684  0.80243209  1
  Se  Se201  1  0.91405305  0.57710284  0.31427328  1
  Se  Se202  1  0.90564076  0.57252808  0.81282916  1
  Se  Se203  1  0.91575390  0.91908022  0.30434008  1
  Se  Se204  1  0.91673426  0.91043835  0.80777407  1
  Se  Se205  1  0.07582255  0.08371289  0.29840422  1
  Se  Se206  1  0.09078504  0.09166228  0.80701923  1
  Se  Se207  1  0.09262425  0.42560188  0.30759281  1
  Se  Se208  1  0.07596849  0.41299434  0.79582308  1
  Se  Se209  1  0.08831487  0.76084050  0.31008038  1
  Se  Se210  1  0.09524552  0.75974860  0.81048354  1
  Se  Se211  1  0.41375289  0.08886830  0.30290904  1
  Se  Se212  1  0.42025730  0.08260870  0.79592773  1
  Se  Se213  1  0.41762897  0.41495696  0.29925059  1
  Se  Se214  1  0.41713604  0.42070186  0.80173272  1
  Se  Se215  1  0.42190000  0.75602864  0.30427894  1
  Se  Se216  1  0.42300066  0.75760296  0.81714518  1
  Se  Se217  1  0.74460426  0.07728541  0.30520549  1
  Se  Se218  1  0.75661284  0.08037686  0.80240582  1
  Se  Se219  1  0.74809320  0.41161598  0.30679252  1
  Se  Se220  1  0.75207379  0.41827758  0.80793232  1
  Se  Se221  1  0.75266720  0.74895334  0.30136665  1
  Se  Se222  1  0.74971770  0.74839221  0.80487182  1
  Se  Se223  1  0.24943309  0.08761024  0.19335861  1
  Se  Se224  1  0.25238007  0.07097585  0.70424228  1
  Se  Se225  1  0.24402389  0.41820204  0.20095621  1
  Se  Se226  1  0.25391939  0.41153220  0.69330046  1
  Se  Se227  1  0.26124234  0.73115650  0.20613146  1
  Se  Se228  1  0.24513190  0.75641658  0.69685318  1
  Se  Se229  1  0.58216576  0.08326526  0.19900099  1
  Se  Se230  1  0.59523347  0.08202619  0.70607570  1
  Se  Se231  1  0.58841014  0.41327695  0.19682861  1
  Se  Se232  1  0.57392025  0.42035826  0.68488085  1
  Se  Se233  1  0.58605460  0.74659611  0.19328305  1
  Se  Se234  1  0.58938172  0.74695969  0.69944472  1
  Se  Se235  1  0.91880579  0.08081445  0.19712025  1
  Se  Se236  1  0.91472699  0.08845460  0.68189858  1
  Se  Se237  1  0.91148936  0.41948888  0.19552279  1
  Se  Se238  1  0.91447702  0.41417259  0.69476616  1
  Se  Se239  1  0.91505171  0.76168259  0.18607997  1
  Se  Se240  1  0.91298857  0.75311348  0.69294407  1
  Se  Se241  1  0.08060298  0.24411585  0.18650050  1
  Se  Se242  1  0.08155825  0.24962479  0.70040540  1
  Se  Se243  1  0.09198942  0.57584796  0.19858115  1
  Se  Se244  1  0.08823038  0.58116182  0.68941169  1
  Se  Se245  1  0.09164745  0.91720595  0.19934068  1
  Se  Se246  1  0.09225676  0.90440875  0.69073888  1
  Se  Se247  1  0.41622220  0.25519989  0.19523705  1
  Se  Se248  1  0.43221771  0.22940679  0.69833589  1
  Se  Se249  1  0.42332598  0.57791002  0.19499789  1
  Se  Se250  1  0.41825884  0.57505621  0.68192900  1
  Se  Se251  1  0.41531886  0.92042240  0.20087633  1
  Se  Se252  1  0.42374780  0.90650809  0.69774493  1
  Se  Se253  1  0.75044860  0.24773741  0.20059229  1
  Se  Se254  1  0.75820924  0.24343370  0.68505427  1
  Se  Se255  1  0.75182721  0.58302674  0.20014762  1
  Se  Se256  1  0.74677679  0.58710320  0.69664259  1
  Se  Se257  1  0.74839685  0.92001205  0.19548530  1
  Se  Se258  1  0.75208511  0.92123059  0.69497707  1
