# generated using pymatgen
data_In86Cu29Se144
_symmetry_space_group_name_H-M   'P 1'
_cell_length_a   17.56481452
_cell_length_b   17.56724215
_cell_length_c   23.41823045
_cell_angle_alpha   89.99291553
_cell_angle_beta   89.99246527
_cell_angle_gamma   89.98729102
_symmetry_Int_Tables_number   1
_chemical_formula_structural   In86Cu29Se144
_chemical_formula_sum   'In86 Cu29 Se144'
_cell_volume   7226.05418022
_cell_formula_units_Z   1
loop_
 _symmetry_equiv_pos_site_id
 _symmetry_equiv_pos_as_xyz
  1  'x, y, z'
loop_
 _atom_site_type_symbol
 _atom_site_label
 _atom_site_symmetry_multiplicity
 _atom_site_fract_x
 _atom_site_fract_y
 _atom_site_fract_z
 _atom_site_occupancy
  In  In0  1  0.00514014  0.15144062  0.12755969  1
  In  In1  1  -0.00740000  0.16070819  0.62133742  1
  In  In2  1  0.03246248  0.52827948  0.08288302  1
  In  In3  1  0.01884080  0.49406946  0.62996042  1
  In  In4  1  0.00167670  0.83500187  0.11645944  1
  In  In5  1  0.01606273  0.82440888  0.64733341  1
  In  In6  1  0.34011279  0.18575082  0.10898159  1
  In  In7  1  0.33743961  0.17661974  0.62847870  1
  In  In8  1  0.32508797  0.48163213  0.11288264  1
  In  In9  1  0.31742918  0.50503139  0.63307732  1
  In  In10  1  0.32456542  0.82475140  0.11185063  1
  In  In11  1  0.32114686  0.84643958  0.63236879  1
  In  In12  1  0.66855605  0.18259966  0.12688637  1
  In  In13  1  0.67567990  0.16112581  0.63826932  1
  In  In14  1  0.67019517  0.50230683  0.11619880  1
  In  In15  1  0.65429089  0.50007531  0.63025887  1
  In  In16  1  0.66005883  0.81892399  0.11527866  1
  In  In17  1  0.68052785  0.83231550  0.63260632  1
  In  In18  1  0.15621971  0.00408849  0.37649843  1
  In  In19  1  0.16336764  -0.00026868  0.87073711  1
  In  In20  1  0.17091207  0.33034282  0.37304942  1
  In  In21  1  0.17235914  0.32813897  0.89565396  1
  In  In22  1  0.15541229  0.66991195  0.37902820  1
  In  In23  1  0.14601503  0.67923831  0.89759007  1
  In  In24  1  0.49539286  0.00746429  0.37366749  1
  In  In25  1  0.51207660  -0.00725183  0.88199061  1
  In  In26  1  0.50520212  0.33740559  0.36092725  1
  In  In27  1  0.49734479  0.32893244  0.88081137  1
  In  In28  1  0.49691153  0.65322434  0.36395074  1
  In  In29  1  0.49418693  0.67298852  0.88428648  1
  In  In30  1  0.84861256  -0.00757561  0.37623401  1
  In  In31  1  0.82619559  -0.00998483  0.87094184  1
  In  In32  1  0.82405825  0.33206806  0.37303596  1
  In  In33  1  0.83484417  0.35356093  0.88127212  1
  In  In34  1  0.84080846  0.67565308  0.35787860  1
  In  In35  1  0.85541251  0.66176794  0.88997139  1
  In  In36  1  0.00771800  0.15794806  0.37830635  1
  In  In37  1  0.02190538  0.16862332  0.88074043  1
  In  In38  1  0.00482461  0.51210464  0.36941021  1
  In  In39  1  -0.00593026  0.50677456  0.89800355  1
  In  In40  1  0.01355565  0.83897314  0.35413475  1
  In  In41  1  0.00391114  0.82562141  0.87879103  1
  In  In42  1  0.31853185  0.16671078  0.37379986  1
  In  In43  1  0.32319993  0.18696822  0.88704550  1
  In  In44  1  0.33235970  0.48929734  0.36767293  1
  In  In45  1  0.33784128  0.48698816  0.89184149  1
  In  In46  1  0.31639327  0.81678847  0.37002572  1
  In  In47  1  0.33272303  0.83533660  0.87866361  1
  In  In48  1  0.66350334  0.18128308  0.37474455  1
  In  In49  1  0.65784117  0.15501225  0.87150706  1
  In  In50  1  0.67104807  0.49802762  0.35862753  1
  In  In51  1  0.67222072  0.49260712  0.87833529  1
  In  In52  1  0.67879948  0.83143834  0.36674412  1
  In  In53  1  0.66093323  0.84427284  0.87941311  1
  In  In54  1  0.15927392  -0.00566091  0.11837954  1
  In  In55  1  0.15546469  -0.00490333  0.62237054  1
  In  In56  1  0.17877607  0.35011728  0.09993634  1
  In  In57  1  0.17634596  0.33951189  0.62521150  1
  In  In58  1  0.15164705  0.67367182  0.12264449  1
  In  In59  1  0.15720186  0.65853598  0.62692374  1
  In  In60  1  0.49235025  -0.00434066  0.11344095  1
  In  In61  1  0.49671938  0.01287156  0.63582739  1
  In  In62  1  0.50097120  0.34163654  0.11507145  1
  In  In63  1  0.49844619  0.33278554  0.64122364  1
  In  In64  1  0.51027006  0.67159506  0.11425361  1
  In  In65  1  0.50811695  0.66337658  0.62733541  1
  In  In66  1  0.85832079  -0.00005251  0.12740252  1
  In  In67  1  0.83406639  0.00441884  0.63644161  1
  In  In68  1  0.82143819  0.33861354  0.12663340  1
  In  In69  1  0.84016389  0.32065918  0.62987339  1
  In  In70  1  0.84005343  0.66234122  0.11456833  1
  In  In71  1  0.83977607  0.68370794  0.62719931  1
  In  In72  1  0.49230756  0.83351173  0.50729544  1
  In  In73  1  0.33452982  0.00282474  0.76090679  1
  In  In74  1  0.32372282  0.65680933  0.23000376  1
  In  In75  1  0.67272107  0.67078049  0.75486170  1
  In  In76  1  0.49555507  0.17012200  0.50621076  1
  In  In77  1  0.32885531  0.66238732  0.76785588  1
  In  In78  1  0.84211901  0.83744316  0.50226719  1
  In  In79  1  0.67165753  0.00074049  0.24688675  1
  In  In80  1  0.00183611  0.34140083  0.23971783  1
  In  In81  1  0.84063374  0.49541679  0.49580735  1
  In  In82  1  0.48863195  0.48937373  0.48781028  1
  In  In83  1  0.82798678  0.16115713  0.00031655  1
  In  In84  1  0.32563291  0.00589774  0.25107937  1
  In  In85  1  0.00487157  0.33331465  0.75918860  1
  Cu  Cu86  1  0.33670939  0.66544517  0.00140179  1
  Cu  Cu87  1  0.50076736  0.18093583  0.23624671  1
  Cu  Cu88  1  -0.00055983  -0.00220355  0.50017107  1
  Cu  Cu89  1  0.32963083  0.33351204  0.49961049  1
  Cu  Cu90  1  0.49808918  0.49361483  0.76027180  1
  Cu  Cu91  1  0.83235820  0.82241613  0.23969470  1
  Cu  Cu92  1  0.00312281  -0.00574492  -0.00521954  1
  Cu  Cu93  1  0.17145204  0.17199551  0.75462606  1
  Cu  Cu94  1  0.00942345  0.32521258  0.49992299  1
  Cu  Cu95  1  0.49772316  0.83058931  0.23940809  1
  Cu  Cu96  1  0.17345163  0.17421184  0.24687496  1
  Cu  Cu97  1  0.16799945  0.49854638  0.76194513  1
  Cu  Cu98  1  0.66778694  -0.00103229  0.00263920  1
  Cu  Cu99  1  0.66046991  0.33089819  -0.00200289  1
  Cu  Cu100  1  0.84115902  0.83161868  0.75829070  1
  Cu  Cu101  1  0.32885365  0.00721456  -0.00483967  1
  Cu  Cu102  1  0.50962189  0.49917722  0.23894201  1
  Cu  Cu103  1  0.83950149  0.50786384  0.75996071  1
  Cu  Cu104  1  0.83773702  0.16673866  0.24880591  1
  Cu  Cu105  1  0.31818447  -0.01025468  0.49745814  1
  Cu  Cu106  1  0.83251395  0.17078577  0.75684740  1
  Cu  Cu107  1  0.66123220  0.66300838  0.48426136  1
  Cu  Cu108  1  0.67564514  0.32740542  0.50203108  1
  Cu  Cu109  1  0.00030272  0.66770461  0.50138861  1
  Cu  Cu110  1  0.49800616  0.17078660  0.75902251  1
  Cu  Cu111  1  0.67228977  0.66521542  -0.00597310  1
  Cu  Cu112  1  0.83309974  0.50241707  0.23887333  1
  Cu  Cu113  1  0.67240476  0.00692262  0.51354094  1
  Cu  Cu114  1  0.31463117  0.67019664  0.50401084  1
  Se  Se115  1  0.08170712  0.08205226  0.04816237  1
  Se  Se116  1  0.08201213  0.08448215  0.55300754  1
  Se  Se117  1  0.05679271  0.39067036  0.04185865  1
  Se  Se118  1  0.08684865  0.41277034  0.55407331  1
  Se  Se119  1  0.08322650  0.75450978  0.04562141  1
  Se  Se120  1  0.07626115  0.74937027  0.56237540  1
  Se  Se121  1  0.41636642  0.08617919  0.04817426  1
  Se  Se122  1  0.40207029  0.07019205  0.55688928  1
  Se  Se123  1  0.41227615  0.40910505  0.04176023  1
  Se  Se124  1  0.41001745  0.41113776  0.56458169  1
  Se  Se125  1  0.42294947  0.75462687  0.04878921  1
  Se  Se126  1  0.40233878  0.73982576  0.56653815  1
  Se  Se127  1  0.74492839  0.07376958  0.06901141  1
  Se  Se128  1  0.75763776  0.08891514  0.56294665  1
  Se  Se129  1  0.74852211  0.41242903  0.04773354  1
  Se  Se130  1  0.74628713  0.41552811  0.56307426  1
  Se  Se131  1  0.75405561  0.74977716  0.04780907  1
  Se  Se132  1  0.73893485  0.74076295  0.55033109  1
  Se  Se133  1  0.23251708  0.23540244  0.04433997  1
  Se  Se134  1  0.25157588  0.24816451  0.55612846  1
  Se  Se135  1  0.25514081  0.59525678  0.06434816  1
  Se  Se136  1  0.24102700  0.57733348  0.55622510  1
  Se  Se137  1  0.24908641  0.91990104  0.04913643  1
  Se  Se138  1  0.23823325  0.90863285  0.55432791  1
  Se  Se139  1  0.58179199  0.24493799  0.05211037  1
  Se  Se140  1  0.58906521  0.25795977  0.56571692  1
  Se  Se141  1  0.58579758  0.58226044  0.04591320  1
  Se  Se142  1  0.58461134  0.58296373  0.54730638  1
  Se  Se143  1  0.58158748  0.91259244  0.05130707  1
  Se  Se144  1  0.58801848  0.92375014  0.56718038  1
  Se  Se145  1  0.91164813  0.24256107  0.06830250  1
  Se  Se146  1  0.91757460  0.25139921  0.55220093  1
  Se  Se147  1  0.90636565  0.57562033  0.03963991  1
  Se  Se148  1  0.92136341  0.58731090  0.56351301  1
  Se  Se149  1  0.91334902  0.91699831  0.04687540  1
  Se  Se150  1  0.92743239  0.91952441  0.56928397  1
  Se  Se151  1  0.09131291  0.24560686  0.44248943  1
  Se  Se152  1  0.06809669  0.26171586  0.95822969  1
  Se  Se153  1  0.08140512  0.57999755  0.44959168  1
  Se  Se154  1  0.09074183  0.57506566  0.96497206  1
  Se  Se155  1  0.07346496  0.91280764  0.43954697  1
  Se  Se156  1  0.09054444  0.91396068  0.94301637  1
  Se  Se157  1  0.41557591  0.25948686  0.43751425  1
  Se  Se158  1  0.41199655  0.26013614  0.95599798  1
  Se  Se159  1  0.40049405  0.59578950  0.44141982  1
  Se  Se160  1  0.42146574  0.58158027  0.95139457  1
  Se  Se161  1  0.40496277  0.91765010  0.43675414  1
  Se  Se162  1  0.41448454  0.92025967  0.94579524  1
  Se  Se163  1  0.75583045  0.24371029  0.44762653  1
  Se  Se164  1  0.74322911  0.25307145  0.93702816  1
  Se  Se165  1  0.75107090  0.58509967  0.43228386  1
  Se  Se166  1  0.75510426  0.57885900  0.94402185  1
  Se  Se167  1  0.74083889  0.92442873  0.44508746  1
  Se  Se168  1  0.75182700  0.91698820  0.94965631  1
  Se  Se169  1  0.24476766  0.08237967  0.44467580  1
  Se  Se170  1  0.24294052  0.08488662  0.94029907  1
  Se  Se171  1  0.25098154  0.41797270  0.44316326  1
  Se  Se172  1  0.24396677  0.42207600  0.96179212  1
  Se  Se173  1  0.23579374  0.75510722  0.44943316  1
  Se  Se174  1  0.25459073  0.75226888  0.94961331  1
  Se  Se175  1  0.58923077  0.07752843  0.44682763  1
  Se  Se176  1  0.58433731  0.08468300  0.95185319  1
  Se  Se177  1  0.59789340  0.40772020  0.43802391  1
  Se  Se178  1  0.58126365  0.41905281  0.94559951  1
  Se  Se179  1  0.57879200  0.75054534  0.43374219  1
  Se  Se180  1  0.58601415  0.75275877  0.94721425  1
  Se  Se181  1  0.91627063  0.08206162  0.44732822  1
  Se  Se182  1  0.92116879  0.07796657  0.93680512  1
  Se  Se183  1  0.93105441  0.40512137  0.43547537  1
  Se  Se184  1  0.92332331  0.40486336  0.95996303  1
  Se  Se185  1  0.92216357  0.74532631  0.43809423  1
  Se  Se186  1  0.92089683  0.75761392  0.95658972  1
  Se  Se187  1  0.25746556  0.25658469  0.29968640  1
  Se  Se188  1  0.24312726  0.26083853  0.81109092  1
  Se  Se189  1  0.24585410  0.58250961  0.30846529  1
  Se  Se190  1  0.24064418  0.57620274  0.82928228  1
  Se  Se191  1  0.23680282  0.91023822  0.30553846  1
  Se  Se192  1  0.23994035  0.90176766  0.80361619  1
  Se  Se193  1  0.58938671  0.25238027  0.29539351  1
  Se  Se194  1  0.58509963  0.25441126  0.80902600  1
  Se  Se195  1  0.58796643  0.58555434  0.29412418  1
  Se  Se196  1  0.57761776  0.58258782  0.81290175  1
  Se  Se197  1  0.57249752  0.91151233  0.30493022  1
  Se  Se198  1  0.58768690  0.92221430  0.80382101  1
  Se  Se199  1  0.91948792  0.24839812  0.30915365  1
  Se  Se200  1  0.91198594  0.24584487  0.82050524  1
  Se  Se201  1  0.91678816  0.58006989  0.29683339  1
  Se  Se202  1  0.92832970  0.58065989  0.81426103  1
  Se  Se203  1  0.90913494  0.91101363  0.29662619  1
  Se  Se204  1  0.92489927  0.91592641  0.80972017  1
  Se  Se205  1  0.08942596  0.08985923  0.30051017  1
  Se  Se206  1  0.08436831  0.08714300  0.80123073  1
  Se  Se207  1  0.09228316  0.42432553  0.30464532  1
  Se  Se208  1  0.08597551  0.42225455  0.82426770  1
  Se  Se209  1  0.07081972  0.72699558  0.29956267  1
  Se  Se210  1  0.08082226  0.73662843  0.80988446  1
  Se  Se211  1  0.42591056  0.10141755  0.30256818  1
  Se  Se212  1  0.41883085  0.09409563  0.82242675  1
  Se  Se213  1  0.42202594  0.42165630  0.29564873  1
  Se  Se214  1  0.41128277  0.41340961  0.81198255  1
  Se  Se215  1  0.41562292  0.74953103  0.29906101  1
  Se  Se216  1  0.42825293  0.76167144  0.80718009  1
  Se  Se217  1  0.75710843  0.08845136  0.31303407  1
  Se  Se218  1  0.74943279  0.08114761  0.80431177  1
  Se  Se219  1  0.75702002  0.41343377  0.29488829  1
  Se  Se220  1  0.75309843  0.41934632  0.80245042  1
  Se  Se221  1  0.74251906  0.74452950  0.29218431  1
  Se  Se222  1  0.76138295  0.75156294  0.82041733  1
  Se  Se223  1  0.24966341  0.09403525  0.18192734  1
  Se  Se224  1  0.24792463  0.08903592  0.69313965  1
  Se  Se225  1  0.24162852  0.41378758  0.18734373  1
  Se  Se226  1  0.24818881  0.41654143  0.70466647  1
  Se  Se227  1  0.23547602  0.76580517  0.19111397  1
  Se  Se228  1  0.24797441  0.74470327  0.69431642  1
  Se  Se229  1  0.57511216  0.08494746  0.18680703  1
  Se  Se230  1  0.58200769  0.08785684  0.70495091  1
  Se  Se231  1  0.59099953  0.41388338  0.18603763  1
  Se  Se232  1  0.58630471  0.41653949  0.70511868  1
  Se  Se233  1  0.58476225  0.74580600  0.19375866  1
  Se  Se234  1  0.57683280  0.75891624  0.69564841  1
  Se  Se235  1  0.92488898  0.08039543  0.20557301  1
  Se  Se236  1  0.91840854  0.09089145  0.70181107  1
  Se  Se237  1  0.91798317  0.43089635  0.17704206  1
  Se  Se238  1  0.91396480  0.42351007  0.69609382  1
  Se  Se239  1  0.91980753  0.74660658  0.18524089  1
  Se  Se240  1  0.92111684  0.74230935  0.70729353  1
  Se  Se241  1  0.09331597  0.24901997  0.18301575  1
  Se  Se242  1  0.08815517  0.24715307  0.69068379  1
  Se  Se243  1  0.08256022  0.56885711  0.18106670  1
  Se  Se244  1  0.08566207  0.57864032  0.70488054  1
  Se  Se245  1  0.06965152  0.92663275  0.18906880  1
  Se  Se246  1  0.08422991  0.92877534  0.70365607  1
  Se  Se247  1  0.41396887  0.26193049  0.18659718  1
  Se  Se248  1  0.41080941  0.25152032  0.70632084  1
  Se  Se249  1  0.42650391  0.57331703  0.17755697  1
  Se  Se250  1  0.42284972  0.57879235  0.69788692  1
  Se  Se251  1  0.41232644  0.91250622  0.18776071  1
  Se  Se252  1  0.42471560  0.91043281  0.69808398  1
  Se  Se253  1  0.75272097  0.25149473  0.20133071  1
  Se  Se254  1  0.75124951  0.25582232  0.70302580  1
  Se  Se255  1  0.75049782  0.58646159  0.18609198  1
  Se  Se256  1  0.75996721  0.57956508  0.69030398  1
  Se  Se257  1  0.75413281  0.90973894  0.18274792  1
  Se  Se258  1  0.75610289  0.91398610  0.70413428  1
