# generated using pymatgen
data_In86Cu29Se144
_symmetry_space_group_name_H-M   'P 1'
_cell_length_a   17.56374117
_cell_length_b   17.56603016
_cell_length_c   23.41835223
_cell_angle_alpha   90.00177348
_cell_angle_beta   90.00281375
_cell_angle_gamma   90.00468440
_symmetry_Int_Tables_number   1
_chemical_formula_structural   In86Cu29Se144
_chemical_formula_sum   'In86 Cu29 Se144'
_cell_volume   7225.15193278
_cell_formula_units_Z   1
loop_
 _symmetry_equiv_pos_site_id
 _symmetry_equiv_pos_as_xyz
  1  'x, y, z'
loop_
 _atom_site_type_symbol
 _atom_site_label
 _atom_site_symmetry_multiplicity
 _atom_site_fract_x
 _atom_site_fract_y
 _atom_site_fract_z
 _atom_site_occupancy
  In  In0  1  0.01792524  0.19001290  0.10488120  1
  In  In1  1  0.00699291  0.14625288  0.63076151  1
  In  In2  1  0.00692788  0.49896465  0.11908890  1
  In  In3  1  -0.00284225  0.49261442  0.62953507  1
  In  In4  1  -0.00671509  0.83006797  0.12015729  1
  In  In5  1  0.02515394  0.86306950  0.60033514  1
  In  In6  1  0.34202745  0.17052643  0.11005199  1
  In  In7  1  0.32835576  0.16617167  0.62436000  1
  In  In8  1  0.32117287  0.51357808  0.13109625  1
  In  In9  1  0.33538977  0.50176706  0.64269229  1
  In  In10  1  0.30852227  0.79749885  0.08655337  1
  In  In11  1  0.33038561  0.83835436  0.63476006  1
  In  In12  1  0.67152444  0.17406544  0.11880530  1
  In  In13  1  0.66063765  0.18429030  0.62365246  1
  In  In14  1  0.66745804  0.48764604  0.14029480  1
  In  In15  1  0.66423262  0.50029622  0.62505241  1
  In  In16  1  0.65703884  0.82384251  0.11807402  1
  In  In17  1  0.67340011  0.82266203  0.62081211  1
  In  In18  1  0.16550641  -0.00443324  0.38730242  1
  In  In19  1  0.17031588  0.00248977  0.87875498  1
  In  In20  1  0.16542916  0.32777423  0.36576140  1
  In  In21  1  0.17833468  0.31615531  0.89439743  1
  In  In22  1  0.17296131  0.67752244  0.36786032  1
  In  In23  1  0.18632208  0.66111952  0.89492668  1
  In  In24  1  0.51005591  0.00763615  0.38060152  1
  In  In25  1  0.46743310  0.01679037  0.90397328  1
  In  In26  1  0.48774049  0.32450752  0.35739320  1
  In  In27  1  0.47707043  0.33548172  0.87670373  1
  In  In28  1  0.48638504  0.65804561  0.35675358  1
  In  In29  1  0.49464633  0.67378208  0.88115924  1
  In  In30  1  0.83125543  -0.00236929  0.37616428  1
  In  In31  1  0.85145600  -0.01439820  0.88018566  1
  In  In32  1  0.83768640  0.33604199  0.36072397  1
  In  In33  1  0.84578166  0.32398384  0.90047416  1
  In  In34  1  0.83668500  0.66888836  0.36157132  1
  In  In35  1  0.83751136  0.66396242  0.88971466  1
  In  In36  1  0.00128905  0.16926821  0.37104586  1
  In  In37  1  0.02898129  0.15496893  0.89622658  1
  In  In38  1  -0.00017893  0.49676680  0.36273180  1
  In  In39  1  0.00583787  0.48881785  0.90176682  1
  In  In40  1  0.01175646  0.82213269  0.37935963  1
  In  In41  1  0.00342108  0.83599327  0.87924626  1
  In  In42  1  0.32868207  0.17087144  0.37585885  1
  In  In43  1  0.32592745  0.16750613  0.87963481  1
  In  In44  1  0.33697152  0.50205498  0.36155266  1
  In  In45  1  0.33574465  0.49373699  0.87278734  1
  In  In46  1  0.31568442  0.82024124  0.37372047  1
  In  In47  1  0.33219754  0.83499879  0.88015026  1
  In  In48  1  0.65761672  0.16181502  0.37214102  1
  In  In49  1  0.65862248  0.16973468  0.88210917  1
  In  In50  1  0.65555012  0.49706155  0.35051367  1
  In  In51  1  0.66739438  0.50946649  0.88258535  1
  In  In52  1  0.67194990  0.83563199  0.36988297  1
  In  In53  1  0.67201265  0.82963931  0.88018426  1
  In  In54  1  0.17991781  -0.00736563  0.10539456  1
  In  In55  1  0.17036444  0.00214837  0.62760632  1
  In  In56  1  0.16312218  0.34135756  0.12179370  1
  In  In57  1  0.18784744  0.33611694  0.62475237  1
  In  In58  1  0.16608726  0.66116878  0.12282902  1
  In  In59  1  0.16818299  0.67765508  0.62628941  1
  In  In60  1  0.49056241  -0.00545870  0.10703257  1
  In  In61  1  0.48121707  -0.00217778  0.62871881  1
  In  In62  1  0.50359559  0.33005963  0.13543375  1
  In  In63  1  0.49704525  0.32654982  0.62605747  1
  In  In64  1  0.48979295  0.66757353  0.13681877  1
  In  In65  1  0.49286866  0.66660288  0.62803780  1
  In  In66  1  0.83505528  0.00374404  0.11780389  1
  In  In67  1  0.85143187  -0.00187824  0.63075000  1
  In  In68  1  0.83753578  0.33314096  0.11965823  1
  In  In69  1  0.82887305  0.33829059  0.62692221  1
  In  In70  1  0.83615021  0.66679596  0.12700039  1
  In  In71  1  0.81685388  0.67555715  0.62478447  1
  In  In72  1  0.33548565  -0.00256156  0.23748677  1
  In  In73  1  0.66748884  0.00279225  0.25058782  1
  In  In74  1  0.49709788  0.84007100  0.50113410  1
  In  In75  1  0.00103268  0.00200649  0.24779494  1
  In  In76  1  0.84093623  0.15729433  0.49514661  1
  In  In77  1  0.65592499  -0.00220281  0.75635689  1
  In  In78  1  0.49759742  0.50182429  0.00513837  1
  In  In79  1  0.01271137  0.32329605  0.76891134  1
  In  In80  1  0.65670920  0.66713748  0.76168698  1
  In  In81  1  0.17246794  0.50335921  0.49808342  1
  In  In82  1  0.83963652  0.50975453  0.48210321  1
  In  In83  1  -0.00091239  0.67183843  0.75215401  1
  In  In84  1  0.66323944  0.33883191  0.74883439  1
  In  In85  1  0.49441935  0.50194674  0.48691581  1
  Cu  Cu86  1  0.16698229  0.83623614  0.75285464  1
  Cu  Cu87  1  0.16259311  0.49790921  0.24559680  1
  Cu  Cu88  1  0.01028573  0.31727498  0.49825130  1
  Cu  Cu89  1  0.17037243  0.17583365  0.24271787  1
  Cu  Cu90  1  0.83393855  0.49814282  0.76568023  1
  Cu  Cu91  1  0.84528477  0.83655227  0.74923405  1
  Cu  Cu92  1  0.34064921  0.33012435  0.49717995  1
  Cu  Cu93  1  0.66925544  -0.00014336  -0.00449028  1
  Cu  Cu94  1  0.83956051  0.49966191  0.24035418  1
  Cu  Cu95  1  0.48487207  0.16453681  0.75232016  1
  Cu  Cu96  1  0.66676309  0.33478098  0.49332872  1
  Cu  Cu97  1  -0.00794892  0.66817913  0.49334906  1
  Cu  Cu98  1  -0.00133207  -0.00019331  0.00046117  1
  Cu  Cu99  1  0.66036005  0.33209729  0.01029609  1
  Cu  Cu100  1  0.67467434  0.65912319  0.00989262  1
  Cu  Cu101  1  0.00266257  0.67284389  0.00531813  1
  Cu  Cu102  1  0.17402376  0.50367567  0.76030556  1
  Cu  Cu103  1  0.48992818  0.82966475  0.24120191  1
  Cu  Cu104  1  0.33184882  0.33566348  0.00280627  1
  Cu  Cu105  1  0.83334316  0.82707365  0.24487446  1
  Cu  Cu106  1  0.17010805  0.16266615  0.75621668  1
  Cu  Cu107  1  0.84005967  0.17884193  0.23729508  1
  Cu  Cu108  1  0.50216040  0.16463611  0.24392580  1
  Cu  Cu109  1  0.66293255  0.67441265  0.49129052  1
  Cu  Cu110  1  0.66941706  0.00828095  0.50019306  1
  Cu  Cu111  1  0.16717176  0.82962845  0.24145282  1
  Cu  Cu112  1  0.33339583  0.00417961  0.50428728  1
  Cu  Cu113  1  0.83859010  0.15420292  0.76036717  1
  Cu  Cu114  1  0.49214110  0.83734102  0.76211746  1
  Se  Se115  1  0.08714471  0.08193115  0.04960979  1
  Se  Se116  1  0.08553849  0.07914858  0.55542332  1
  Se  Se117  1  0.07551013  0.40875467  0.04717894  1
  Se  Se118  1  0.08014853  0.40832292  0.55776675  1
  Se  Se119  1  0.08863760  0.75599169  0.05637235  1
  Se  Se120  1  0.07936796  0.74146953  0.55200265  1
  Se  Se121  1  0.40567013  0.07521206  0.04059612  1
  Se  Se122  1  0.41877732  0.08771099  0.55522673  1
  Se  Se123  1  0.40996842  0.41259765  0.06659598  1
  Se  Se124  1  0.41104595  0.41811594  0.55810781  1
  Se  Se125  1  0.43736748  0.74566587  0.05195465  1
  Se  Se126  1  0.40820851  0.74804853  0.55857816  1
  Se  Se127  1  0.74806347  0.08406231  0.05187566  1
  Se  Se128  1  0.74731996  0.08408215  0.56677660  1
  Se  Se129  1  0.74261194  0.41861193  0.06018721  1
  Se  Se130  1  0.74829892  0.41986130  0.54920620  1
  Se  Se131  1  0.75643360  0.75136182  0.05598764  1
  Se  Se132  1  0.75166324  0.75219936  0.54303970  1
  Se  Se133  1  0.24430325  0.25292238  0.05312885  1
  Se  Se134  1  0.25281111  0.25060136  0.54988085  1
  Se  Se135  1  0.25183911  0.58478653  0.05164037  1
  Se  Se136  1  0.25935092  0.58556920  0.56465702  1
  Se  Se137  1  0.27771841  0.92814854  0.04072937  1
  Se  Se138  1  0.25590654  0.91786699  0.55943695  1
  Se  Se139  1  0.57144688  0.24875159  0.05749696  1
  Se  Se140  1  0.58055574  0.25832138  0.54908402  1
  Se  Se141  1  0.59029921  0.58361796  0.06876701  1
  Se  Se142  1  0.58634026  0.59150155  0.55245452  1
  Se  Se143  1  0.58731680  0.91460743  0.04818761  1
  Se  Se144  1  0.59096059  0.92719995  0.56395777  1
  Se  Se145  1  0.89696115  0.23165089  0.05237436  1
  Se  Se146  1  0.92171391  0.25213259  0.56276346  1
  Se  Se147  1  0.91968789  0.58748759  0.05645458  1
  Se  Se148  1  0.91918296  0.58773368  0.56152840  1
  Se  Se149  1  0.91386786  0.91529112  0.05165854  1
  Se  Se150  1  0.89724150  0.90364614  0.55570701  1
  Se  Se151  1  0.09266060  0.24234134  0.44003514  1
  Se  Se152  1  0.05292240  0.28341768  0.94723482  1
  Se  Se153  1  0.07461355  0.58459717  0.43735280  1
  Se  Se154  1  0.08840787  0.58653241  0.95711213  1
  Se  Se155  1  0.08326973  0.90918841  0.44955339  1
  Se  Se156  1  0.08563904  0.91910475  0.94767462  1
  Se  Se157  1  0.42293012  0.24962166  0.44009378  1
  Se  Se158  1  0.41257506  0.24841062  0.95029812  1
  Se  Se159  1  0.39970177  0.59726306  0.43885567  1
  Se  Se160  1  0.40543766  0.58972440  0.94740053  1
  Se  Se161  1  0.40629815  0.92493625  0.43592763  1
  Se  Se162  1  0.44485165  0.88358214  0.94458637  1
  Se  Se163  1  0.75241151  0.25474772  0.43654333  1
  Se  Se164  1  0.74083447  0.24809067  0.95326149  1
  Se  Se165  1  0.73464967  0.58780518  0.42881096  1
  Se  Se166  1  0.75587202  0.57611970  0.95514090  1
  Se  Se167  1  0.74279558  0.92143583  0.44392964  1
  Se  Se168  1  0.75536970  0.91435913  0.94601680  1
  Se  Se169  1  0.25208773  0.08562880  0.44624757  1
  Se  Se170  1  0.22342364  0.10837507  0.94636856  1
  Se  Se171  1  0.26032124  0.41167563  0.43656327  1
  Se  Se172  1  0.25279989  0.42188534  0.94807554  1
  Se  Se173  1  0.23876923  0.74968518  0.45003466  1
  Se  Se174  1  0.24392105  0.76881651  0.95626076  1
  Se  Se175  1  0.58310727  0.09309956  0.45280067  1
  Se  Se176  1  0.57958605  0.08751076  0.95280324  1
  Se  Se177  1  0.58722726  0.41078204  0.42997273  1
  Se  Se178  1  0.58420151  0.40770847  0.94210900  1
  Se  Se179  1  0.57612470  0.74873266  0.43290632  1
  Se  Se180  1  0.59860972  0.73458978  0.94505691  1
  Se  Se181  1  0.93469242  0.06655122  0.44038008  1
  Se  Se182  1  0.91579011  0.08535188  0.94671360  1
  Se  Se183  1  0.93024995  0.40197480  0.43974199  1
  Se  Se184  1  0.89270869  0.43707349  0.95923297  1
  Se  Se185  1  0.90848894  0.74866020  0.43861986  1
  Se  Se186  1  0.91953199  0.75589235  0.94986382  1
  Se  Se187  1  0.25812980  0.25183900  0.29905718  1
  Se  Se188  1  0.24691140  0.25343015  0.80842563  1
  Se  Se189  1  0.24323513  0.58298505  0.30066827  1
  Se  Se190  1  0.25451073  0.59061000  0.81166275  1
  Se  Se191  1  0.23945368  0.91657866  0.30357370  1
  Se  Se192  1  0.25073559  0.91813909  0.80910430  1
  Se  Se193  1  0.58758303  0.24520942  0.29859503  1
  Se  Se194  1  0.57159665  0.24538055  0.80711625  1
  Se  Se195  1  0.58967017  0.60103822  0.29272754  1
  Se  Se196  1  0.56660302  0.56984838  0.81253295  1
  Se  Se197  1  0.56823144  0.91106229  0.30360273  1
  Se  Se198  1  0.57312666  0.91390203  0.82257943  1
  Se  Se199  1  0.92562534  0.25090518  0.29828855  1
  Se  Se200  1  0.91258330  0.23815477  0.82137817  1
  Se  Se201  1  0.92096061  0.58391811  0.29629816  1
  Se  Se202  1  0.92170944  0.57625221  0.81973351  1
  Se  Se203  1  0.91172926  0.90851812  0.30676792  1
  Se  Se204  1  0.93021075  0.91668919  0.80179745  1
  Se  Se205  1  0.10022979  0.08746808  0.30528028  1
  Se  Se206  1  0.08226247  0.08357214  0.80836043  1
  Se  Se207  1  0.08186622  0.41026473  0.29796524  1
  Se  Se208  1  0.09460138  0.42560935  0.82189489  1
  Se  Se209  1  0.08228021  0.75053400  0.29775886  1
  Se  Se210  1  0.09599463  0.74893128  0.81507915  1
  Se  Se211  1  0.42391585  0.08333574  0.30540717  1
  Se  Se212  1  0.41137399  0.08107828  0.81319742  1
  Se  Se213  1  0.42624944  0.42717797  0.29488828  1
  Se  Se214  1  0.41402312  0.41525264  0.79949181  1
  Se  Se215  1  0.40385138  0.75512479  0.29963885  1
  Se  Se216  1  0.41009063  0.74661782  0.80845287  1
  Se  Se217  1  0.76529606  0.09666835  0.30371628  1
  Se  Se218  1  0.75081555  0.08102168  0.81763319  1
  Se  Se219  1  0.75341682  0.41591568  0.29335924  1
  Se  Se220  1  0.75366190  0.41250789  0.82039962  1
  Se  Se221  1  0.74429007  0.74990386  0.29846354  1
  Se  Se222  1  0.76656823  0.75139692  0.80854556  1
  Se  Se223  1  0.24333875  0.09020500  0.18161947  1
  Se  Se224  1  0.25311741  0.08326976  0.69791288  1
  Se  Se225  1  0.24875824  0.41463414  0.19467384  1
  Se  Se226  1  0.25015927  0.41423078  0.70556809  1
  Se  Se227  1  0.25349258  0.75329193  0.18456192  1
  Se  Se228  1  0.24914093  0.74948813  0.70110554  1
  Se  Se229  1  0.57637044  0.07991682  0.18283595  1
  Se  Se230  1  0.57504438  0.09415436  0.69160049  1
  Se  Se231  1  0.57393620  0.41723612  0.20674059  1
  Se  Se232  1  0.56878750  0.43014888  0.69318006  1
  Se  Se233  1  0.58591655  0.75000345  0.19742370  1
  Se  Se234  1  0.57518334  0.76457426  0.69701969  1
  Se  Se235  1  0.92081412  0.09336591  0.18293365  1
  Se  Se236  1  0.92500582  0.07616846  0.70682933  1
  Se  Se237  1  0.92153736  0.41526103  0.18807449  1
  Se  Se238  1  0.91244355  0.41484454  0.70543778  1
  Se  Se239  1  0.92387144  0.74770103  0.19596034  1
  Se  Se240  1  0.91608330  0.75605724  0.68353620  1
  Se  Se241  1  0.08069514  0.25434565  0.19210104  1
  Se  Se242  1  0.09317822  0.24654742  0.69142501  1
  Se  Se243  1  0.08050713  0.58372903  0.19346131  1
  Se  Se244  1  0.08988131  0.57309174  0.69480865  1
  Se  Se245  1  0.09354295  0.91802186  0.18346493  1
  Se  Se246  1  0.08404756  0.91444137  0.69346881  1
  Se  Se247  1  0.41018773  0.24174907  0.19303815  1
  Se  Se248  1  0.40974635  0.25144304  0.69485898  1
  Se  Se249  1  0.41345244  0.57909778  0.20243692  1
  Se  Se250  1  0.42042870  0.59004762  0.70203892  1
  Se  Se251  1  0.41387786  0.90318253  0.17611072  1
  Se  Se252  1  0.41174437  0.92077281  0.70573245  1
  Se  Se253  1  0.74611081  0.25711506  0.19146245  1
  Se  Se254  1  0.76227084  0.23879275  0.69936537  1
  Se  Se255  1  0.75099539  0.58620381  0.19605197  1
  Se  Se256  1  0.75494952  0.57602789  0.70035345  1
  Se  Se257  1  0.75401474  0.91287648  0.18849556  1
  Se  Se258  1  0.75108658  0.91033190  0.69531460  1
