# generated using pymatgen
data_In86Cu29Se144
_symmetry_space_group_name_H-M   'P 1'
_cell_length_a   17.58386600
_cell_length_b   17.57885443
_cell_length_c   23.44340004
_cell_angle_alpha   89.99732693
_cell_angle_beta   90.03803922
_cell_angle_gamma   90.00879846
_symmetry_Int_Tables_number   1
_chemical_formula_structural   In86Cu29Se144
_chemical_formula_sum   'In86 Cu29 Se144'
_cell_volume   7246.45220883
_cell_formula_units_Z   1
loop_
 _symmetry_equiv_pos_site_id
 _symmetry_equiv_pos_as_xyz
  1  'x, y, z'
loop_
 _atom_site_type_symbol
 _atom_site_label
 _atom_site_symmetry_multiplicity
 _atom_site_fract_x
 _atom_site_fract_y
 _atom_site_fract_z
 _atom_site_occupancy
  In  In0  1  0.00771966  0.15153077  0.12670305  1
  In  In1  1  0.02890695  0.19966716  0.58372629  1
  In  In2  1  0.01549442  0.50095968  0.13008437  1
  In  In3  1  0.01372354  0.45194104  0.62771392  1
  In  In4  1  -0.00329640  0.83254403  0.12314884  1
  In  In5  1  0.01006999  0.82645030  0.62299710  1
  In  In6  1  0.32813121  0.16999394  0.13349066  1
  In  In7  1  0.33276065  0.16250272  0.62749571  1
  In  In8  1  0.34049391  0.50160412  0.13593470  1
  In  In9  1  0.33087044  0.49921920  0.62231759  1
  In  In10  1  0.33330860  0.83848826  0.12449028  1
  In  In11  1  0.33281325  0.83650540  0.62459254  1
  In  In12  1  0.66377865  0.16430036  0.12974232  1
  In  In13  1  0.66376183  0.16456054  0.62303150  1
  In  In14  1  0.66208938  0.49567494  0.12402540  1
  In  In15  1  0.65770023  0.49962815  0.62569276  1
  In  In16  1  0.67733126  0.85019572  0.10705857  1
  In  In17  1  0.66125570  0.85114281  0.63063820  1
  In  In18  1  0.17176320  -0.01186390  0.38887476  1
  In  In19  1  0.17129795  -0.00050961  0.87731255  1
  In  In20  1  0.17287966  0.31528129  0.39367574  1
  In  In21  1  0.15937954  0.31964103  0.86023494  1
  In  In22  1  0.17285847  0.66952271  0.37435142  1
  In  In23  1  0.17495472  0.67044604  0.87323540  1
  In  In24  1  0.49570304  0.00177102  0.37545649  1
  In  In25  1  0.49910516  -0.00325752  0.87200885  1
  In  In26  1  0.48943048  0.34296353  0.38887766  1
  In  In27  1  0.49474809  0.32779727  0.86095170  1
  In  In28  1  0.48519834  0.67843095  0.38307596  1
  In  In29  1  0.49802699  0.68495068  0.87556057  1
  In  In30  1  0.82764163  0.01505552  0.36862148  1
  In  In31  1  0.82319875  -0.00739521  0.87410483  1
  In  In32  1  0.83387648  0.32141671  0.38297254  1
  In  In33  1  0.82886684  0.33209660  0.85588380  1
  In  In34  1  0.84080223  0.65431707  0.37022423  1
  In  In35  1  0.83804634  0.67561541  0.87956814  1
  In  In36  1  -0.00276844  0.15773042  0.39690698  1
  In  In37  1  0.00289847  0.17528661  0.86917492  1
  In  In38  1  0.00425804  0.51158746  0.37435441  1
  In  In39  1  0.00718467  0.49627542  0.86831100  1
  In  In40  1  0.01915679  0.83390034  0.37821960  1
  In  In41  1  0.00293045  0.83515861  0.88381512  1
  In  In42  1  0.33251095  0.16620767  0.37972728  1
  In  In43  1  0.32407720  0.15461299  0.85928188  1
  In  In44  1  0.32933639  0.50024230  0.37878645  1
  In  In45  1  0.32738008  0.49766411  0.86341810  1
  In  In46  1  0.33350283  0.83641692  0.37385909  1
  In  In47  1  0.33303546  0.83727281  0.87523609  1
  In  In48  1  0.66932179  0.15240933  0.38010714  1
  In  In49  1  0.66227786  0.16112671  0.86411874  1
  In  In50  1  0.66889842  0.48658416  0.38016282  1
  In  In51  1  0.67241615  0.49624196  0.86805551  1
  In  In52  1  0.64663779  0.83358917  0.37325816  1
  In  In53  1  0.64686256  0.84825891  0.89551307  1
  In  In54  1  0.17842699  0.00995209  0.11979089  1
  In  In55  1  0.18517737  0.02617408  0.60628739  1
  In  In56  1  0.17861764  0.33543155  0.12644031  1
  In  In57  1  0.17229944  0.33339990  0.61923271  1
  In  In58  1  0.16150696  0.67549348  0.13300278  1
  In  In59  1  0.17805715  0.67420879  0.61798953  1
  In  In60  1  0.50847267  -0.01007726  0.13232781  1
  In  In61  1  0.49690373  -0.00056894  0.62453168  1
  In  In62  1  0.49606648  0.32291172  0.12825730  1
  In  In63  1  0.49729722  0.33182740  0.62466536  1
  In  In64  1  0.48973311  0.67304255  0.12653321  1
  In  In65  1  0.48510688  0.65605213  0.61676308  1
  In  In66  1  0.83542757  -0.00838106  0.12952332  1
  In  In67  1  0.81927189  0.00626448  0.62784565  1
  In  In68  1  0.82194042  0.33065938  0.12294982  1
  In  In69  1  0.85215708  0.31286010  0.63822651  1
  In  In70  1  0.82931040  0.68589054  0.13004421  1
  In  In71  1  0.83742339  0.65972149  0.62230337  1
  In  In72  1  0.83473389  0.49234400  0.50429272  1
  In  In73  1  0.00715679  0.00903286  0.73792279  1
  In  In74  1  0.00139022  0.65791720  0.74975211  1
  In  In75  1  0.49778526  0.15986690  -0.00623239  1
  In  In76  1  0.66566632  0.32401584  0.25308671  1
  In  In77  1  0.00517947  0.32987826  0.26753817  1
  In  In78  1  0.82842581  0.83375161  0.49964147  1
  In  In79  1  0.65975674  0.66787730  0.24765477  1
  In  In80  1  0.49741437  0.50859376  0.00327121  1
  In  In81  1  0.17030715  0.50685360  -0.00447730  1
  In  In82  1  0.66212445  0.67091378  0.75238427  1
  In  In83  1  0.83724983  0.15959626  0.00080888  1
  In  In84  1  0.00501876  -0.00447927  0.25729679  1
  In  In85  1  0.83931941  0.51158627  -0.01320146  1
  Cu  Cu86  1  0.32579903  0.32502710  0.00012615  1
  Cu  Cu87  1  0.49411951  0.50181780  0.26195034  1
  Cu  Cu88  1  0.17806608  0.50426301  0.25388668  1
  Cu  Cu89  1  0.17745158  0.83669730  0.74787879  1
  Cu  Cu90  1  0.50322457  0.16415956  0.74213041  1
  Cu  Cu91  1  0.49413499  0.83647007  0.75097045  1
  Cu  Cu92  1  0.33724521  0.33088264  0.50512117  1
  Cu  Cu93  1  0.33768076  -0.00125264  0.49991452  1
  Cu  Cu94  1  0.65742587  0.00102046  0.50185614  1
  Cu  Cu95  1  0.66173579  0.32959108  0.50495216  1
  Cu  Cu96  1  0.65818472  0.66811772  0.50256395  1
  Cu  Cu97  1  -0.00364855  0.67403985  0.00873290  1
  Cu  Cu98  1  0.16897536  0.16733262  0.25765040  1
  Cu  Cu99  1  0.00499712  0.32456199  -0.00771353  1
  Cu  Cu100  1  0.84630303  0.49761031  0.24810492  1
  Cu  Cu101  1  0.66687236  0.33305070  -0.01151569  1
  Cu  Cu102  1  0.17446982  0.83332877  0.25211539  1
  Cu  Cu103  1  0.00893570  -0.00150005  0.00090664  1
  Cu  Cu104  1  0.83421448  0.16434450  0.74624338  1
  Cu  Cu105  1  0.33242851  0.66969764  0.49764259  1
  Cu  Cu106  1  0.83167970  0.83740963  0.75325279  1
  Cu  Cu107  1  0.16481570  0.49539263  0.74310260  1
  Cu  Cu108  1  0.49240850  0.50052170  0.74193926  1
  Cu  Cu109  1  0.33137510  0.67553154  0.00041692  1
  Cu  Cu110  1  0.00940599  0.66352031  0.50043191  1
  Cu  Cu111  1  0.33626495  0.00014495  -0.00248299  1
  Cu  Cu112  1  0.83348147  0.83107314  0.24599737  1
  Cu  Cu113  1  0.48983257  0.16878113  0.25601781  1
  Cu  Cu114  1  0.49416571  0.84049882  0.25038965  1
  Se  Se115  1  0.08980934  0.08752923  0.05009448  1
  Se  Se116  1  0.06536049  0.06534835  0.54974442  1
  Se  Se117  1  0.08014620  0.40931726  0.05327640  1
  Se  Se118  1  0.10165311  0.42365600  0.54561076  1
  Se  Se119  1  0.08783528  0.75347851  0.05687368  1
  Se  Se120  1  0.09032946  0.75294912  0.54896936  1
  Se  Se121  1  0.41161717  0.08017492  0.06268178  1
  Se  Se122  1  0.41718466  0.08393640  0.55519675  1
  Se  Se123  1  0.40822405  0.40726406  0.05763362  1
  Se  Se124  1  0.41926465  0.41915419  0.55497068  1
  Se  Se125  1  0.41671186  0.75598566  0.05350182  1
  Se  Se126  1  0.41451749  0.75357742  0.55295114  1
  Se  Se127  1  0.74296752  0.07588564  0.06017535  1
  Se  Se128  1  0.74582337  0.08322311  0.55081409  1
  Se  Se129  1  0.74597921  0.41574513  0.04743102  1
  Se  Se130  1  0.74617740  0.40537115  0.56578377  1
  Se  Se131  1  0.75248720  0.74810701  0.05163959  1
  Se  Se132  1  0.73878792  0.74450908  0.56410476  1
  Se  Se133  1  0.24656268  0.24365402  0.05676204  1
  Se  Se134  1  0.25354546  0.24349820  0.55351441  1
  Se  Se135  1  0.25916788  0.58866881  0.06245498  1
  Se  Se136  1  0.25128233  0.58289967  0.55039890  1
  Se  Se137  1  0.25096272  0.91826285  0.05206186  1
  Se  Se138  1  0.25095295  0.91560911  0.55159306  1
  Se  Se139  1  0.59098857  0.25688240  0.05405280  1
  Se  Se140  1  0.57702382  0.24556163  0.55540765  1
  Se  Se141  1  0.59222774  0.59582346  0.06075056  1
  Se  Se142  1  0.57951256  0.57904046  0.55319433  1
  Se  Se143  1  0.57585557  0.92220834  0.04978437  1
  Se  Se144  1  0.57754568  0.91342188  0.55340853  1
  Se  Se145  1  0.92538049  0.25526940  0.06029192  1
  Se  Se146  1  0.90403593  0.25863360  0.54497975  1
  Se  Se147  1  0.92178853  0.58537548  0.06519196  1
  Se  Se148  1  0.93212591  0.58089455  0.56014610  1
  Se  Se149  1  0.92052199  0.92259332  0.05564951  1
  Se  Se150  1  0.91360621  0.91547342  0.56662366  1
  Se  Se151  1  0.07638080  0.24843121  0.46034476  1
  Se  Se152  1  0.09155166  0.24433008  0.94184571  1
  Se  Se153  1  0.09205206  0.58335950  0.44435803  1
  Se  Se154  1  0.07047965  0.59613336  0.94137214  1
  Se  Se155  1  0.06754801  0.92748707  0.45310884  1
  Se  Se156  1  0.09216319  0.91521978  0.94782787  1
  Se  Se157  1  0.41785750  0.24448819  0.45107232  1
  Se  Se158  1  0.40932259  0.25357996  0.93727305  1
  Se  Se159  1  0.41628415  0.58102472  0.44801654  1
  Se  Se160  1  0.40258033  0.58779446  0.93918161  1
  Se  Se161  1  0.41864395  0.91411783  0.44505531  1
  Se  Se162  1  0.41929613  0.91723098  0.94449366  1
  Se  Se163  1  0.74175211  0.24785611  0.44736126  1
  Se  Se164  1  0.75054057  0.25074248  0.93547158  1
  Se  Se165  1  0.74471041  0.59064015  0.44471596  1
  Se  Se166  1  0.73382292  0.59591699  0.93968316  1
  Se  Se167  1  0.73668439  0.92055374  0.43894280  1
  Se  Se168  1  0.76062649  0.90844229  0.94917982  1
  Se  Se169  1  0.25014335  0.08364224  0.45001436  1
  Se  Se170  1  0.25619172  0.08660065  0.94353695  1
  Se  Se171  1  0.25371781  0.41363087  0.45040188  1
  Se  Se172  1  0.25180003  0.40864407  0.93784010  1
  Se  Se173  1  0.25013149  0.75540981  0.44458006  1
  Se  Se174  1  0.24666395  0.75522062  0.94526992  1
  Se  Se175  1  0.57437639  0.08506691  0.44814371  1
  Se  Se176  1  0.59742548  0.07371977  0.94214785  1
  Se  Se177  1  0.58371809  0.41984443  0.45374972  1
  Se  Se178  1  0.57892480  0.41346802  0.93728270  1
  Se  Se179  1  0.57758220  0.75370595  0.44991150  1
  Se  Se180  1  0.57765021  0.74553390  0.95393256  1
  Se  Se181  1  0.90065150  0.07481453  0.45135860  1
  Se  Se182  1  0.92779925  0.07448578  0.93679480  1
  Se  Se183  1  0.92766449  0.41162973  0.43980848  1
  Se  Se184  1  0.92235583  0.40476404  0.93604029  1
  Se  Se185  1  0.92091418  0.73953391  0.44241713  1
  Se  Se186  1  0.91580594  0.75583887  0.95145783  1
  Se  Se187  1  0.24935918  0.25319812  0.31095208  1
  Se  Se188  1  0.26770507  0.26473642  0.80028164  1
  Se  Se189  1  0.26009810  0.59005765  0.30573493  1
  Se  Se190  1  0.24054800  0.58277693  0.79967312  1
  Se  Se191  1  0.24802166  0.92242879  0.30772699  1
  Se  Se192  1  0.25337478  0.92188644  0.80507719  1
  Se  Se193  1  0.57194591  0.24732218  0.31719394  1
  Se  Se194  1  0.58557768  0.24899919  0.79695924  1
  Se  Se195  1  0.58123959  0.57912859  0.31754555  1
  Se  Se196  1  0.56809239  0.57819705  0.80954457  1
  Se  Se197  1  0.58002570  0.92305157  0.30185185  1
  Se  Se198  1  0.58507114  0.91042563  0.80654241  1
  Se  Se199  1  0.91319842  0.23143014  0.31442841  1
  Se  Se200  1  0.92079591  0.24898897  0.79616501  1
  Se  Se201  1  0.92698159  0.58598231  0.29702944  1
  Se  Se202  1  0.90353041  0.57539500  0.80930950  1
  Se  Se203  1  0.90982507  0.90487074  0.31413927  1
  Se  Se204  1  0.92285501  0.91588564  0.80611830  1
  Se  Se205  1  0.08848847  0.08943939  0.31879112  1
  Se  Se206  1  0.09468893  0.09180858  0.80477894  1
  Se  Se207  1  0.10176903  0.42221642  0.31665581  1
  Se  Se208  1  0.07971591  0.41302765  0.79658329  1
  Se  Se209  1  0.08758439  0.75089164  0.30337750  1
  Se  Se210  1  0.08758844  0.76013743  0.80459008  1
  Se  Se211  1  0.40855822  0.08181551  0.30702906  1
  Se  Se212  1  0.42369600  0.08055726  0.80014286  1
  Se  Se213  1  0.41265623  0.41354657  0.31025619  1
  Se  Se214  1  0.41180331  0.41543992  0.79709402  1
  Se  Se215  1  0.41563674  0.75225138  0.30304740  1
  Se  Se216  1  0.41079292  0.75135221  0.80278641  1
  Se  Se217  1  0.73767082  0.08135014  0.29864928  1
  Se  Se218  1  0.75449198  0.08021691  0.80180326  1
  Se  Se219  1  0.76452001  0.41887855  0.30732875  1
  Se  Se220  1  0.73965560  0.41334716  0.79497656  1
  Se  Se221  1  0.75380054  0.75305609  0.31103809  1
  Se  Se222  1  0.75044899  0.76051634  0.81362037  1
  Se  Se223  1  0.24749170  0.08284010  0.20118239  1
  Se  Se224  1  0.24440454  0.08369040  0.69516993  1
  Se  Se225  1  0.25390324  0.41584951  0.19905793  1
  Se  Se226  1  0.25232632  0.41384657  0.69263948  1
  Se  Se227  1  0.25634514  0.75110696  0.19582093  1
  Se  Se228  1  0.25473280  0.74775340  0.69510593  1
  Se  Se229  1  0.57465173  0.09186532  0.19762129  1
  Se  Se230  1  0.58666864  0.07675597  0.69331721  1
  Se  Se231  1  0.57305618  0.42315768  0.19791103  1
  Se  Se232  1  0.57948028  0.41613050  0.69544848  1
  Se  Se233  1  0.57896776  0.76454650  0.18858025  1
  Se  Se234  1  0.57129345  0.75396442  0.68830561  1
  Se  Se235  1  0.91285345  0.08666251  0.19785837  1
  Se  Se236  1  0.91619748  0.09678735  0.68053643  1
  Se  Se237  1  0.91905242  0.41000982  0.18956412  1
  Se  Se238  1  0.90209509  0.43004728  0.69400682  1
  Se  Se239  1  0.92447952  0.75001511  0.19928109  1
  Se  Se240  1  0.90921643  0.75624143  0.69390801  1
  Se  Se241  1  0.08845809  0.24548170  0.19539285  1
  Se  Se242  1  0.07110367  0.25848577  0.67891474  1
  Se  Se243  1  0.08902717  0.58320349  0.20180950  1
  Se  Se244  1  0.08615497  0.57639664  0.68132158  1
  Se  Se245  1  0.09352109  0.91420163  0.19061013  1
  Se  Se246  1  0.09864343  0.91331149  0.68563297  1
  Se  Se247  1  0.41110667  0.25552131  0.20142056  1
  Se  Se248  1  0.41644514  0.24861077  0.69447083  1
  Se  Se249  1  0.42189781  0.58796142  0.20177069  1
  Se  Se250  1  0.40754588  0.58702002  0.69488120  1
  Se  Se251  1  0.40933554  0.92347068  0.19733605  1
  Se  Se252  1  0.41270808  0.91992412  0.69579036  1
  Se  Se253  1  0.76395101  0.23653644  0.19774174  1
  Se  Se254  1  0.74501004  0.24628745  0.69555997  1
  Se  Se255  1  0.75713731  0.57335173  0.19158739  1
  Se  Se256  1  0.75303517  0.58062399  0.69318546  1
  Se  Se257  1  0.74633240  0.91138621  0.19485009  1
  Se  Se258  1  0.74773539  0.92195827  0.70265544  1
