# generated using pymatgen
data_In86Cu29Se144
_symmetry_space_group_name_H-M   'P 1'
_cell_length_a   17.58413473
_cell_length_b   17.58166224
_cell_length_c   23.43972463
_cell_angle_alpha   90.01238036
_cell_angle_beta   90.00651190
_cell_angle_gamma   90.01703118
_symmetry_Int_Tables_number   1
_chemical_formula_structural   In86Cu29Se144
_chemical_formula_sum   'In86 Cu29 Se144'
_cell_volume   7246.58529671
_cell_formula_units_Z   1
loop_
 _symmetry_equiv_pos_site_id
 _symmetry_equiv_pos_as_xyz
  1  'x, y, z'
loop_
 _atom_site_type_symbol
 _atom_site_label
 _atom_site_symmetry_multiplicity
 _atom_site_fract_x
 _atom_site_fract_y
 _atom_site_fract_z
 _atom_site_occupancy
  In  In0  1  -0.01339162  0.17620489  0.14156023  1
  In  In1  1  0.00784187  0.14324817  0.62476707  1
  In  In2  1  -0.00926495  0.49865444  0.12748652  1
  In  In3  1  -0.00503063  0.49169128  0.61533742  1
  In  In4  1  0.00609482  0.84294556  0.12008484  1
  In  In5  1  0.01718272  0.84549607  0.62104609  1
  In  In6  1  0.34221442  0.17321646  0.12889654  1
  In  In7  1  0.33687303  0.16759702  0.62428219  1
  In  In8  1  0.34046679  0.49656205  0.13053626  1
  In  In9  1  0.33783516  0.50132696  0.62434415  1
  In  In10  1  0.31399630  0.83468360  0.12354364  1
  In  In11  1  0.33238951  0.82905617  0.63014968  1
  In  In12  1  0.66725700  0.14844815  0.13194006  1
  In  In13  1  0.65417877  0.16247948  0.61333483  1
  In  In14  1  0.66350993  0.50143130  0.11998892  1
  In  In15  1  0.66820154  0.49948267  0.61734828  1
  In  In16  1  0.67764035  0.83001738  0.12367118  1
  In  In17  1  0.64029908  0.83202586  0.62140983  1
  In  In18  1  0.14970540  0.01272147  0.39902620  1
  In  In19  1  0.16643833  -0.00310859  0.86474440  1
  In  In20  1  0.16765586  0.33155429  0.37318237  1
  In  In21  1  0.17065890  0.32529970  0.86948568  1
  In  In22  1  0.17751100  0.65682560  0.38502996  1
  In  In23  1  0.18270870  0.67671026  0.86643818  1
  In  In24  1  0.50871695  -0.00209748  0.39081197  1
  In  In25  1  0.48163270  0.00209131  0.86939894  1
  In  In26  1  0.49019417  0.34631761  0.38682523  1
  In  In27  1  0.50540654  0.34075165  0.87106312  1
  In  In28  1  0.48841219  0.67760528  0.38381092  1
  In  In29  1  0.49218464  0.65840742  0.86673619  1
  In  In30  1  0.83779566  0.01576304  0.35834533  1
  In  In31  1  0.84147357  -0.00702905  0.88278673  1
  In  In32  1  0.85155887  0.32272224  0.37075129  1
  In  In33  1  0.82512769  0.33556437  0.88819785  1
  In  In34  1  0.82170660  0.66431335  0.37443456  1
  In  In35  1  0.82967766  0.66884011  0.87659682  1
  In  In36  1  0.00332818  0.17140813  0.36683750  1
  In  In37  1  0.00134812  0.15417079  0.87642948  1
  In  In38  1  0.01400288  0.49160003  0.38167226  1
  In  In39  1  -0.00622548  0.49194370  0.87826116  1
  In  In40  1  0.00328635  0.85072768  0.37708913  1
  In  In41  1  -0.00327791  0.84090341  0.87684376  1
  In  In42  1  0.32426601  0.17139310  0.38272657  1
  In  In43  1  0.32955989  0.16242299  0.85672318  1
  In  In44  1  0.33240983  0.50132218  0.37886079  1
  In  In45  1  0.34397086  0.50895653  0.86608037  1
  In  In46  1  0.33339994  0.83293413  0.38161950  1
  In  In47  1  0.32795996  0.83392763  0.87159705  1
  In  In48  1  0.67038113  0.15267157  0.38146151  1
  In  In49  1  0.66650768  0.17604718  0.87868390  1
  In  In50  1  0.66511889  0.49332279  0.39282038  1
  In  In51  1  0.65808208  0.50155167  0.87977601  1
  In  In52  1  0.65538246  0.84101027  0.37886496  1
  In  In53  1  0.68509888  0.83508109  0.86992845  1
  In  In54  1  0.16062076  -0.01555785  0.12314670  1
  In  In55  1  0.16601081  -0.00037860  0.62214846  1
  In  In56  1  0.16939419  0.32910819  0.13645501  1
  In  In57  1  0.18098271  0.34420613  0.61475728  1
  In  In58  1  0.16558307  0.68267970  0.12504363  1
  In  In59  1  0.18427125  0.68153473  0.61853610  1
  In  In60  1  0.49701307  0.01193149  0.12680467  1
  In  In61  1  0.49836410  -0.01256661  0.61274494  1
  In  In62  1  0.48891180  0.33713577  0.12970636  1
  In  In63  1  0.48206590  0.31360424  0.60391077  1
  In  In64  1  0.50356196  0.65532724  0.12665741  1
  In  In65  1  0.49781363  0.66558250  0.62780008  1
  In  In66  1  0.83654445  0.00097590  0.12453867  1
  In  In67  1  0.84082358  0.00493993  0.62797625  1
  In  In68  1  0.83568461  0.33777192  0.12554489  1
  In  In69  1  0.81772996  0.33213230  0.61724867  1
  In  In70  1  0.83233411  0.66400932  0.11548881  1
  In  In71  1  0.83167315  0.65111693  0.62713473  1
  In  In72  1  0.16303436  0.16485869  -0.00313244  1
  In  In73  1  0.00174707  0.32846770  0.75063250  1
  In  In74  1  0.83443134  0.83213267  0.49632570  1
  In  In75  1  0.00685554  0.67044914  0.74623281  1
  In  In76  1  0.32686550  0.00262127  0.25278854  1
  In  In77  1  0.83640439  0.17046311  0.49532248  1
  In  In78  1  0.00366282  0.66653855  0.24780184  1
  In  In79  1  0.16441866  0.50781260  -0.00488402  1
  In  In80  1  0.66549475  -0.00482455  0.74227098  1
  In  In81  1  0.65843489  0.66827686  0.25408005  1
  In  In82  1  0.66623080  0.32771206  0.25775890  1
  In  In83  1  0.50070653  0.16973046  -0.00024732  1
  In  In84  1  0.50178571  0.82667418  -0.00902262  1
  In  In85  1  0.65663356  0.32987409  0.73914096  1
  Cu  Cu86  1  0.16540968  0.16439606  0.25848221  1
  Cu  Cu87  1  0.66265781  0.66729041  0.50187630  1
  Cu  Cu88  1  0.17016098  0.83191698  0.25395808  1
  Cu  Cu89  1  0.49258272  0.83835586  0.26024804  1
  Cu  Cu90  1  0.33628802  0.66569472  0.50495141  1
  Cu  Cu91  1  -0.00000810  0.66353733  0.50398425  1
  Cu  Cu92  1  0.66894113  -0.00376004  0.00141214  1
  Cu  Cu93  1  0.66981983  0.65965678  -0.00242783  1
  Cu  Cu94  1  -0.00102810  0.67407541  -0.00033792  1
  Cu  Cu95  1  0.49713589  0.49887404  0.74632729  1
  Cu  Cu96  1  0.17289074  0.49687080  0.25741672  1
  Cu  Cu97  1  0.82345848  0.49873889  0.74883194  1
  Cu  Cu98  1  0.33644924  0.66716939  -0.00676634  1
  Cu  Cu99  1  0.00527864  0.32554684  0.49563712  1
  Cu  Cu100  1  0.32499808  0.33364976  0.49859515  1
  Cu  Cu101  1  0.49654421  0.16829923  0.25519557  1
  Cu  Cu102  1  0.83436851  0.84450882  0.24513377  1
  Cu  Cu103  1  -0.00380389  0.00186448  0.00115369  1
  Cu  Cu104  1  0.67065715  0.33219075  0.00471670  1
  Cu  Cu105  1  0.83664122  0.49635202  0.24956178  1
  Cu  Cu106  1  0.49280986  0.50319465  0.25753987  1
  Cu  Cu107  1  -0.00854414  0.33675528  0.00770228  1
  Cu  Cu108  1  0.33938166  0.33985883  -0.00044828  1
  Cu  Cu109  1  0.33717263  -0.00499992  0.50699419  1
  Cu  Cu110  1  0.17218046  0.50410215  0.73910285  1
  Cu  Cu111  1  0.83519841  0.15937196  0.75303429  1
  Cu  Cu112  1  0.83661176  0.82923986  0.75213376  1
  Cu  Cu113  1  0.49510679  0.82933301  0.74819945  1
  Cu  Cu114  1  0.17080648  0.16703659  0.74333496  1
  Se  Se115  1  0.07472684  0.08298864  0.06304039  1
  Se  Se116  1  0.08704193  0.07938159  0.54757106  1
  Se  Se117  1  0.08437689  0.41158747  0.06053172  1
  Se  Se118  1  0.08423237  0.41443908  0.54909523  1
  Se  Se119  1  0.08536105  0.75571932  0.05094065  1
  Se  Se120  1  0.08303005  0.74869069  0.55418363  1
  Se  Se121  1  0.40308842  0.07829251  0.05402628  1
  Se  Se122  1  0.42049338  0.08581844  0.55311533  1
  Se  Se123  1  0.42094505  0.42179427  0.05447949  1
  Se  Se124  1  0.41115208  0.41949141  0.54848945  1
  Se  Se125  1  0.41371439  0.74472034  0.05994434  1
  Se  Se126  1  0.41839352  0.75101084  0.55842220  1
  Se  Se127  1  0.74920436  0.08188642  0.05505231  1
  Se  Se128  1  0.74946496  0.07457261  0.55534228  1
  Se  Se129  1  0.75204182  0.41941845  0.05681852  1
  Se  Se130  1  0.76518354  0.43237696  0.54994904  1
  Se  Se131  1  0.74922842  0.74839870  0.04919423  1
  Se  Se132  1  0.74591294  0.74607055  0.56183533  1
  Se  Se133  1  0.25685455  0.25853339  0.05655181  1
  Se  Se134  1  0.24852432  0.24342563  0.55213412  1
  Se  Se135  1  0.25584577  0.59111698  0.05877414  1
  Se  Se136  1  0.25003039  0.58024410  0.55489358  1
  Se  Se137  1  0.24934539  0.92099859  0.05064370  1
  Se  Se138  1  0.25243263  0.91161468  0.55830190  1
  Se  Se139  1  0.58903087  0.25440798  0.06716707  1
  Se  Se140  1  0.61218226  0.28032305  0.55819748  1
  Se  Se141  1  0.58094138  0.58219753  0.05033765  1
  Se  Se142  1  0.57879452  0.58491425  0.55537516  1
  Se  Se143  1  0.58267483  0.92011811  0.05965812  1
  Se  Se144  1  0.59820641  0.92574050  0.54507974  1
  Se  Se145  1  0.91535014  0.24662460  0.05970845  1
  Se  Se146  1  0.92709504  0.25260516  0.56362014  1
  Se  Se147  1  0.92325605  0.58350065  0.05228759  1
  Se  Se148  1  0.91215844  0.58027049  0.55110735  1
  Se  Se149  1  0.91326157  0.91442756  0.05234285  1
  Se  Se150  1  0.92318529  0.92548467  0.55363382  1
  Se  Se151  1  0.08692940  0.24359110  0.44118567  1
  Se  Se152  1  0.07084121  0.26301512  0.94182765  1
  Se  Se153  1  0.08579304  0.58077528  0.45124072  1
  Se  Se154  1  0.07634475  0.59849904  0.93274606  1
  Se  Se155  1  0.09347227  0.89931515  0.45471224  1
  Se  Se156  1  0.08183337  0.92777829  0.94133324  1
  Se  Se157  1  0.41367831  0.25006702  0.44956816  1
  Se  Se158  1  0.40920438  0.25377427  0.93623692  1
  Se  Se159  1  0.41714981  0.58199781  0.44887925  1
  Se  Se160  1  0.42013146  0.58046377  0.94491919  1
  Se  Se161  1  0.41892614  0.91176319  0.45091554  1
  Se  Se162  1  0.40758993  0.92414064  0.94646733  1
  Se  Se163  1  0.74583726  0.26180527  0.43796206  1
  Se  Se164  1  0.75019734  0.24299186  0.95442944  1
  Se  Se165  1  0.75086865  0.58685076  0.45069473  1
  Se  Se166  1  0.75407520  0.57695696  0.94359041  1
  Se  Se167  1  0.75573587  0.92659875  0.43286965  1
  Se  Se168  1  0.75251038  0.91219984  0.94894580  1
  Se  Se169  1  0.25531385  0.08179285  0.45464443  1
  Se  Se170  1  0.25587187  0.08316614  0.93642123  1
  Se  Se171  1  0.24411547  0.41794570  0.44386193  1
  Se  Se172  1  0.25453326  0.41366071  0.93790207  1
  Se  Se173  1  0.25226175  0.74914348  0.45122357  1
  Se  Se174  1  0.25074509  0.75278664  0.94613819  1
  Se  Se175  1  0.57982580  0.09387451  0.45541190  1
  Se  Se176  1  0.58657925  0.07213996  0.93963843  1
  Se  Se177  1  0.57862422  0.41604609  0.45820713  1
  Se  Se178  1  0.58439093  0.40995748  0.94865158  1
  Se  Se179  1  0.58278244  0.75336397  0.44850557  1
  Se  Se180  1  0.59514811  0.73940487  0.93252491  1
  Se  Se181  1  0.92488176  0.07750107  0.43844523  1
  Se  Se182  1  0.91331840  0.08809920  0.94974787  1
  Se  Se183  1  0.92102056  0.40995314  0.44352485  1
  Se  Se184  1  0.91154809  0.42122637  0.95215913  1
  Se  Se185  1  0.92546914  0.74026368  0.43628780  1
  Se  Se186  1  0.91489684  0.75275346  0.94225041  1
  Se  Se187  1  0.25366202  0.24902850  0.30447402  1
  Se  Se188  1  0.25084019  0.25653418  0.79404854  1
  Se  Se189  1  0.25351681  0.58588492  0.30624730  1
  Se  Se190  1  0.25168579  0.58329763  0.79928624  1
  Se  Se191  1  0.23951154  0.91823748  0.31727338  1
  Se  Se192  1  0.27144488  0.93493243  0.80372069  1
  Se  Se193  1  0.57211767  0.24713234  0.31948122  1
  Se  Se194  1  0.57397351  0.23758296  0.80403980  1
  Se  Se195  1  0.57762162  0.57679746  0.31839675  1
  Se  Se196  1  0.58331930  0.57701548  0.80279385  1
  Se  Se197  1  0.57743258  0.92342338  0.30792455  1
  Se  Se198  1  0.57664769  0.90887017  0.80973911  1
  Se  Se199  1  0.91108132  0.23674603  0.29591218  1
  Se  Se200  1  0.90503682  0.24781602  0.81345308  1
  Se  Se201  1  0.91414849  0.57864232  0.31052093  1
  Se  Se202  1  0.91400440  0.57498862  0.80390264  1
  Se  Se203  1  0.92137953  0.91932949  0.30075368  1
  Se  Se204  1  0.91387402  0.91812953  0.80396328  1
  Se  Se205  1  0.08838729  0.07406552  0.30929683  1
  Se  Se206  1  0.08540095  0.08988558  0.80097226  1
  Se  Se207  1  0.08281307  0.41408361  0.30299861  1
  Se  Se208  1  0.09241064  0.42879275  0.80465646  1
  Se  Se209  1  0.08942683  0.75058105  0.31441449  1
  Se  Se210  1  0.09110611  0.76476510  0.80524020  1
  Se  Se211  1  0.41911022  0.08497401  0.31612487  1
  Se  Se212  1  0.42283645  0.08753243  0.79368253  1
  Se  Se213  1  0.41221099  0.41507349  0.30807421  1
  Se  Se214  1  0.41706929  0.41322573  0.80116358  1
  Se  Se215  1  0.41003542  0.75061225  0.30703377  1
  Se  Se216  1  0.41167093  0.74899361  0.80432700  1
  Se  Se217  1  0.73993125  0.08867484  0.29802449  1
  Se  Se218  1  0.74971760  0.08288377  0.81171224  1
  Se  Se219  1  0.75426880  0.42511603  0.31375888  1
  Se  Se220  1  0.74804229  0.41281557  0.80755833  1
  Se  Se221  1  0.75463359  0.76396435  0.30567089  1
  Se  Se222  1  0.75172284  0.74266788  0.79925453  1
  Se  Se223  1  0.23932926  0.09117586  0.18737550  1
  Se  Se224  1  0.25244496  0.08247671  0.69050909  1
  Se  Se225  1  0.25515086  0.41611329  0.19844315  1
  Se  Se226  1  0.25597395  0.41452013  0.69378211  1
  Se  Se227  1  0.25184912  0.74830581  0.20067937  1
  Se  Se228  1  0.24904859  0.74985805  0.70090466  1
  Se  Se229  1  0.57666288  0.08091621  0.20353859  1
  Se  Se230  1  0.57397089  0.08547241  0.68714715  1
  Se  Se231  1  0.57884908  0.42597856  0.19780447  1
  Se  Se232  1  0.56830895  0.41967677  0.68061063  1
  Se  Se233  1  0.57200946  0.76210487  0.19342022  1
  Se  Se234  1  0.58311729  0.74619982  0.69961918  1
  Se  Se235  1  0.93107350  0.06268735  0.19598098  1
  Se  Se236  1  0.92180902  0.07882965  0.70199624  1
  Se  Se237  1  0.92030589  0.41203412  0.19948281  1
  Se  Se238  1  0.90543323  0.41585016  0.69211984  1
  Se  Se239  1  0.90925437  0.75390562  0.18836618  1
  Se  Se240  1  0.91404099  0.75581937  0.68447941  1
  Se  Se241  1  0.08392172  0.25060918  0.20392777  1
  Se  Se242  1  0.08950558  0.24807290  0.68384121  1
  Se  Se243  1  0.09621355  0.57398732  0.18976954  1
  Se  Se244  1  0.08620179  0.57750103  0.68094821  1
  Se  Se245  1  0.08368638  0.91112860  0.19992870  1
  Se  Se246  1  0.08026362  0.92772326  0.69673301  1
  Se  Se247  1  0.41510886  0.25397184  0.20315550  1
  Se  Se248  1  0.42077551  0.25308760  0.69091263  1
  Se  Se249  1  0.41599253  0.58729702  0.19948092  1
  Se  Se250  1  0.41224411  0.58620376  0.69753896  1
  Se  Se251  1  0.41665636  0.91199098  0.19054411  1
  Se  Se252  1  0.42189105  0.91745819  0.69176310  1
  Se  Se253  1  0.75285784  0.24393589  0.19227068  1
  Se  Se254  1  0.75483605  0.23301094  0.68968467  1
  Se  Se255  1  0.75449017  0.57985972  0.19388558  1
  Se  Se256  1  0.74027758  0.58053324  0.69602159  1
  Se  Se257  1  0.74494993  0.92152994  0.19291970  1
  Se  Se258  1  0.75581371  0.90219843  0.68467806  1
