# generated using pymatgen
data_In86Cu29Se144
_symmetry_space_group_name_H-M   'P 1'
_cell_length_a   17.58761107
_cell_length_b   17.58388682
_cell_length_c   23.45034962
_cell_angle_alpha   89.99083759
_cell_angle_beta   89.99807762
_cell_angle_gamma   89.99790024
_symmetry_Int_Tables_number   1
_chemical_formula_structural   In86Cu29Se144
_chemical_formula_sum   'In86 Cu29 Se144'
_cell_volume   7252.22131257
_cell_formula_units_Z   1
loop_
 _symmetry_equiv_pos_site_id
 _symmetry_equiv_pos_as_xyz
  1  'x, y, z'
loop_
 _atom_site_type_symbol
 _atom_site_label
 _atom_site_symmetry_multiplicity
 _atom_site_fract_x
 _atom_site_fract_y
 _atom_site_fract_z
 _atom_site_occupancy
  In  In0  1  0.00439591  0.16833659  0.11851344  1
  In  In1  1  0.00588513  0.16389920  0.62573309  1
  In  In2  1  0.01369463  0.49755434  0.12420804  1
  In  In3  1  0.00429157  0.50046206  0.63216939  1
  In  In4  1  -0.01354951  0.84150615  0.12594804  1
  In  In5  1  -0.01133051  0.82453275  0.61808150  1
  In  In6  1  0.32986672  0.16380820  0.13448415  1
  In  In7  1  0.33437027  0.16515080  0.61624351  1
  In  In8  1  0.31928189  0.49859482  0.12437576  1
  In  In9  1  0.34369297  0.50082699  0.61735911  1
  In  In10  1  0.34752562  0.83133868  0.12923687  1
  In  In11  1  0.32085388  0.81911322  0.60647135  1
  In  In12  1  0.66855477  0.16405810  0.13027612  1
  In  In13  1  0.65406611  0.16426784  0.62474921  1
  In  In14  1  0.66428826  0.50306560  0.13363916  1
  In  In15  1  0.66811216  0.50904262  0.61956187  1
  In  In16  1  0.66475906  0.84072685  0.13098217  1
  In  In17  1  0.67132567  0.84037810  0.61523142  1
  In  In18  1  0.17754057  -0.00653143  0.37347760  1
  In  In19  1  0.18040542  0.00522763  0.88024745  1
  In  In20  1  0.16944151  0.30709344  0.37501045  1
  In  In21  1  0.16213156  0.33882632  0.88365409  1
  In  In22  1  0.17105502  0.70514267  0.37159788  1
  In  In23  1  0.15887894  0.65927558  0.86911102  1
  In  In24  1  0.50287195  0.00168664  0.37350851  1
  In  In25  1  0.50784997  -0.00990222  0.88270170  1
  In  In26  1  0.49323120  0.33226464  0.37109392  1
  In  In27  1  0.48617234  0.32887985  0.87658601  1
  In  In28  1  0.49998427  0.65858886  0.38447155  1
  In  In29  1  0.50879518  0.68336647  0.87091518  1
  In  In30  1  0.81105927  0.00097940  0.36994331  1
  In  In31  1  0.82318478  0.00930114  0.88183654  1
  In  In32  1  0.83046877  0.33795873  0.36936412  1
  In  In33  1  0.83832875  0.30782952  0.87511304  1
  In  In34  1  0.84497922  0.67729208  0.36894101  1
  In  In35  1  0.84406217  0.66786615  0.87600438  1
  In  In36  1  0.00783778  0.17427080  0.37906395  1
  In  In37  1  -0.00983560  0.17732409  0.88077033  1
  In  In38  1  -0.00941522  0.50257744  0.37496602  1
  In  In39  1  0.01163904  0.50506851  0.87138446  1
  In  In40  1  0.01086635  0.82640965  0.38135787  1
  In  In41  1  -0.00444672  0.82203560  0.87372512  1
  In  In42  1  0.33298453  0.16614971  0.36857857  1
  In  In43  1  0.33320131  0.16837897  0.88852345  1
  In  In44  1  0.34585473  0.50864271  0.37699054  1
  In  In45  1  0.32057655  0.49445947  0.87271877  1
  In  In46  1  0.32452992  0.84385542  0.38570515  1
  In  In47  1  0.34722140  0.83424713  0.87232419  1
  In  In48  1  0.65830147  0.15066942  0.35613940  1
  In  In49  1  0.68040232  0.14738654  0.89165886  1
  In  In50  1  0.65509505  0.49301097  0.36642646  1
  In  In51  1  0.66807859  0.50475740  0.87628092  1
  In  In52  1  0.66671162  0.83270167  0.37574012  1
  In  In53  1  0.65988461  0.84547521  0.88054391  1
  In  In54  1  0.16666001  0.01298462  0.13592872  1
  In  In55  1  0.16983306  0.00388840  0.61500194  1
  In  In56  1  0.16854565  0.33755487  0.12655635  1
  In  In57  1  0.16169101  0.32200937  0.61971529  1
  In  In58  1  0.17246333  0.65232763  0.12537199  1
  In  In59  1  0.15825542  0.67215521  0.62888183  1
  In  In60  1  0.49778723  0.00251551  0.13193496  1
  In  In61  1  0.50532935  0.00217118  0.61983791  1
  In  In62  1  0.51390138  0.31803357  0.13695766  1
  In  In63  1  0.49831138  0.32720968  0.61321740  1
  In  In64  1  0.49961376  0.68545549  0.12683800  1
  In  In65  1  0.48842186  0.65999462  0.60862339  1
  In  In66  1  0.83007368  -0.00766623  0.12242311  1
  In  In67  1  0.83224449  -0.02030986  0.62985668  1
  In  In68  1  0.82982732  0.31732186  0.12767654  1
  In  In69  1  0.83534911  0.33765430  0.62789667  1
  In  In70  1  0.82234045  0.67644911  0.13221155  1
  In  In71  1  0.83986091  0.68623825  0.62636852  1
  In  In72  1  0.33734064  -0.00291475  0.74772753  1
  In  In73  1  0.16578815  0.83517945  0.00104444  1
  In  In74  1  -0.00285412  -0.00083841  0.75141853  1
  In  In75  1  0.33524986  0.67129688  0.25458004  1
  In  In76  1  0.16592307  0.50053941  0.49946493  1
  In  In77  1  0.00121288  -0.00116888  0.25079730  1
  In  In78  1  0.66990126  0.32723815  0.75264674  1
  In  In79  1  -0.00249970  0.33476725  0.24882971  1
  In  In80  1  0.33042019  0.33541165  0.73979109  1
  In  In81  1  0.67351762  0.67538081  0.74321013  1
  In  In82  1  0.83209635  0.16182577  0.49684110  1
  In  In83  1  0.83015647  0.50007129  0.49332554  1
  In  In84  1  0.83691391  0.49990664  -0.00345931  1
  In  In85  1  0.49382050  0.49922935  -0.00187704  1
  Cu  Cu86  1  0.50634631  0.83678507  0.25427455  1
  Cu  Cu87  1  0.33570870  0.00488424  0.00700742  1
  Cu  Cu88  1  0.49697162  0.16630033  0.25038260  1
  Cu  Cu89  1  0.00462314  0.33004533  0.00204748  1
  Cu  Cu90  1  0.16519549  0.50160890  0.25139836  1
  Cu  Cu91  1  0.33350477  0.66741911  0.00136819  1
  Cu  Cu92  1  0.33563799  0.32596238  0.00863848  1
  Cu  Cu93  1  0.00410086  -0.00268689  0.49936881  1
  Cu  Cu94  1  0.49740771  0.50257555  0.25261550  1
  Cu  Cu95  1  0.00105348  0.66491673  -0.00234579  1
  Cu  Cu96  1  -0.00108554  0.00402857  0.00320585  1
  Cu  Cu97  1  0.65756129  0.32802224  0.48996444  1
  Cu  Cu98  1  0.16296157  0.82839613  0.74233431  1
  Cu  Cu99  1  0.49943240  0.83164241  0.74553213  1
  Cu  Cu100  1  0.66483053  0.32636431  0.00613315  1
  Cu  Cu101  1  0.82811247  0.50539089  0.25180192  1
  Cu  Cu102  1  0.33400635  0.32936066  0.49470212  1
  Cu  Cu103  1  0.16433268  0.50526148  0.75120922  1
  Cu  Cu104  1  0.84470731  0.49620489  0.75332857  1
  Cu  Cu105  1  0.66513172  0.66700565  0.49776539  1
  Cu  Cu106  1  0.33993460  0.00719982  0.49517953  1
  Cu  Cu107  1  0.66077902  0.00058957  0.00865748  1
  Cu  Cu108  1  0.50773184  0.15690852  0.75269322  1
  Cu  Cu109  1  0.66388812  -0.00132832  0.49438229  1
  Cu  Cu110  1  0.83162182  0.83417882  0.25082851  1
  Cu  Cu111  1  0.50145217  0.50546504  0.73722157  1
  Cu  Cu112  1  0.66289219  0.68369515  0.00661714  1
  Cu  Cu113  1  0.00178137  0.66809653  0.49934261  1
  Cu  Cu114  1  0.16255705  0.17387099  0.75240704  1
  Se  Se115  1  0.08862292  0.07950895  0.05574716  1
  Se  Se116  1  0.08260056  0.08710199  0.55068827  1
  Se  Se117  1  0.08836606  0.41622962  0.05184207  1
  Se  Se118  1  0.07186576  0.41134366  0.55614024  1
  Se  Se119  1  0.07845243  0.74405863  0.06224741  1
  Se  Se120  1  0.08497486  0.75232075  0.55284953  1
  Se  Se121  1  0.41643791  0.08720143  0.06266049  1
  Se  Se122  1  0.42345760  0.08724765  0.55151868  1
  Se  Se123  1  0.41673764  0.40918488  0.06621702  1
  Se  Se124  1  0.41711839  0.41357516  0.54766086  1
  Se  Se125  1  0.41683950  0.75312519  0.05034188  1
  Se  Se126  1  0.43079671  0.76538384  0.54660199  1
  Se  Se127  1  0.74915192  0.08303741  0.05810692  1
  Se  Se128  1  0.74422099  0.07365982  0.56005370  1
  Se  Se129  1  0.74360012  0.41587265  0.05920328  1
  Se  Se130  1  0.73913940  0.40472217  0.55292172  1
  Se  Se131  1  0.75057756  0.76094985  0.05919954  1
  Se  Se132  1  0.75126340  0.74701498  0.55130836  1
  Se  Se133  1  0.24925683  0.24726227  0.06239311  1
  Se  Se134  1  0.25014828  0.24908822  0.55055920  1
  Se  Se135  1  0.24943664  0.57993355  0.04772114  1
  Se  Se136  1  0.25186580  0.59168143  0.55939211  1
  Se  Se137  1  0.25496092  0.92068748  0.06457119  1
  Se  Se138  1  0.25287788  0.92356916  0.54700429  1
  Se  Se139  1  0.58224141  0.24263506  0.05762738  1
  Se  Se140  1  0.58192657  0.24227708  0.54775553  1
  Se  Se141  1  0.58516823  0.59024142  0.05833200  1
  Se  Se142  1  0.58350413  0.57825733  0.54738799  1
  Se  Se143  1  0.57694002  0.91671284  0.06109665  1
  Se  Se144  1  0.58090154  0.91608496  0.54867578  1
  Se  Se145  1  0.91631990  0.25048478  0.05329112  1
  Se  Se146  1  0.91848556  0.25349568  0.55770812  1
  Se  Se147  1  0.92018018  0.58853429  0.06211382  1
  Se  Se148  1  0.92040200  0.58651476  0.55846011  1
  Se  Se149  1  0.91378073  0.91619733  0.04884204  1
  Se  Se150  1  0.91570184  0.91810170  0.55119307  1
  Se  Se151  1  0.08124545  0.25306273  0.45236792  1
  Se  Se152  1  0.08719965  0.24483206  0.94838461  1
  Se  Se153  1  0.08062885  0.59166582  0.43646872  1
  Se  Se154  1  0.08733595  0.58193712  0.94775672  1
  Se  Se155  1  0.09009561  0.91711173  0.44526270  1
  Se  Se156  1  0.07581661  0.92443838  0.93859777  1
  Se  Se157  1  0.41666609  0.24553251  0.44118194  1
  Se  Se158  1  0.42232606  0.24774321  0.95462582  1
  Se  Se159  1  0.41104335  0.58665198  0.45458175  1
  Se  Se160  1  0.41205539  0.59195945  0.93414840  1
  Se  Se161  1  0.42263864  0.92051318  0.44539176  1
  Se  Se162  1  0.41113012  0.91885090  0.94866738  1
  Se  Se163  1  0.74255791  0.24928636  0.43380177  1
  Se  Se164  1  0.75330834  0.24755548  0.95318684  1
  Se  Se165  1  0.74349146  0.58976320  0.43291019  1
  Se  Se166  1  0.73959587  0.59847534  0.94672587  1
  Se  Se167  1  0.75133168  0.91411975  0.44690520  1
  Se  Se168  1  0.74563686  0.92133939  0.95099051  1
  Se  Se169  1  0.25143193  0.08519580  0.44143765  1
  Se  Se170  1  0.24838305  0.08681572  0.95610704  1
  Se  Se171  1  0.25296407  0.41096353  0.43614032  1
  Se  Se172  1  0.25766457  0.41103496  0.95009907  1
  Se  Se173  1  0.26317898  0.74019598  0.45040233  1
  Se  Se174  1  0.25425042  0.74679767  0.93775818  1
  Se  Se175  1  0.58749192  0.08795004  0.44104855  1
  Se  Se176  1  0.57617671  0.08245509  0.95285912  1
  Se  Se177  1  0.57658838  0.41734222  0.44111658  1
  Se  Se178  1  0.59114952  0.40733393  0.94145254  1
  Se  Se179  1  0.58280035  0.75181319  0.44555507  1
  Se  Se180  1  0.57749032  0.75930621  0.94925166  1
  Se  Se181  1  0.92156572  0.07137891  0.43517686  1
  Se  Se182  1  0.91560895  0.08611014  0.94780190  1
  Se  Se183  1  0.92419641  0.40280320  0.44456305  1
  Se  Se184  1  0.92500713  0.40791404  0.93771560  1
  Se  Se185  1  0.91598786  0.75208376  0.44827740  1
  Se  Se186  1  0.91546934  0.75091150  0.95083426  1
  Se  Se187  1  0.25542367  0.25229531  0.29814337  1
  Se  Se188  1  0.25116305  0.24803716  0.81043898  1
  Se  Se189  1  0.24034204  0.58431247  0.31474689  1
  Se  Se190  1  0.25296875  0.58506236  0.80220473  1
  Se  Se191  1  0.24465207  0.90018280  0.30458742  1
  Se  Se192  1  0.24144717  0.90692819  0.80594073  1
  Se  Se193  1  0.58033615  0.25352820  0.30171446  1
  Se  Se194  1  0.57828445  0.24304298  0.81493857  1
  Se  Se195  1  0.57790739  0.58971233  0.30457790  1
  Se  Se196  1  0.58127092  0.57875085  0.80224222  1
  Se  Se197  1  0.59112452  0.92128944  0.30555429  1
  Se  Se198  1  0.57761455  0.91436540  0.80324031  1
  Se  Se199  1  0.91035171  0.23953749  0.30670419  1
  Se  Se200  1  0.92108996  0.24587761  0.79842964  1
  Se  Se201  1  0.91840153  0.58410156  0.30096203  1
  Se  Se202  1  0.92153341  0.58500512  0.80632803  1
  Se  Se203  1  0.91207922  0.91137020  0.31381063  1
  Se  Se204  1  0.90769745  0.91453320  0.81404498  1
  Se  Se205  1  0.09072082  0.08929890  0.30993060  1
  Se  Se206  1  0.09114219  0.08663583  0.81240727  1
  Se  Se207  1  0.08886082  0.41917453  0.31352240  1
  Se  Se208  1  0.08959384  0.41421840  0.80514807  1
  Se  Se209  1  0.06606533  0.74024442  0.30136425  1
  Se  Se210  1  0.08256864  0.75059980  0.80262359  1
  Se  Se211  1  0.41710836  0.07893951  0.30325646  1
  Se  Se212  1  0.41905078  0.08763978  0.81379741  1
  Se  Se213  1  0.41110006  0.42059466  0.30320936  1
  Se  Se214  1  0.42394100  0.42517123  0.80120230  1
  Se  Se215  1  0.42478913  0.75818893  0.31540473  1
  Se  Se216  1  0.41671088  0.74757545  0.79870320  1
  Se  Se217  1  0.76224738  0.09102220  0.29265801  1
  Se  Se218  1  0.74770336  0.08767898  0.80681725  1
  Se  Se219  1  0.74708841  0.41635029  0.30040588  1
  Se  Se220  1  0.76028817  0.42171921  0.81300501  1
  Se  Se221  1  0.74863138  0.74980650  0.30471483  1
  Se  Se222  1  0.75236096  0.75695779  0.81485477  1
  Se  Se223  1  0.25854970  0.07539666  0.20616455  1
  Se  Se224  1  0.24408620  0.09311959  0.69309808  1
  Se  Se225  1  0.24873028  0.41761348  0.19989354  1
  Se  Se226  1  0.23822093  0.42754550  0.68377447  1
  Se  Se227  1  0.24404469  0.75364139  0.18984203  1
  Se  Se228  1  0.25401842  0.75116650  0.69164547  1
  Se  Se229  1  0.58394108  0.08261177  0.20005937  1
  Se  Se230  1  0.58674646  0.07423539  0.69714319  1
  Se  Se231  1  0.58209726  0.41914848  0.20006093  1
  Se  Se232  1  0.58184163  0.41705775  0.68622109  1
  Se  Se233  1  0.58652382  0.75094654  0.20038332  1
  Se  Se234  1  0.57507974  0.75089527  0.68194894  1
  Se  Se235  1  0.91546294  0.08747601  0.18716344  1
  Se  Se236  1  0.90758777  0.08600147  0.68909248  1
  Se  Se237  1  0.90694201  0.42624872  0.18747477  1
  Se  Se238  1  0.92221804  0.41197328  0.69728375  1
  Se  Se239  1  0.91609618  0.75260707  0.19707307  1
  Se  Se240  1  0.92127931  0.75482396  0.70053947  1
  Se  Se241  1  0.08952860  0.24241486  0.19443333  1
  Se  Se242  1  0.08013130  0.25288337  0.69647320  1
  Se  Se243  1  0.08258956  0.58418951  0.19787302  1
  Se  Se244  1  0.07920916  0.58945394  0.69988098  1
  Se  Se245  1  0.08998734  0.90540340  0.19244906  1
  Se  Se246  1  0.08860470  0.91641378  0.68582565  1
  Se  Se247  1  0.41264346  0.25318814  0.20084715  1
  Se  Se248  1  0.42801923  0.23795285  0.69216282  1
  Se  Se249  1  0.41997058  0.58076042  0.18745791  1
  Se  Se250  1  0.41470988  0.58782129  0.68962051  1
  Se  Se251  1  0.41770027  0.91605915  0.20233597  1
  Se  Se252  1  0.41750581  0.90752522  0.68295924  1
  Se  Se253  1  0.73942516  0.25743994  0.19931722  1
  Se  Se254  1  0.75565027  0.23905155  0.68948188  1
  Se  Se255  1  0.74373277  0.58987617  0.20019095  1
  Se  Se256  1  0.76471572  0.57434380  0.69089718  1
  Se  Se257  1  0.75044135  0.92179739  0.19980724  1
  Se  Se258  1  0.74778835  0.90198614  0.69706175  1
