# generated using pymatgen
data_In86Cu29Se144
_symmetry_space_group_name_H-M   'P 1'
_cell_length_a   17.72980389
_cell_length_b   17.71961202
_cell_length_c   23.55847542
_cell_angle_alpha   89.99943866
_cell_angle_beta   90.01770914
_cell_angle_gamma   90.02594971
_symmetry_Int_Tables_number   1
_chemical_formula_structural   In86Cu29Se144
_chemical_formula_sum   'In86 Cu29 Se144'
_cell_volume   7401.25311318
_cell_formula_units_Z   1
loop_
 _symmetry_equiv_pos_site_id
 _symmetry_equiv_pos_as_xyz
  1  'x, y, z'
loop_
 _atom_site_type_symbol
 _atom_site_label
 _atom_site_symmetry_multiplicity
 _atom_site_fract_x
 _atom_site_fract_y
 _atom_site_fract_z
 _atom_site_occupancy
  In  In0  1  0.01178377  0.14891360  0.12896261  1
  In  In1  1  0.00715713  0.14624820  0.61976426  1
  In  In2  1  0.00962075  0.50639499  0.11828875  1
  In  In3  1  0.00741280  0.51258465  0.61833565  1
  In  In4  1  0.00454833  0.82815292  0.12187753  1
  In  In5  1  0.00157356  0.84152274  0.63236782  1
  In  In6  1  0.33854400  0.16067893  0.11745340  1
  In  In7  1  0.32030156  0.15885356  0.61626856  1
  In  In8  1  0.33832180  0.50515964  0.12726324  1
  In  In9  1  0.32942661  0.51304825  0.62042400  1
  In  In10  1  0.33065307  0.83182264  0.11964456  1
  In  In11  1  0.34168701  0.83461895  0.63297786  1
  In  In12  1  0.66422665  0.17035201  0.12673537  1
  In  In13  1  0.66286204  0.17052423  0.62092767  1
  In  In14  1  0.68341521  0.50132726  0.12277691  1
  In  In15  1  0.66410904  0.49554766  0.62139353  1
  In  In16  1  0.65775974  0.82283401  0.12644491  1
  In  In17  1  0.66720698  0.82312156  0.62024154  1
  In  In18  1  0.17301429  -0.00142450  0.36798771  1
  In  In19  1  0.16344028  0.00266447  0.86990083  1
  In  In20  1  0.17557401  0.33003652  0.37892216  1
  In  In21  1  0.16559688  0.34001062  0.88157287  1
  In  In22  1  0.15774088  0.66631717  0.36703730  1
  In  In23  1  0.14622957  0.67640611  0.88154796  1
  In  In24  1  0.50179640  0.00953056  0.37303771  1
  In  In25  1  0.47337717  0.01916256  0.90302891  1
  In  In26  1  0.48518486  0.33061235  0.36971159  1
  In  In27  1  0.48755070  0.34910164  0.88156880  1
  In  In28  1  0.51110877  0.67251518  0.34343462  1
  In  In29  1  0.45562376  0.72166020  0.95072966  1
  In  In30  1  0.82385125  -0.02215829  0.36871027  1
  In  In31  1  0.83452452  -0.01843553  0.87561092  1
  In  In32  1  0.84979302  0.33053964  0.37981338  1
  In  In33  1  0.83618188  0.34590625  0.87172031  1
  In  In34  1  0.83083587  0.66512933  0.37507867  1
  In  In35  1  0.83203404  0.66507285  0.87904621  1
  In  In36  1  0.01663702  0.16215842  0.37540950  1
  In  In37  1  0.01581788  0.15895957  0.87387292  1
  In  In38  1  -0.00437593  0.50731774  0.38197528  1
  In  In39  1  -0.01199948  0.51258235  0.87929051  1
  In  In40  1  -0.02236559  0.81717001  0.34920672  1
  In  In41  1  -0.00263973  0.83408152  0.87170158  1
  In  In42  1  0.33247320  0.16412712  0.37537106  1
  In  In43  1  0.32858964  0.16849389  0.88157600  1
  In  In44  1  0.32974657  0.49521886  0.36528400  1
  In  In45  1  0.29549513  0.55702583  0.93999881  1
  In  In46  1  0.34133645  0.82697808  0.35145560  1
  In  In47  1  0.28389895  0.87346165  0.93153394  1
  In  In48  1  0.65731750  0.14681948  0.37992845  1
  In  In49  1  0.65744811  0.16062853  0.87682726  1
  In  In50  1  0.67138994  0.51621479  0.36948468  1
  In  In51  1  0.64069884  0.52874421  0.89324847  1
  In  In52  1  0.67508916  0.83278078  0.36801205  1
  In  In53  1  0.65806339  0.83797479  0.88504412  1
  In  In54  1  0.17544150  -0.00123209  0.11616481  1
  In  In55  1  0.16832769  0.00346929  0.62719488  1
  In  In56  1  0.18194953  0.34500795  0.11768026  1
  In  In57  1  0.17267214  0.34041762  0.61766023  1
  In  In58  1  0.16779291  0.65963642  0.11857031  1
  In  In59  1  0.16882311  0.66125510  0.62336616  1
  In  In60  1  0.48065950  -0.01596446  0.10855470  1
  In  In61  1  0.47758833  -0.00539049  0.63263908  1
  In  In62  1  0.49717358  0.32285955  0.11812819  1
  In  In63  1  0.50543458  0.32979931  0.62513551  1
  In  In64  1  0.50851298  0.65878133  0.13183560  1
  In  In65  1  0.50243925  0.66767495  0.63014409  1
  In  In66  1  0.85411192  -0.01475422  0.13391031  1
  In  In67  1  0.84731086  -0.00025680  0.62156416  1
  In  In68  1  0.82875731  0.33230548  0.12857196  1
  In  In69  1  0.82693700  0.33621062  0.61938443  1
  In  In70  1  0.84133526  0.67100950  0.13412828  1
  In  In71  1  0.84203112  0.68219431  0.61301778  1
  In  In72  1  0.33059610  0.68098166  0.78144418  1
  In  In73  1  0.65901891  -0.00542326  0.24846082  1
  In  In74  1  0.66751580  0.33641047  0.74726955  1
  In  In75  1  0.49566756  0.49713531  0.48209489  1
  In  In76  1  0.83895294  0.16360086  0.50064871  1
  In  In77  1  0.50801615  0.84095441  0.49500688  1
  In  In78  1  0.33676284  0.33600326  0.74946197  1
  In  In79  1  0.66641205  0.66745245  0.74855467  1
  In  In80  1  0.66624850  -0.00275286  0.75234655  1
  In  In81  1  0.00592819  0.32364981  0.25557181  1
  In  In82  1  0.83302072  0.16576240  0.00655128  1
  In  In83  1  0.16667645  0.83445473  0.48895125  1
  In  In84  1  0.66369497  0.33376871  0.25339464  1
  In  In85  1  0.00254326  0.33415754  0.74280609  1
  Cu  Cu86  1  0.49123170  0.83966291  0.76672175  1
  Cu  Cu87  1  -0.00602699  0.66983485  0.00232988  1
  Cu  Cu88  1  0.48902294  0.16276940  0.24550924  1
  Cu  Cu89  1  0.00445437  -0.01007405  0.49741328  1
  Cu  Cu90  1  0.16192323  0.51306219  0.75240152  1
  Cu  Cu91  1  0.83810679  0.82977173  0.74788785  1
  Cu  Cu92  1  0.83243408  0.50656822  0.75096969  1
  Cu  Cu93  1  0.33475888  0.33414604  0.49573187  1
  Cu  Cu94  1  0.48694692  0.50904010  0.75768915  1
  Cu  Cu95  1  -0.00061071  0.67436884  0.49296738  1
  Cu  Cu96  1  0.17989218  0.16665925  0.24700809  1
  Cu  Cu97  1  0.49421528  0.16305824  0.75819868  1
  Cu  Cu98  1  0.67279941  0.33222094  0.00473575  1
  Cu  Cu99  1  0.84541526  0.15888280  0.74840584  1
  Cu  Cu100  1  0.00168886  -0.00343082  0.00222584  1
  Cu  Cu101  1  0.16997276  0.15892256  0.74728168  1
  Cu  Cu102  1  0.67223958  -0.00601783  0.00474943  1
  Cu  Cu103  1  0.17472055  0.83263546  0.76107605  1
  Cu  Cu104  1  0.66725276  0.66492826  0.49396250  1
  Cu  Cu105  1  0.00869026  0.33751476  0.49895564  1
  Cu  Cu106  1  0.66423088  0.33061678  0.50071127  1
  Cu  Cu107  1  -0.00171386  0.33388666  -0.00185546  1
  Cu  Cu108  1  0.33725513  0.66805792  0.49519528  1
  Cu  Cu109  1  0.33620433  0.33342513  0.00464993  1
  Cu  Cu110  1  0.68350217  0.66056641  0.01132578  1
  Cu  Cu111  1  0.16342586  0.50049154  0.24425090  1
  Cu  Cu112  1  0.33340163  0.00006530  0.49677324  1
  Cu  Cu113  1  0.16845993  0.84265032  0.23872748  1
  Cu  Cu114  1  0.84387552  0.50127167  0.25126616  1
  Se  Se115  1  0.08691105  0.08154742  0.04960148  1
  Se  Se116  1  0.09050120  0.07315186  0.54821956  1
  Se  Se117  1  0.08345198  0.41408665  0.05301789  1
  Se  Se118  1  0.08706267  0.42322188  0.55380585  1
  Se  Se119  1  0.08592025  0.74622855  0.05195723  1
  Se  Se120  1  0.08163539  0.74941447  0.55625939  1
  Se  Se121  1  0.41164146  0.07793133  0.04333426  1
  Se  Se122  1  0.41419305  0.07851933  0.55568784  1
  Se  Se123  1  0.41698877  0.41804143  0.05834584  1
  Se  Se124  1  0.41356283  0.41476538  0.55867452  1
  Se  Se125  1  0.42263300  0.74027306  0.06118259  1
  Se  Se126  1  0.41526134  0.74584359  0.55736071  1
  Se  Se127  1  0.74964361  0.07219900  0.06700942  1
  Se  Se128  1  0.74585873  0.07602251  0.55993091  1
  Se  Se129  1  0.76035652  0.41301511  0.05325491  1
  Se  Se130  1  0.74577255  0.41715040  0.55120718  1
  Se  Se131  1  0.75587858  0.75007312  0.06369969  1
  Se  Se132  1  0.74712527  0.75200713  0.54618955  1
  Se  Se133  1  0.25172136  0.24823378  0.05369626  1
  Se  Se134  1  0.25012131  0.25376264  0.55090688  1
  Se  Se135  1  0.25610131  0.57925138  0.05101200  1
  Se  Se136  1  0.25059054  0.58968193  0.54799964  1
  Se  Se137  1  0.25191712  0.91109016  0.04452355  1
  Se  Se138  1  0.25926068  0.91401631  0.55740067  1
  Se  Se139  1  0.58866016  0.24564635  0.05156701  1
  Se  Se140  1  0.57950464  0.24932410  0.55218795  1
  Se  Se141  1  0.59182240  0.58116950  0.05994549  1
  Se  Se142  1  0.58154584  0.58741942  0.55331718  1
  Se  Se143  1  0.58598801  0.91001325  0.05425154  1
  Se  Se144  1  0.58355822  0.92597232  0.56800269  1
  Se  Se145  1  0.92739643  0.25350615  0.06371224  1
  Se  Se146  1  0.93043692  0.25559882  0.56125788  1
  Se  Se147  1  0.91553360  0.58702097  0.05914716  1
  Se  Se148  1  0.91993624  0.58974628  0.55039280  1
  Se  Se149  1  0.91937357  0.91191404  0.05251780  1
  Se  Se150  1  0.92215947  0.91094238  0.55419408  1
  Se  Se151  1  0.08656051  0.25123027  0.44559909  1
  Se  Se152  1  0.07946084  0.25262627  0.94301056  1
  Se  Se153  1  0.08539448  0.58985059  0.44489629  1
  Se  Se154  1  0.07640710  0.58313453  0.94982327  1
  Se  Se155  1  0.07357905  0.91431688  0.42794274  1
  Se  Se156  1  0.07911604  0.91885944  0.93892523  1
  Se  Se157  1  0.41571350  0.24880648  0.44456368  1
  Se  Se158  1  0.41559569  0.25340599  0.94483029  1
  Se  Se159  1  0.41526335  0.59706379  0.42867184  1
  Se  Se160  1  0.43736784  0.57774348  0.92900655  1
  Se  Se161  1  0.40545123  0.91450450  0.43537022  1
  Se  Se162  1  0.43155244  0.88924402  0.94195159  1
  Se  Se163  1  0.74525136  0.25098346  0.43972786  1
  Se  Se164  1  0.74869423  0.25410660  0.93766567  1
  Se  Se165  1  0.75285894  0.57941916  0.44712537  1
  Se  Se166  1  0.75767539  0.57709558  0.94832764  1
  Se  Se167  1  0.73527937  0.92032458  0.44291622  1
  Se  Se168  1  0.75238160  0.91194267  0.94937267  1
  Se  Se169  1  0.24863461  0.07918773  0.44239488  1
  Se  Se170  1  0.23423742  0.09083082  0.94040396  1
  Se  Se171  1  0.25494404  0.42111908  0.44380958  1
  Se  Se172  1  0.25364050  0.41400473  0.94920651  1
  Se  Se173  1  0.26192081  0.74797000  0.43203372  1
  Se  Se174  1  0.25717789  0.72809622  0.94397666  1
  Se  Se175  1  0.57517281  0.07765796  0.45190109  1
  Se  Se176  1  0.59025329  0.08084721  0.95300123  1
  Se  Se177  1  0.59318184  0.40629421  0.43230902  1
  Se  Se178  1  0.59059626  0.41022248  0.94574551  1
  Se  Se179  1  0.58053324  0.73806376  0.43425444  1
  Se  Se180  1  0.60599455  0.72340926  0.93995871  1
  Se  Se181  1  0.92441794  0.07463149  0.43896696  1
  Se  Se182  1  0.91939246  0.07742065  0.94099611  1
  Se  Se183  1  0.91959378  0.41715645  0.45017328  1
  Se  Se184  1  0.91632609  0.41719773  0.94562393  1
  Se  Se185  1  0.91646377  0.75451318  0.43783249  1
  Se  Se186  1  0.91681981  0.75131325  0.94202894  1
  Se  Se187  1  0.25389460  0.25133938  0.30631812  1
  Se  Se188  1  0.23929282  0.25010733  0.80526240  1
  Se  Se189  1  0.24242169  0.58087329  0.30334007  1
  Se  Se190  1  0.23858298  0.57815938  0.82170546  1
  Se  Se191  1  0.25325336  0.91823805  0.29668050  1
  Se  Se192  1  0.25671734  0.90443307  0.82306846  1
  Se  Se193  1  0.57469066  0.23475398  0.30787794  1
  Se  Se194  1  0.57469520  0.25070804  0.80968479  1
  Se  Se195  1  0.56513229  0.54964646  0.30115322  1
  Se  Se196  1  0.57022344  0.59248558  0.80942189  1
  Se  Se197  1  0.56873555  0.90584267  0.30844471  1
  Se  Se198  1  0.57274768  0.92667240  0.81997399  1
  Se  Se199  1  0.91207383  0.23298729  0.31036309  1
  Se  Se200  1  0.91583383  0.24624095  0.80843506  1
  Se  Se201  1  0.92100193  0.58536420  0.30785382  1
  Se  Se202  1  0.91316800  0.58996934  0.80405125  1
  Se  Se203  1  0.93008600  0.93911536  0.30163429  1
  Se  Se204  1  0.91770188  0.91773203  0.79943916  1
  Se  Se205  1  0.09369428  0.08721416  0.30034595  1
  Se  Se206  1  0.08081877  0.07913762  0.79610600  1
  Se  Se207  1  0.08890653  0.42259745  0.31147237  1
  Se  Se208  1  0.08323166  0.42512059  0.80805220  1
  Se  Se209  1  0.09152415  0.75855333  0.29704626  1
  Se  Se210  1  0.08006625  0.75125214  0.80179401  1
  Se  Se211  1  0.41239338  0.08069427  0.30450519  1
  Se  Se212  1  0.41278116  0.08422974  0.81473867  1
  Se  Se213  1  0.42806922  0.42656203  0.30117129  1
  Se  Se214  1  0.40425963  0.43233758  0.81472716  1
  Se  Se215  1  0.39656681  0.72188275  0.28643419  1
  Se  Se216  1  0.43996237  0.74780371  0.82955662  1
  Se  Se217  1  0.75076065  0.08484673  0.30827739  1
  Se  Se218  1  0.75920489  0.08931365  0.81059827  1
  Se  Se219  1  0.76526885  0.41800501  0.31021045  1
  Se  Se220  1  0.74721173  0.43164798  0.80858588  1
  Se  Se221  1  0.73602624  0.73098750  0.30651803  1
  Se  Se222  1  0.75109809  0.76087635  0.80892845  1
  Se  Se223  1  0.25423516  0.08177429  0.18808624  1
  Se  Se224  1  0.25728741  0.07902867  0.69603238  1
  Se  Se225  1  0.25273903  0.42118709  0.19487946  1
  Se  Se226  1  0.24210864  0.43268551  0.69301498  1
  Se  Se227  1  0.24240261  0.75212489  0.18528532  1
  Se  Se228  1  0.24978208  0.74992557  0.69697959  1
  Se  Se229  1  0.57190429  0.08454813  0.18702706  1
  Se  Se230  1  0.57647685  0.09057631  0.69389915  1
  Se  Se231  1  0.58578025  0.41381062  0.18219904  1
  Se  Se232  1  0.56755275  0.43154869  0.69634909  1
  Se  Se233  1  0.59010621  0.73995657  0.20119650  1
  Se  Se234  1  0.57031374  0.76870141  0.69825007  1
  Se  Se235  1  0.90731131  0.09575959  0.19194197  1
  Se  Se236  1  0.92537003  0.07658897  0.69491666  1
  Se  Se237  1  0.92046274  0.41656726  0.19335261  1
  Se  Se238  1  0.90778422  0.42588029  0.68807670  1
  Se  Se239  1  0.92511291  0.75651782  0.19800217  1
  Se  Se240  1  0.91900780  0.74812714  0.69262225  1
  Se  Se241  1  0.09818176  0.24761737  0.18827928  1
  Se  Se242  1  0.09405397  0.24175599  0.68506842  1
  Se  Se243  1  0.08313775  0.58542474  0.19241255  1
  Se  Se244  1  0.08125592  0.59072078  0.69459292  1
  Se  Se245  1  0.08599628  0.92257405  0.18383828  1
  Se  Se246  1  0.09951961  0.91093906  0.69585375  1
  Se  Se247  1  0.41329441  0.24787576  0.18955818  1
  Se  Se248  1  0.42065588  0.24019152  0.69065054  1
  Se  Se249  1  0.40102958  0.60213013  0.19679932  1
  Se  Se250  1  0.40978039  0.59076082  0.69680295  1
  Se  Se251  1  0.41569660  0.91143215  0.18852201  1
  Se  Se252  1  0.40785100  0.91664355  0.70978270  1
  Se  Se253  1  0.75696861  0.24049309  0.19894521  1
  Se  Se254  1  0.76138659  0.23906879  0.69279065  1
  Se  Se255  1  0.75765699  0.57961999  0.19762885  1
  Se  Se256  1  0.75536279  0.58195761  0.68413503  1
  Se  Se257  1  0.75287533  0.90658981  0.19311377  1
  Se  Se258  1  0.75505208  0.90894312  0.68891357  1
