# generated using pymatgen
data_In86Cu29Se144
_symmetry_space_group_name_H-M   'P 1'
_cell_length_a   17.60796795
_cell_length_b   17.60540030
_cell_length_c   23.45769900
_cell_angle_alpha   90.01609276
_cell_angle_beta   89.97317378
_cell_angle_gamma   90.00860938
_symmetry_Int_Tables_number   1
_chemical_formula_structural   In86Cu29Se144
_chemical_formula_sum   'In86 Cu29 Se144'
_cell_volume   7271.77584079
_cell_formula_units_Z   1
loop_
 _symmetry_equiv_pos_site_id
 _symmetry_equiv_pos_as_xyz
  1  'x, y, z'
loop_
 _atom_site_type_symbol
 _atom_site_label
 _atom_site_symmetry_multiplicity
 _atom_site_fract_x
 _atom_site_fract_y
 _atom_site_fract_z
 _atom_site_occupancy
  In  In0  1  -0.01042909  0.17306786  0.11391916  1
  In  In1  1  -0.01731488  0.17064504  0.64538493  1
  In  In2  1  -0.00089876  0.50419337  0.11951739  1
  In  In3  1  -0.00313418  0.50295533  0.63145492  1
  In  In4  1  0.00279475  0.83633647  0.11683507  1
  In  In5  1  -0.00007068  0.83120123  0.63037381  1
  In  In6  1  0.33859683  0.15851069  0.12655312  1
  In  In7  1  0.33188327  0.16321902  0.63522946  1
  In  In8  1  0.32291925  0.49964527  0.12949213  1
  In  In9  1  0.33460914  0.50268500  0.62727335  1
  In  In10  1  0.33218160  0.83506466  0.11297164  1
  In  In11  1  0.33155312  0.83495209  0.62530504  1
  In  In12  1  0.62674743  0.11753174  0.06566519  1
  In  In13  1  0.67377502  0.16404680  0.64160059  1
  In  In14  1  0.66560696  0.48796045  0.11900777  1
  In  In15  1  0.65860393  0.49898981  0.62459795  1
  In  In16  1  0.66652603  0.83379309  0.11184066  1
  In  In17  1  0.66990981  0.83459782  0.62502251  1
  In  In18  1  0.17797181  -0.01454227  0.37835457  1
  In  In19  1  0.16443367  -0.00510789  0.87445359  1
  In  In20  1  0.17675624  0.32548198  0.38305421  1
  In  In21  1  0.16858036  0.33178719  0.86665112  1
  In  In22  1  0.16368735  0.67062732  0.38632625  1
  In  In23  1  0.17482063  0.67794367  0.86767297  1
  In  In24  1  0.48728520  0.00105141  0.37355733  1
  In  In25  1  0.49648355  -0.00220648  0.88242401  1
  In  In26  1  0.49992313  0.34208283  0.37846508  1
  In  In27  1  0.49360611  0.31864204  0.86868041  1
  In  In28  1  0.49483527  0.67117387  0.38644149  1
  In  In29  1  0.49729491  0.68154528  0.87492776  1
  In  In30  1  0.83053855  -0.00115783  0.37711282  1
  In  In31  1  0.83236148  0.00117501  0.87595865  1
  In  In32  1  0.84190084  0.33548645  0.37789371  1
  In  In33  1  0.83548415  0.33119726  0.86048189  1
  In  In34  1  0.83053511  0.66847089  0.38394297  1
  In  In35  1  0.84210414  0.65810808  0.87372520  1
  In  In36  1  -0.00794364  0.17611752  0.37351227  1
  In  In37  1  -0.01987752  0.15862131  0.85024540  1
  In  In38  1  -0.00524342  0.50952741  0.38944386  1
  In  In39  1  -0.01503200  0.49694188  0.85688429  1
  In  In40  1  0.00381993  0.83422149  0.38214315  1
  In  In41  1  -0.00070801  0.82861455  0.87339199  1
  In  In42  1  0.33595796  0.16349284  0.36614079  1
  In  In43  1  0.33777500  0.16540933  0.87917796  1
  In  In44  1  0.33720016  0.49410082  0.38645344  1
  In  In45  1  0.33689631  0.50328299  0.86716594  1
  In  In46  1  0.32965946  0.83887345  0.37974026  1
  In  In47  1  0.32920149  0.83266444  0.87951641  1
  In  In48  1  0.66765392  0.16508187  0.37361617  1
  In  In49  1  0.66722432  0.15738416  0.86917142  1
  In  In50  1  0.66204698  0.50251669  0.39078805  1
  In  In51  1  0.69082604  0.49676278  0.86379760  1
  In  In52  1  0.67274480  0.83018285  0.38039375  1
  In  In53  1  0.66122466  0.85180560  0.88636133  1
  In  In54  1  0.17765417  -0.00880894  0.12199426  1
  In  In55  1  0.17167354  -0.00967765  0.63329752  1
  In  In56  1  0.16570774  0.34388152  0.12840362  1
  In  In57  1  0.15584150  0.34674446  0.63445029  1
  In  In58  1  0.16543636  0.66708265  0.12220608  1
  In  In59  1  0.16653122  0.67107659  0.62675644  1
  In  In60  1  0.47713691  -0.02370026  0.09411356  1
  In  In61  1  0.50940997  -0.00847975  0.63201095  1
  In  In62  1  0.50247585  0.32254756  0.12314357  1
  In  In63  1  0.48951161  0.33837492  0.63401794  1
  In  In64  1  0.49127631  0.68976372  0.11703013  1
  In  In65  1  0.49065861  0.66022786  0.62256368  1
  In  In66  1  0.81955324  -0.00684826  0.10016530  1
  In  In67  1  0.84203467  -0.01498311  0.64334896  1
  In  In68  1  0.82246136  0.32556066  0.10975778  1
  In  In69  1  0.80824826  0.35878635  0.66140905  1
  In  In70  1  0.84266448  0.66737806  0.11578163  1
  In  In71  1  0.83944472  0.67445321  0.62606828  1
  In  In72  1  0.00347141  0.66932556  0.25253929  1
  In  In73  1  0.00245060  0.33574825  0.25147905  1
  In  In74  1  0.16363007  0.50879472  -0.00002835  1
  In  In75  1  0.83277726  0.16648401  0.51539801  1
  In  In76  1  0.33508898  0.67081808  0.24739099  1
  In  In77  1  0.67266247  0.66132088  0.25955394  1
  In  In78  1  0.66346699  0.67018621  0.75015549  1
  In  In79  1  0.50524814  0.50364856  -0.00823466  1
  In  In80  1  0.16774674  0.16412876  -0.00937606  1
  In  In81  1  0.50469997  0.16754518  0.50122209  1
  In  In82  1  0.00470548  0.00465650  0.24862417  1
  In  In83  1  0.66982645  0.32597965  0.24862598  1
  In  In84  1  0.16239805  0.16478083  0.51304124  1
  In  In85  1  0.65761768  -0.00232177  0.22945916  1
  Cu  Cu86  1  0.17417158  0.49429397  0.25805896  1
  Cu  Cu87  1  0.82786829  0.83646321  0.75444346  1
  Cu  Cu88  1  0.66948492  0.66835946  0.50703621  1
  Cu  Cu89  1  0.67422889  0.66263581  -0.00516898  1
  Cu  Cu90  1  0.67084367  0.33487093  0.51131759  1
  Cu  Cu91  1  -0.00504782  0.65986915  -0.00768312  1
  Cu  Cu92  1  0.17198688  0.16154958  0.24901518  1
  Cu  Cu93  1  0.00068998  0.66815607  0.50834424  1
  Cu  Cu94  1  0.82146719  0.16021658  0.23344065  1
  Cu  Cu95  1  0.67021711  -0.01267676  0.50540246  1
  Cu  Cu96  1  0.33236514  0.34259713  0.50576420  1
  Cu  Cu97  1  0.16512030  0.83515920  0.75120922  1
  Cu  Cu98  1  0.17305814  0.51089943  0.74539105  1
  Cu  Cu99  1  -0.00133238  -0.00411729  0.50879544  1
  Cu  Cu100  1  0.33333616  0.66623812  0.50534450  1
  Cu  Cu101  1  0.33496699  -0.00512451  0.50274044  1
  Cu  Cu102  1  0.49106565  0.16316211  0.24082193  1
  Cu  Cu103  1  0.67450374  0.33568922  -0.01151967  1
  Cu  Cu104  1  0.50268475  0.84076285  0.24187933  1
  Cu  Cu105  1  0.49158254  0.84076680  0.75665654  1
  Cu  Cu106  1  0.49956535  0.49677896  0.74918328  1
  Cu  Cu107  1  0.17873262  0.15787420  0.75504357  1
  Cu  Cu108  1  0.48840609  0.49818678  0.25567813  1
  Cu  Cu109  1  -0.00432145  0.34327938  0.51085448  1
  Cu  Cu110  1  0.33505417  0.33438442  0.00002178  1
  Cu  Cu111  1  -0.00760951  0.33361513  -0.01739174  1
  Cu  Cu112  1  0.83105113  0.49477705  0.24751959  1
  Cu  Cu113  1  -0.00114678  0.00081646  -0.01014484  1
  Cu  Cu114  1  0.49958077  0.16007445  0.75539895  1
  Se  Se115  1  0.07754837  0.07752013  0.05626242  1
  Se  Se116  1  0.06887272  0.07875707  0.57157084  1
  Se  Se117  1  0.07220519  0.40475269  0.05034026  1
  Se  Se118  1  0.08403292  0.42561564  0.55839995  1
  Se  Se119  1  0.07470756  0.73705532  0.05409623  1
  Se  Se120  1  0.08421219  0.75566351  0.55745639  1
  Se  Se121  1  0.42367941  0.09849424  0.04988654  1
  Se  Se122  1  0.41334107  0.07912782  0.56037284  1
  Se  Se123  1  0.41296705  0.41882501  0.05901597  1
  Se  Se124  1  0.42136925  0.42060053  0.55777585  1
  Se  Se125  1  0.42946741  0.77268645  0.04102616  1
  Se  Se126  1  0.41634090  0.75243665  0.55596870  1
  Se  Se127  1  0.77343798  0.11388250  0.05091217  1
  Se  Se128  1  0.74473557  0.06917239  0.56772443  1
  Se  Se129  1  0.75111362  0.42231367  0.04488655  1
  Se  Se130  1  0.75450821  0.41335614  0.56676549  1
  Se  Se131  1  0.75413693  0.74754140  0.05088881  1
  Se  Se132  1  0.75365061  0.75359471  0.55651301  1
  Se  Se133  1  0.24845402  0.25780363  0.05863217  1
  Se  Se134  1  0.25622259  0.25864930  0.56496051  1
  Se  Se135  1  0.26398767  0.59509304  0.05447920  1
  Se  Se136  1  0.25002473  0.58460580  0.55923801  1
  Se  Se137  1  0.23279949  0.90066106  0.04742681  1
  Se  Se138  1  0.24657989  0.91691728  0.55485966  1
  Se  Se139  1  0.58847290  0.26221850  0.04714221  1
  Se  Se140  1  0.59177475  0.25090019  0.56783293  1
  Se  Se141  1  0.58811474  0.59463501  0.06112241  1
  Se  Se142  1  0.58176774  0.58430525  0.55518895  1
  Se  Se143  1  0.61251133  0.94874140  0.05532978  1
  Se  Se144  1  0.57924775  0.91017769  0.55551587  1
  Se  Se145  1  0.91343865  0.25217079  0.04136858  1
  Se  Se146  1  0.91754628  0.26245938  0.57041756  1
  Se  Se147  1  0.91456318  0.57468687  0.04780708  1
  Se  Se148  1  0.91601274  0.58368538  0.55901390  1
  Se  Se149  1  0.92079776  0.91440560  0.04608355  1
  Se  Se150  1  0.91308012  0.91518705  0.56179505  1
  Se  Se151  1  0.06967101  0.25626383  0.45084159  1
  Se  Se152  1  0.07491104  0.24912080  0.93020897  1
  Se  Se153  1  0.08551434  0.58474117  0.45442630  1
  Se  Se154  1  0.07625872  0.58468236  0.93014649  1
  Se  Se155  1  0.08355032  0.92229650  0.44846159  1
  Se  Se156  1  0.08207901  0.91290578  0.94321482  1
  Se  Se157  1  0.40615755  0.25529389  0.44495512  1
  Se  Se158  1  0.41832033  0.25024885  0.94899787  1
  Se  Se159  1  0.41768723  0.58141408  0.45214071  1
  Se  Se160  1  0.40747837  0.59402677  0.94251396  1
  Se  Se161  1  0.42063049  0.91568786  0.44773384  1
  Se  Se162  1  0.42835185  0.89793158  0.94840840  1
  Se  Se163  1  0.74383530  0.25478703  0.44532151  1
  Se  Se164  1  0.75089694  0.25242345  0.93058930  1
  Se  Se165  1  0.75199081  0.58312610  0.45266034  1
  Se  Se166  1  0.75495116  0.57789866  0.94281445  1
  Se  Se167  1  0.75710995  0.91366784  0.44765036  1
  Se  Se168  1  0.75930125  0.91946076  0.95023130  1
  Se  Se169  1  0.25697061  0.08438170  0.44633354  1
  Se  Se170  1  0.26208719  0.06668362  0.94620331  1
  Se  Se171  1  0.24316309  0.41838639  0.45198587  1
  Se  Se172  1  0.25458936  0.41486795  0.94194618  1
  Se  Se173  1  0.25417930  0.75152646  0.44881511  1
  Se  Se174  1  0.23678587  0.75727113  0.94717868  1
  Se  Se175  1  0.59496181  0.07099279  0.44335031  1
  Se  Se176  1  0.58206929  0.08950976  0.94573190  1
  Se  Se177  1  0.58366279  0.40958894  0.45337865  1
  Se  Se178  1  0.59066478  0.41448437  0.92887764  1
  Se  Se179  1  0.58875917  0.74971310  0.44799719  1
  Se  Se180  1  0.58926867  0.74767544  0.94567737  1
  Se  Se181  1  0.92391585  0.08095805  0.44708475  1
  Se  Se182  1  0.92214853  0.09036453  0.93827625  1
  Se  Se183  1  0.91107382  0.41884817  0.45105648  1
  Se  Se184  1  0.91047832  0.42034362  0.93351905  1
  Se  Se185  1  0.92085752  0.74831618  0.44761733  1
  Se  Se186  1  0.91283519  0.74909267  0.94359571  1
  Se  Se187  1  0.24753226  0.25027257  0.30486882  1
  Se  Se188  1  0.25804894  0.24609549  0.80664405  1
  Se  Se189  1  0.24881542  0.58318804  0.31364801  1
  Se  Se190  1  0.25636386  0.59032388  0.80166080  1
  Se  Se191  1  0.26306215  0.92213795  0.30406868  1
  Se  Se192  1  0.25087818  0.91482431  0.80645190  1
  Se  Se193  1  0.57047825  0.23806861  0.30679338  1
  Se  Se194  1  0.58626353  0.24703936  0.80165623  1
  Se  Se195  1  0.57177060  0.57413965  0.31377131  1
  Se  Se196  1  0.57695679  0.57707310  0.81278114  1
  Se  Se197  1  0.58261099  0.91462926  0.30778062  1
  Se  Se198  1  0.58029527  0.91971571  0.80865865  1
  Se  Se199  1  0.89770609  0.24076240  0.29707819  1
  Se  Se200  1  0.94596603  0.28122369  0.79402102  1
  Se  Se201  1  0.90900698  0.57536866  0.30807767  1
  Se  Se202  1  0.91342711  0.59189427  0.79185634  1
  Se  Se203  1  0.91523389  0.91442400  0.30893350  1
  Se  Se204  1  0.91563091  0.91562780  0.80766673  1
  Se  Se205  1  0.09078068  0.09375361  0.31574596  1
  Se  Se206  1  0.08642980  0.07829140  0.80241492  1
  Se  Se207  1  0.08613434  0.42358411  0.31783557  1
  Se  Se208  1  0.09545567  0.42779175  0.80351983  1
  Se  Se209  1  0.09569676  0.75958574  0.30894785  1
  Se  Se210  1  0.08044448  0.74881997  0.80065849  1
  Se  Se211  1  0.41413064  0.07766393  0.29747475  1
  Se  Se212  1  0.41562054  0.07888221  0.81025243  1
  Se  Se213  1  0.40949087  0.41370712  0.30914664  1
  Se  Se214  1  0.41659331  0.41288461  0.80377362  1
  Se  Se215  1  0.42982107  0.75722404  0.30578075  1
  Se  Se216  1  0.40955023  0.75180106  0.80442268  1
  Se  Se217  1  0.74972107  0.08258747  0.30090510  1
  Se  Se218  1  0.76847667  0.09376793  0.80152579  1
  Se  Se219  1  0.75125906  0.42245775  0.31241593  1
  Se  Se220  1  0.75630305  0.41481171  0.78809299  1
  Se  Se221  1  0.76553120  0.75929204  0.30579212  1
  Se  Se222  1  0.74785021  0.75683646  0.81621959  1
  Se  Se223  1  0.25037140  0.07886221  0.19284850  1
  Se  Se224  1  0.25781645  0.07124915  0.70093135  1
  Se  Se225  1  0.25279785  0.41227011  0.20182398  1
  Se  Se226  1  0.25387354  0.41837226  0.69761111  1
  Se  Se227  1  0.24332322  0.75800463  0.18979162  1
  Se  Se228  1  0.24985825  0.75365736  0.69617457  1
  Se  Se229  1  0.57185310  0.09260142  0.17522151  1
  Se  Se230  1  0.58419035  0.07825848  0.70185608  1
  Se  Se231  1  0.57472411  0.42259829  0.19606610  1
  Se  Se232  1  0.58449873  0.41449221  0.69768150  1
  Se  Se233  1  0.58687039  0.75389919  0.19243859  1
  Se  Se234  1  0.56881220  0.75837738  0.69309095  1
  Se  Se235  1  0.91072919  0.08184543  0.18236734  1
  Se  Se236  1  0.90024325  0.08589286  0.71093137  1
  Se  Se237  1  0.90857656  0.41584276  0.18617690  1
  Se  Se238  1  0.94039512  0.39760101  0.69975511  1
  Se  Se239  1  0.91391042  0.75592913  0.19079211  1
  Se  Se240  1  0.91294026  0.75359269  0.70139411  1
  Se  Se241  1  0.08756657  0.23923667  0.19022837  1
  Se  Se242  1  0.10005559  0.23429436  0.69264842  1
  Se  Se243  1  0.09313327  0.56971634  0.19486619  1
  Se  Se244  1  0.08240997  0.58997808  0.69598710  1
  Se  Se245  1  0.09038832  0.90824717  0.19309634  1
  Se  Se246  1  0.07837824  0.91836302  0.70034804  1
  Se  Se247  1  0.41071966  0.25489160  0.19330288  1
  Se  Se248  1  0.41783047  0.24525996  0.70073639  1
  Se  Se249  1  0.42913380  0.58192615  0.18622797  1
  Se  Se250  1  0.41663363  0.58416982  0.69940790  1
  Se  Se251  1  0.41821647  0.91501380  0.18364673  1
  Se  Se252  1  0.41191824  0.92019017  0.69588021  1
  Se  Se253  1  0.74007384  0.23909699  0.17714396  1
  Se  Se254  1  0.76181381  0.23633820  0.70990339  1
  Se  Se255  1  0.75395592  0.57585626  0.18747150  1
  Se  Se256  1  0.75267097  0.58185797  0.69101993  1
  Se  Se257  1  0.76076317  0.90828837  0.18472992  1
  Se  Se258  1  0.73768654  0.91490622  0.70310582  1
