# generated using pymatgen
data_In86Cu29Se144
_symmetry_space_group_name_H-M   'P 1'
_cell_length_a   17.58236266
_cell_length_b   17.58119871
_cell_length_c   23.44225373
_cell_angle_alpha   90.03089031
_cell_angle_beta   90.01566181
_cell_angle_gamma   89.96871198
_symmetry_Int_Tables_number   1
_chemical_formula_structural   In86Cu29Se144
_chemical_formula_sum   'In86 Cu29 Se144'
_cell_volume   7246.44390226
_cell_formula_units_Z   1
loop_
 _symmetry_equiv_pos_site_id
 _symmetry_equiv_pos_as_xyz
  1  'x, y, z'
loop_
 _atom_site_type_symbol
 _atom_site_label
 _atom_site_symmetry_multiplicity
 _atom_site_fract_x
 _atom_site_fract_y
 _atom_site_fract_z
 _atom_site_occupancy
  In  In0  1  -0.01098712  0.17021925  0.12093252  1
  In  In1  1  -0.00255717  0.16715646  0.63204812  1
  In  In2  1  0.00607184  0.50661955  0.10065877  1
  In  In3  1  -0.00421803  0.49697823  0.64298894  1
  In  In4  1  0.00456730  0.83051548  0.13210697  1
  In  In5  1  0.01085792  0.82488295  0.63833109  1
  In  In6  1  0.34731314  0.17324522  0.12091470  1
  In  In7  1  0.32696239  0.17382585  0.63067316  1
  In  In8  1  0.33778973  0.50035105  0.12182892  1
  In  In9  1  0.34163621  0.49010078  0.62841832  1
  In  In10  1  0.32082440  0.82326653  0.12807586  1
  In  In11  1  0.33314255  0.82332455  0.62661337  1
  In  In12  1  0.68381213  0.17093176  0.12517807  1
  In  In13  1  0.66750863  0.15424283  0.62125903  1
  In  In14  1  0.66805103  0.50000818  0.12584719  1
  In  In15  1  0.67239331  0.51070800  0.62771230  1
  In  In16  1  0.65873099  0.82447875  0.13012562  1
  In  In17  1  0.66124156  0.83124888  0.62546884  1
  In  In18  1  0.15344982  -0.00213947  0.37483690  1
  In  In19  1  0.15653924  -0.01022623  0.85843826  1
  In  In20  1  0.17097990  0.33492727  0.36732395  1
  In  In21  1  0.17397184  0.34277855  0.87193305  1
  In  In22  1  0.17772785  0.67821519  0.36886341  1
  In  In23  1  0.15308293  0.65686058  0.86278063  1
  In  In24  1  0.48804584  -0.00591998  0.38071914  1
  In  In25  1  0.49127758  -0.00829885  0.86054112  1
  In  In26  1  0.51217868  0.34785702  0.36885983  1
  In  In27  1  0.50242678  0.34889949  0.87694455  1
  In  In28  1  0.49722280  0.66676489  0.37747517  1
  In  In29  1  0.49198013  0.66100364  0.87091841  1
  In  In30  1  0.84827687  0.00395724  0.37934091  1
  In  In31  1  0.84352869  0.01274343  0.86788448  1
  In  In32  1  0.81966848  0.33952897  0.37867532  1
  In  In33  1  0.84416979  0.32939439  0.89063146  1
  In  In34  1  0.82972430  0.66613963  0.36611710  1
  In  In35  1  0.82581260  0.65203313  0.86177363  1
  In  In36  1  0.00603693  0.15668930  0.37653207  1
  In  In37  1  -0.01271772  0.15817886  0.87707489  1
  In  In38  1  -0.00398413  0.50359321  0.36858318  1
  In  In39  1  0.00055796  0.50230547  0.87785725  1
  In  In40  1  0.00109379  0.84046762  0.37416022  1
  In  In41  1  0.00251908  0.83012043  0.86267899  1
  In  In42  1  0.32229418  0.16584383  0.37285416  1
  In  In43  1  0.32583103  0.16351473  0.86364293  1
  In  In44  1  0.35017701  0.52581455  0.35934610  1
  In  In45  1  0.33363931  0.50069972  0.87629991  1
  In  In46  1  0.34643590  0.81476188  0.39314393  1
  In  In47  1  0.31068660  0.81748582  0.84798956  1
  In  In48  1  0.66828942  0.18832354  0.38033334  1
  In  In49  1  0.67958152  0.16964699  0.87449586  1
  In  In50  1  0.65379802  0.48972412  0.36884113  1
  In  In51  1  0.65971368  0.50480580  0.88408750  1
  In  In52  1  0.65634663  0.82017524  0.37011649  1
  In  In53  1  0.66245597  0.82829124  0.86383463  1
  In  In54  1  0.16372721  -0.01232366  0.12347277  1
  In  In55  1  0.18235613  -0.02468205  0.64706408  1
  In  In56  1  0.15849880  0.37222917  0.12427419  1
  In  In57  1  0.16350441  0.33279611  0.63301108  1
  In  In58  1  0.17490094  0.64517789  0.13752837  1
  In  In59  1  0.16304373  0.67687832  0.63335399  1
  In  In60  1  0.48914164  -0.00613927  0.12314695  1
  In  In61  1  0.51252974  -0.01043628  0.62762450  1
  In  In62  1  0.48570245  0.35044842  0.13443544  1
  In  In63  1  0.49178726  0.33130654  0.62146493  1
  In  In64  1  0.51840148  0.65813687  0.13912404  1
  In  In65  1  0.49825829  0.66202484  0.62414013  1
  In  In66  1  0.84150519  0.01666531  0.11915571  1
  In  In67  1  0.82686220  0.00402998  0.63067801  1
  In  In68  1  0.83379180  0.32734979  0.11699366  1
  In  In69  1  0.84940556  0.34186462  0.62964336  1
  In  In70  1  0.84603667  0.65756702  0.13261843  1
  In  In71  1  0.83134231  0.65819496  0.63946320  1
  In  In72  1  0.49980970  0.16386052  0.50225487  1
  In  In73  1  0.16104206  0.82618880  -0.01192599  1
  In  In74  1  0.66878775  0.33609528  0.75569548  1
  In  In75  1  0.32831584  -0.00473427  0.24976209  1
  In  In76  1  0.16446683  0.16212138  0.50621120  1
  In  In77  1  0.50915809  0.17732212  -0.00650147  1
  In  In78  1  0.49521466  0.82814807  0.00235321  1
  In  In79  1  0.16291154  0.17045607  0.00049031  1
  In  In80  1  0.67190072  0.00199987  0.25021986  1
  In  In81  1  0.82877903  0.50019350  0.50737140  1
  In  In82  1  0.16993968  0.50313528  0.49738132  1
  In  In83  1  0.83191768  0.83616531  0.50399854  1
  In  In84  1  0.83573654  0.83374967  -0.00256578  1
  In  In85  1  -0.00174348  0.33690159  0.24307089  1
  Cu  Cu86  1  0.82797565  0.83135430  0.74779625  1
  Cu  Cu87  1  0.16296568  0.83078907  0.25397786  1
  Cu  Cu88  1  0.33412213  0.65565912  0.00045050  1
  Cu  Cu89  1  0.49987762  0.50424796  0.24897470  1
  Cu  Cu90  1  0.50784675  0.17166060  0.24828472  1
  Cu  Cu91  1  0.66657739  0.33911559  0.00355702  1
  Cu  Cu92  1  0.32962869  0.34038329  -0.00032629  1
  Cu  Cu93  1  0.33364557  0.66575833  0.50084081  1
  Cu  Cu94  1  -0.00226843  0.33028497  0.50726190  1
  Cu  Cu95  1  0.83015580  0.50291886  0.24655816  1
  Cu  Cu96  1  0.82888780  0.16608644  0.75316181  1
  Cu  Cu97  1  0.66951117  -0.00463595  0.50277028  1
  Cu  Cu98  1  0.34149957  0.34266853  0.49419312  1
  Cu  Cu99  1  0.33442666  -0.00552688  -0.01477794  1
  Cu  Cu100  1  0.83568568  0.83785499  0.25189247  1
  Cu  Cu101  1  0.15461854  0.17504949  0.75444464  1
  Cu  Cu102  1  0.17199894  0.50196947  0.75171925  1
  Cu  Cu103  1  0.33141112  -0.01210158  0.50993146  1
  Cu  Cu104  1  0.49637966  0.50254640  0.75283190  1
  Cu  Cu105  1  0.00381470  0.67234104  0.50564812  1
  Cu  Cu106  1  0.50274527  0.82785956  0.74217427  1
  Cu  Cu107  1  0.00391284  0.66730641  -0.00331785  1
  Cu  Cu108  1  0.67133295  0.00257175  -0.00538899  1
  Cu  Cu109  1  0.49717060  0.16677762  0.74293588  1
  Cu  Cu110  1  0.83807008  0.17104174  0.24772491  1
  Cu  Cu111  1  0.16660137  0.17034451  0.24726723  1
  Cu  Cu112  1  0.00250727  0.00038306  0.50440831  1
  Cu  Cu113  1  0.66873829  0.66106321  0.00289465  1
  Cu  Cu114  1  0.65944504  0.66269163  0.49930557  1
  Se  Se115  1  0.07781810  0.07338052  0.05792859  1
  Se  Se116  1  0.08512581  0.07120183  0.56993891  1
  Se  Se117  1  0.06660690  0.39751309  0.04287745  1
  Se  Se118  1  0.07726735  0.41732768  0.56156123  1
  Se  Se119  1  0.08461300  0.74161099  0.06108854  1
  Se  Se120  1  0.08580655  0.75538127  0.55786658  1
  Se  Se121  1  0.41302554  0.07626528  0.04561887  1
  Se  Se122  1  0.40830509  0.07774654  0.56462511  1
  Se  Se123  1  0.42060845  0.41910222  0.05004037  1
  Se  Se124  1  0.42334351  0.42219187  0.55013720  1
  Se  Se125  1  0.40925052  0.73705012  0.06322040  1
  Se  Se126  1  0.41865874  0.74807854  0.55455212  1
  Se  Se127  1  0.75037694  0.08654165  0.04912744  1
  Se  Se128  1  0.75476280  0.07982986  0.55073939  1
  Se  Se129  1  0.75229500  0.42133459  0.05537828  1
  Se  Se130  1  0.74265626  0.40536627  0.56372647  1
  Se  Se131  1  0.74709844  0.74537739  0.06079942  1
  Se  Se132  1  0.74844052  0.73503603  0.55953046  1
  Se  Se133  1  0.25416272  0.25871315  0.06129090  1
  Se  Se134  1  0.25674398  0.26527144  0.55369330  1
  Se  Se135  1  0.24587621  0.57840991  0.05426812  1
  Se  Se136  1  0.25429217  0.58858988  0.56440185  1
  Se  Se137  1  0.25812099  0.91714234  0.05007464  1
  Se  Se138  1  0.24385115  0.90815512  0.56032236  1
  Se  Se139  1  0.58622714  0.25978170  0.06641120  1
  Se  Se140  1  0.59181677  0.25501165  0.55753277  1
  Se  Se141  1  0.58164012  0.58317460  0.05701046  1
  Se  Se142  1  0.58262766  0.57754111  0.55535154  1
  Se  Se143  1  0.59183560  0.92411963  0.05589320  1
  Se  Se144  1  0.58424965  0.91052518  0.55045263  1
  Se  Se145  1  0.91607336  0.24777999  0.04720088  1
  Se  Se146  1  0.91623351  0.24769059  0.55959519  1
  Se  Se147  1  0.90861654  0.59134520  0.04558324  1
  Se  Se148  1  0.92673575  0.58854782  0.56364689  1
  Se  Se149  1  0.92705820  0.91895516  0.05922981  1
  Se  Se150  1  0.92380194  0.91941492  0.56554803  1
  Se  Se151  1  0.08179931  0.25950924  0.44313821  1
  Se  Se152  1  0.07974602  0.25436816  0.93372726  1
  Se  Se153  1  0.07565566  0.59130973  0.44008070  1
  Se  Se154  1  0.09109298  0.58423353  0.94644034  1
  Se  Se155  1  0.08167251  0.91550059  0.44918922  1
  Se  Se156  1  0.07086185  0.92464727  0.93900168  1
  Se  Se157  1  0.41358114  0.25142940  0.43636522  1
  Se  Se158  1  0.40446457  0.25550623  0.93776651  1
  Se  Se159  1  0.41660641  0.58136689  0.44800846  1
  Se  Se160  1  0.42238993  0.57865342  0.94659866  1
  Se  Se161  1  0.42074697  0.91198569  0.45627346  1
  Se  Se162  1  0.40839721  0.90512785  0.93100570  1
  Se  Se163  1  0.76316048  0.24582654  0.45080371  1
  Se  Se164  1  0.74566750  0.25064245  0.95138231  1
  Se  Se165  1  0.74447977  0.58660627  0.43958876  1
  Se  Se166  1  0.75457582  0.58578682  0.94578847  1
  Se  Se167  1  0.74401182  0.91829102  0.43520871  1
  Se  Se168  1  0.74385561  0.91745874  0.93416511  1
  Se  Se169  1  0.25653744  0.06969536  0.44598887  1
  Se  Se170  1  0.24637530  0.07638384  0.93553771  1
  Se  Se171  1  0.25947373  0.41871431  0.43362507  1
  Se  Se172  1  0.24667445  0.42400436  0.94736717  1
  Se  Se173  1  0.24193880  0.74790823  0.45393911  1
  Se  Se174  1  0.25961407  0.73758528  0.93701836  1
  Se  Se175  1  0.59127614  0.07584859  0.43845052  1
  Se  Se176  1  0.58304230  0.07273853  0.93389291  1
  Se  Se177  1  0.59260977  0.40885720  0.44791295  1
  Se  Se178  1  0.57887028  0.42058977  0.95381030  1
  Se  Se179  1  0.57955013  0.75100894  0.44827838  1
  Se  Se180  1  0.58996228  0.74302751  0.94249794  1
  Se  Se181  1  0.92265874  0.08752774  0.45235994  1
  Se  Se182  1  0.90743852  0.08236085  0.95104286  1
  Se  Se183  1  0.92512913  0.41481874  0.44462015  1
  Se  Se184  1  0.91618854  0.42914049  0.95052092  1
  Se  Se185  1  0.91727184  0.74261631  0.44275187  1
  Se  Se186  1  0.92300858  0.74504786  0.93544540  1
  Se  Se187  1  0.25237979  0.25039471  0.29941324  1
  Se  Se188  1  0.24787926  0.25548611  0.80026542  1
  Se  Se189  1  0.23519499  0.57582191  0.30364425  1
  Se  Se190  1  0.25654733  0.58497422  0.80419304  1
  Se  Se191  1  0.24657176  0.90772020  0.31596802  1
  Se  Se192  1  0.26935700  0.94083237  0.79921481  1
  Se  Se193  1  0.58951120  0.25505474  0.30195502  1
  Se  Se194  1  0.57321233  0.24276193  0.81122904  1
  Se  Se195  1  0.58180134  0.58680823  0.30600045  1
  Se  Se196  1  0.58395319  0.58073298  0.80685268  1
  Se  Se197  1  0.57369714  0.91710378  0.30640020  1
  Se  Se198  1  0.58319140  0.91462211  0.79621584  1
  Se  Se199  1  0.91695179  0.24933094  0.31228324  1
  Se  Se200  1  0.90812376  0.24869978  0.81026647  1
  Se  Se201  1  0.91561033  0.58472430  0.29940929  1
  Se  Se202  1  0.94724063  0.60865989  0.81063057  1
  Se  Se203  1  0.91843296  0.92250423  0.30402281  1
  Se  Se204  1  0.91066127  0.91388520  0.80224319  1
  Se  Se205  1  0.08613532  0.08528590  0.30047792  1
  Se  Se206  1  0.07316538  0.08648112  0.80320837  1
  Se  Se207  1  0.09113290  0.42708092  0.30179609  1
  Se  Se208  1  0.08506735  0.42246945  0.80576139  1
  Se  Se209  1  0.07648323  0.74952868  0.30699910  1
  Se  Se210  1  0.11656560  0.77749738  0.80532428  1
  Se  Se211  1  0.42435061  0.09049487  0.30595652  1
  Se  Se212  1  0.41314590  0.08402805  0.79689689  1
  Se  Se213  1  0.41713525  0.41750174  0.30216289  1
  Se  Se214  1  0.41444881  0.41576496  0.80458290  1
  Se  Se215  1  0.40545436  0.74301574  0.31051751  1
  Se  Se216  1  0.42032638  0.74603130  0.79772033  1
  Se  Se217  1  0.75855542  0.09293764  0.31187267  1
  Se  Se218  1  0.74335508  0.07950669  0.80125420  1
  Se  Se219  1  0.75027495  0.41833753  0.30179781  1
  Se  Se220  1  0.75409667  0.41770874  0.82204296  1
  Se  Se221  1  0.74903794  0.75379599  0.30017592  1
  Se  Se222  1  0.74536945  0.74340600  0.79825947  1
  Se  Se223  1  0.24675123  0.08972128  0.18469202  1
  Se  Se224  1  0.23878864  0.09587526  0.69651959  1
  Se  Se225  1  0.26503565  0.40867491  0.19122072  1
  Se  Se226  1  0.25142374  0.41519829  0.69661051  1
  Se  Se227  1  0.24503784  0.74515977  0.20152703  1
  Se  Se228  1  0.24785171  0.75573251  0.70198551  1
  Se  Se229  1  0.57785895  0.08764033  0.18523635  1
  Se  Se230  1  0.58493416  0.08319646  0.69522411  1
  Se  Se231  1  0.58535058  0.41913385  0.19775201  1
  Se  Se232  1  0.57625508  0.42036964  0.69229521  1
  Se  Se233  1  0.57930927  0.75814323  0.20552589  1
  Se  Se234  1  0.58712132  0.74030931  0.69307349  1
  Se  Se235  1  0.92116291  0.08545388  0.19739078  1
  Se  Se236  1  0.91275535  0.08338871  0.69898217  1
  Se  Se237  1  0.91080757  0.42676607  0.18328631  1
  Se  Se238  1  0.91196130  0.41732004  0.70972493  1
  Se  Se239  1  0.91821914  0.75149054  0.19925814  1
  Se  Se240  1  0.91657370  0.74674475  0.70076659  1
  Se  Se241  1  0.09227253  0.24990345  0.18249760  1
  Se  Se242  1  0.07269588  0.25867244  0.69958844  1
  Se  Se243  1  0.06339441  0.57801376  0.18681703  1
  Se  Se244  1  0.08659030  0.58521849  0.69961277  1
  Se  Se245  1  0.08470180  0.91842046  0.20021847  1
  Se  Se246  1  0.06501969  0.93113575  0.70277693  1
  Se  Se247  1  0.41647858  0.25034454  0.19872353  1
  Se  Se248  1  0.41437089  0.25575325  0.69628206  1
  Se  Se249  1  0.41415466  0.58526509  0.19509782  1
  Se  Se250  1  0.41393294  0.58319887  0.69583757  1
  Se  Se251  1  0.42071559  0.90169561  0.19388013  1
  Se  Se252  1  0.41901704  0.91328198  0.69081400  1
  Se  Se253  1  0.75507978  0.25649043  0.19731002  1
  Se  Se254  1  0.75181005  0.24568455  0.69007546  1
  Se  Se255  1  0.74538912  0.58880840  0.19573399  1
  Se  Se256  1  0.75913775  0.56580410  0.70496590  1
  Se  Se257  1  0.76056279  0.91525856  0.18499143  1
  Se  Se258  1  0.74437454  0.91422482  0.69351921  1
