# generated using pymatgen
data_In86Cu29Se144
_symmetry_space_group_name_H-M   'P 1'
_cell_length_a   17.57768675
_cell_length_b   17.58728444
_cell_length_c   23.43907214
_cell_angle_alpha   89.98460650
_cell_angle_beta   89.98042671
_cell_angle_gamma   89.99702525
_symmetry_Int_Tables_number   1
_chemical_formula_structural   In86Cu29Se144
_chemical_formula_sum   'In86 Cu29 Se144'
_cell_volume   7246.04258812
_cell_formula_units_Z   1
loop_
 _symmetry_equiv_pos_site_id
 _symmetry_equiv_pos_as_xyz
  1  'x, y, z'
loop_
 _atom_site_type_symbol
 _atom_site_label
 _atom_site_symmetry_multiplicity
 _atom_site_fract_x
 _atom_site_fract_y
 _atom_site_fract_z
 _atom_site_occupancy
  In  In0  1  -0.01018261  0.16570606  0.11265162  1
  In  In1  1  0.00047873  0.16979428  0.62264966  1
  In  In2  1  0.00841228  0.49723772  0.10696593  1
  In  In3  1  0.00516310  0.48515885  0.63823919  1
  In  In4  1  0.00416320  0.84030351  0.11958634  1
  In  In5  1  -0.00529622  0.83134470  0.63816176  1
  In  In6  1  0.33147059  0.17715135  0.12931209  1
  In  In7  1  0.33215056  0.16701652  0.61497405  1
  In  In8  1  0.32915368  0.49917664  0.12854496  1
  In  In9  1  0.32724407  0.49509481  0.61886595  1
  In  In10  1  0.31683879  0.82734330  0.12490213  1
  In  In11  1  0.31951757  0.84322884  0.62435978  1
  In  In12  1  0.67877710  0.15912645  0.13281759  1
  In  In13  1  0.66264416  0.15840175  0.61855174  1
  In  In14  1  0.66044744  0.49154705  0.12356975  1
  In  In15  1  0.66197452  0.50835909  0.61867454  1
  In  In16  1  0.68533910  0.83876411  0.12238362  1
  In  In17  1  0.69051159  0.83337750  0.62509030  1
  In  In18  1  0.15465157  0.00695728  0.37867245  1
  In  In19  1  0.14568883  0.00480292  0.87623954  1
  In  In20  1  0.17604466  0.32751721  0.37546516  1
  In  In21  1  0.12160433  0.36234841  0.92144082  1
  In  In22  1  0.17474997  0.65878796  0.38191030  1
  In  In23  1  0.14260992  0.69487482  0.89682948  1
  In  In24  1  0.51767813  -0.00012461  0.37528806  1
  In  In25  1  0.50518395  -0.00580128  0.87132905  1
  In  In26  1  0.50062410  0.33212247  0.37665891  1
  In  In27  1  0.49199088  0.33545894  0.87496745  1
  In  In28  1  0.47939634  0.66894163  0.37351943  1
  In  In29  1  0.50089050  0.66142023  0.87191389  1
  In  In30  1  0.83696757  0.00363728  0.37781528  1
  In  In31  1  0.84216031  -0.00287027  0.86730831  1
  In  In32  1  0.82015588  0.32890516  0.37126725  1
  In  In33  1  0.84932406  0.32641989  0.88695024  1
  In  In34  1  0.84934784  0.67333881  0.37675144  1
  In  In35  1  0.84440344  0.66418571  0.88117434  1
  In  In36  1  0.01038445  0.15703223  0.38217416  1
  In  In37  1  0.00151383  0.16802839  0.87417312  1
  In  In38  1  0.00715361  0.51295822  0.37727849  1
  In  In39  1  -0.01217090  0.51067233  0.86932956  1
  In  In40  1  -0.00980053  0.84246344  0.38577262  1
  In  In41  1  0.00118487  0.83322876  0.86358281  1
  In  In42  1  0.32402167  0.17891695  0.37705298  1
  In  In43  1  0.31195436  0.16696645  0.88090511  1
  In  In44  1  0.33177157  0.49931735  0.37442493  1
  In  In45  1  0.31022389  0.49740869  0.88895845  1
  In  In46  1  0.33000001  0.81771257  0.37281222  1
  In  In47  1  0.30992209  0.82822994  0.87706026  1
  In  In48  1  0.67052383  0.16475494  0.37872065  1
  In  In49  1  0.68733070  0.16499976  0.87491713  1
  In  In50  1  0.66672396  0.48057040  0.37113304  1
  In  In51  1  0.69355163  0.50594348  0.88063419  1
  In  In52  1  0.67041529  0.85035186  0.37354704  1
  In  In53  1  0.66568384  0.84733007  0.87326715  1
  In  In54  1  0.15135970  -0.01086890  0.12117758  1
  In  In55  1  0.14736928  -0.00827964  0.62060217  1
  In  In56  1  0.18148565  0.34035563  0.10809533  1
  In  In57  1  0.16118796  0.32992440  0.61969780  1
  In  In58  1  0.17619313  0.66213432  0.11576251  1
  In  In59  1  0.15930927  0.66351063  0.62722276  1
  In  In60  1  0.50561936  0.01289154  0.13286160  1
  In  In61  1  0.49909397  0.01099255  0.62104538  1
  In  In62  1  0.50177325  0.33786913  0.13728663  1
  In  In63  1  0.49607839  0.32995676  0.61535856  1
  In  In64  1  0.49487992  0.65356406  0.12855930  1
  In  In65  1  0.51312805  0.66332372  0.61723702  1
  In  In66  1  0.83896710  0.00331151  0.12400633  1
  In  In67  1  0.83598683  -0.00303208  0.63075641  1
  In  In68  1  0.83079252  0.32263455  0.11195304  1
  In  In69  1  0.85295550  0.33283172  0.62749381  1
  In  In70  1  0.83673651  0.67899709  0.10653730  1
  In  In71  1  0.83835364  0.67323323  0.62809651  1
  In  In72  1  0.32890450  0.66462464  0.75041981  1
  In  In73  1  0.67687146  0.33244318  0.75734727  1
  In  In74  1  0.50100173  0.49972806  0.00480468  1
  In  In75  1  0.83540814  0.49720245  0.50018087  1
  In  In76  1  0.49871203  0.83277381  0.49494088  1
  In  In77  1  0.00612927  0.67093815  0.24133064  1
  In  In78  1  0.33333784  -0.00009217  0.25627985  1
  In  In79  1  0.00147037  0.32736947  0.24031844  1
  In  In80  1  0.50114354  0.83094836  0.00367105  1
  In  In81  1  0.49738166  0.16661188  0.00901960  1
  In  In82  1  0.32517363  0.33249399  0.75766201  1
  In  In83  1  0.32663202  0.00564222  0.75503671  1
  In  In84  1  0.68286804  0.67021583  0.75083635  1
  In  In85  1  0.66491357  0.66588436  0.24372225  1
  Cu  Cu86  1  0.50511078  0.49789157  0.74627325  1
  Cu  Cu87  1  0.33459372  0.33967149  0.49499351  1
  Cu  Cu88  1  0.83342621  0.16477603  0.24898716  1
  Cu  Cu89  1  0.49880628  0.83348674  0.25368689  1
  Cu  Cu90  1  0.50426487  0.16355748  0.74488140  1
  Cu  Cu91  1  0.00497649  0.33457457  0.50078184  1
  Cu  Cu92  1  0.15763544  0.16999385  0.74733440  1
  Cu  Cu93  1  0.17351530  0.49236526  0.24901552  1
  Cu  Cu94  1  0.83266946  0.49704437  0.24068881  1
  Cu  Cu95  1  0.67614031  -0.00167511  0.50065475  1
  Cu  Cu96  1  0.50362204  0.83583811  0.75010938  1
  Cu  Cu97  1  0.67038111  0.33449457  0.00027526  1
  Cu  Cu98  1  0.32838673  0.00470152  0.49663739  1
  Cu  Cu99  1  0.15689681  0.49823713  0.76124610  1
  Cu  Cu100  1  0.50875349  0.17378489  0.25476073  1
  Cu  Cu101  1  0.32617455  0.66524751  0.50058397  1
  Cu  Cu102  1  0.66449040  0.32634810  0.49741038  1
  Cu  Cu103  1  0.00580357  0.67273637  0.50598106  1
  Cu  Cu104  1  0.67867088  0.00530937  -0.00060384  1
  Cu  Cu105  1  0.32266272  -0.01096837  0.00069998  1
  Cu  Cu106  1  0.83813349  0.16377439  0.75025904  1
  Cu  Cu107  1  -0.00827007  -0.00538468  -0.00542685  1
  Cu  Cu108  1  -0.00191320  0.00063973  0.50698874  1
  Cu  Cu109  1  0.15846325  0.82617874  0.24629051  1
  Cu  Cu110  1  0.83200726  0.84614010  0.25153555  1
  Cu  Cu111  1  0.16227519  0.16592171  0.25043164  1
  Cu  Cu112  1  0.00387077  0.66699739  -0.00462623  1
  Cu  Cu113  1  0.66715474  0.66291622  0.49641122  1
  Cu  Cu114  1  0.49633015  0.49562850  0.25382739  1
  Se  Se115  1  0.07552009  0.07476924  0.05145632  1
  Se  Se116  1  0.08553575  0.09001819  0.55205831  1
  Se  Se117  1  0.08112465  0.40322283  0.04092625  1
  Se  Se118  1  0.08156906  0.42235703  0.55536433  1
  Se  Se119  1  0.08233016  0.74599119  0.05702947  1
  Se  Se120  1  0.08209431  0.75759106  0.56365951  1
  Se  Se121  1  0.40369084  0.06846859  0.06079033  1
  Se  Se122  1  0.41720089  0.08421989  0.54799180  1
  Se  Se123  1  0.41462390  0.40445265  0.06070725  1
  Se  Se124  1  0.41764835  0.42112283  0.55124115  1
  Se  Se125  1  0.40924665  0.74024041  0.06036071  1
  Se  Se126  1  0.40793597  0.74672615  0.56090171  1
  Se  Se127  1  0.75719076  0.09037245  0.05467888  1
  Se  Se128  1  0.75707518  0.08014336  0.55702196  1
  Se  Se129  1  0.74980615  0.42163045  0.05327892  1
  Se  Se130  1  0.74450169  0.40564650  0.56057530  1
  Se  Se131  1  0.74575563  0.75816984  0.04424964  1
  Se  Se132  1  0.75163214  0.74031639  0.55248373  1
  Se  Se133  1  0.24729647  0.23225087  0.05094845  1
  Se  Se134  1  0.25196589  0.25679621  0.55138257  1
  Se  Se135  1  0.24303393  0.56232760  0.05280119  1
  Se  Se136  1  0.24410006  0.58386134  0.55685705  1
  Se  Se137  1  0.23880302  0.90760143  0.05387789  1
  Se  Se138  1  0.24560633  0.92358777  0.55191799  1
  Se  Se139  1  0.59158896  0.25748864  0.06406238  1
  Se  Se140  1  0.57992244  0.24386671  0.55162810  1
  Se  Se141  1  0.59425489  0.59602773  0.05637174  1
  Se  Se142  1  0.57995604  0.57783541  0.54257692  1
  Se  Se143  1  0.58886095  0.93218067  0.05826323  1
  Se  Se144  1  0.59055043  0.91627951  0.55879766  1
  Se  Se145  1  0.92582955  0.26062516  0.04342158  1
  Se  Se146  1  0.91806075  0.25145896  0.55011903  1
  Se  Se147  1  0.91845218  0.58446146  0.04789422  1
  Se  Se148  1  0.92516536  0.58369644  0.56139253  1
  Se  Se149  1  0.91075255  0.91298618  0.05310075  1
  Se  Se150  1  0.91975841  0.91372600  0.56180910  1
  Se  Se151  1  0.08733693  0.25209952  0.44466992  1
  Se  Se152  1  0.09787724  0.22277527  0.94809069  1
  Se  Se153  1  0.08506012  0.58522211  0.45258916  1
  Se  Se154  1  0.08263315  0.57704755  0.94384263  1
  Se  Se155  1  0.08263579  0.91926646  0.45052548  1
  Se  Se156  1  0.07756263  0.90950853  0.94412015  1
  Se  Se157  1  0.41622586  0.25000277  0.44575603  1
  Se  Se158  1  0.40934946  0.25175838  0.94366200  1
  Se  Se159  1  0.41168426  0.58400194  0.44712334  1
  Se  Se160  1  0.41063877  0.58832923  0.94275822  1
  Se  Se161  1  0.40799084  0.92417549  0.43490407  1
  Se  Se162  1  0.40924576  0.91906630  0.93916101  1
  Se  Se163  1  0.75531528  0.24685184  0.44871880  1
  Se  Se164  1  0.75349396  0.24795554  0.94999763  1
  Se  Se165  1  0.74802279  0.58542915  0.43345914  1
  Se  Se166  1  0.74827200  0.59980378  0.95140642  1
  Se  Se167  1  0.75785612  0.91368264  0.44762903  1
  Se  Se168  1  0.75443110  0.92216434  0.94115874  1
  Se  Se169  1  0.24571904  0.08786234  0.44230459  1
  Se  Se170  1  0.24206895  0.07209232  0.94594639  1
  Se  Se171  1  0.24574542  0.42066811  0.44442620  1
  Se  Se172  1  0.26095677  0.39231731  0.95251866  1
  Se  Se173  1  0.24587491  0.75409040  0.44992922  1
  Se  Se174  1  0.25973608  0.74056958  0.95432301  1
  Se  Se175  1  0.58848110  0.08095725  0.45003381  1
  Se  Se176  1  0.58748717  0.08130118  0.94294559  1
  Se  Se177  1  0.58381724  0.41550637  0.44761728  1
  Se  Se178  1  0.59193855  0.41206056  0.93789177  1
  Se  Se179  1  0.59007192  0.74346430  0.43325624  1
  Se  Se180  1  0.58775803  0.74594341  0.93756558  1
  Se  Se181  1  0.91786744  0.08447890  0.44960345  1
  Se  Se182  1  0.91388507  0.08324075  0.94076173  1
  Se  Se183  1  0.92418558  0.40968612  0.43515176  1
  Se  Se184  1  0.90796140  0.43524581  0.94456521  1
  Se  Se185  1  0.91574550  0.75138695  0.45479268  1
  Se  Se186  1  0.92590925  0.75673749  0.94287877  1
  Se  Se187  1  0.24905548  0.25064739  0.29768062  1
  Se  Se188  1  0.22865043  0.24936308  0.81274545  1
  Se  Se189  1  0.24780084  0.58228284  0.30443006  1
  Se  Se190  1  0.23875421  0.58253393  0.81502354  1
  Se  Se191  1  0.23814250  0.90726169  0.30924600  1
  Se  Se192  1  0.23324837  0.91305366  0.80604209  1
  Se  Se193  1  0.59208097  0.25382499  0.31030728  1
  Se  Se194  1  0.57711297  0.24236069  0.81126987  1
  Se  Se195  1  0.57818008  0.58085869  0.31127616  1
  Se  Se196  1  0.58810237  0.57317810  0.80687166  1
  Se  Se197  1  0.58665340  0.91871688  0.29826061  1
  Se  Se198  1  0.58744311  0.92337065  0.79734213  1
  Se  Se199  1  0.91633821  0.24347882  0.30920013  1
  Se  Se200  1  0.91517383  0.25025184  0.80566602  1
  Se  Se201  1  0.91177862  0.57687944  0.30090979  1
  Se  Se202  1  0.92324173  0.60574623  0.79798431  1
  Se  Se203  1  0.92021084  0.92005371  0.30758549  1
  Se  Se204  1  0.93652687  0.93247737  0.79637011  1
  Se  Se205  1  0.07904305  0.08196113  0.30127947  1
  Se  Se206  1  0.07583973  0.08375826  0.79869234  1
  Se  Se207  1  0.08401300  0.42028531  0.30730693  1
  Se  Se208  1  0.08264837  0.41343164  0.82000379  1
  Se  Se209  1  0.08334665  0.75199987  0.31589635  1
  Se  Se210  1  0.09305171  0.74757162  0.80341473  1
  Se  Se211  1  0.42574707  0.09109087  0.31312559  1
  Se  Se212  1  0.42050169  0.09671172  0.81322585  1
  Se  Se213  1  0.41404555  0.41252190  0.30800010  1
  Se  Se214  1  0.41666758  0.43308698  0.80997363  1
  Se  Se215  1  0.41003039  0.74701150  0.29569316  1
  Se  Se216  1  0.42043361  0.76076924  0.80983106  1
  Se  Se217  1  0.75246897  0.08360337  0.30750032  1
  Se  Se218  1  0.75131388  0.08013281  0.80010912  1
  Se  Se219  1  0.75272741  0.41481079  0.29616312  1
  Se  Se220  1  0.77008467  0.42305923  0.80921701  1
  Se  Se221  1  0.75709808  0.75440260  0.30718758  1
  Se  Se222  1  0.76170226  0.76245635  0.81340751  1
  Se  Se223  1  0.24233056  0.08053569  0.19054125  1
  Se  Se224  1  0.24240375  0.09182021  0.68784630  1
  Se  Se225  1  0.25044137  0.40635495  0.19360939  1
  Se  Se226  1  0.23987536  0.42572666  0.69612151  1
  Se  Se227  1  0.24295515  0.74175105  0.19660406  1
  Se  Se228  1  0.24032682  0.76013044  0.69582192  1
  Se  Se229  1  0.58977913  0.08614595  0.20384820  1
  Se  Se230  1  0.58599214  0.07925451  0.69437807  1
  Se  Se231  1  0.58889338  0.41891620  0.20352228  1
  Se  Se232  1  0.58197056  0.41352985  0.68950298  1
  Se  Se233  1  0.57684766  0.76051244  0.18540816  1
  Se  Se234  1  0.58171746  0.75398690  0.69063973  1
  Se  Se235  1  0.92045339  0.08860688  0.19267500  1
  Se  Se236  1  0.92186589  0.08597862  0.69314496  1
  Se  Se237  1  0.91692883  0.42292959  0.18109343  1
  Se  Se238  1  0.91562220  0.41147808  0.70553259  1
  Se  Se239  1  0.90572896  0.75932665  0.19061523  1
  Se  Se240  1  0.92141627  0.73513342  0.70531164  1
  Se  Se241  1  0.09333899  0.24295861  0.18008488  1
  Se  Se242  1  0.07862951  0.25770943  0.69353229  1
  Se  Se243  1  0.09013010  0.56924539  0.18868104  1
  Se  Se244  1  0.08345203  0.58042454  0.69972787  1
  Se  Se245  1  0.07601956  0.91475862  0.19922711  1
  Se  Se246  1  0.07503651  0.92602211  0.70127447  1
  Se  Se247  1  0.41923284  0.24833051  0.20054286  1
  Se  Se248  1  0.41818937  0.24571199  0.69274991  1
  Se  Se249  1  0.41318360  0.57842755  0.20008945  1
  Se  Se250  1  0.42535790  0.57912846  0.68782134  1
  Se  Se251  1  0.41846881  0.91073138  0.18902793  1
  Se  Se252  1  0.42003745  0.91540492  0.69203037  1
  Se  Se253  1  0.75706818  0.25494598  0.19445147  1
  Se  Se254  1  0.75499330  0.24252405  0.68898833  1
  Se  Se255  1  0.76024065  0.58489211  0.18188086  1
  Se  Se256  1  0.75897529  0.56900023  0.68982816  1
  Se  Se257  1  0.74984641  0.92685540  0.19589653  1
  Se  Se258  1  0.75479157  0.91356882  0.70067138  1
