# generated using pymatgen
data_In86Cu29Se144
_symmetry_space_group_name_H-M   'P 1'
_cell_length_a   17.58088716
_cell_length_b   17.58531274
_cell_length_c   23.45105730
_cell_angle_alpha   89.99441616
_cell_angle_beta   89.98622160
_cell_angle_gamma   90.00696553
_symmetry_Int_Tables_number   1
_chemical_formula_structural   In86Cu29Se144
_chemical_formula_sum   'In86 Cu29 Se144'
_cell_volume   7250.25518832
_cell_formula_units_Z   1
loop_
 _symmetry_equiv_pos_site_id
 _symmetry_equiv_pos_as_xyz
  1  'x, y, z'
loop_
 _atom_site_type_symbol
 _atom_site_label
 _atom_site_symmetry_multiplicity
 _atom_site_fract_x
 _atom_site_fract_y
 _atom_site_fract_z
 _atom_site_occupancy
  In  In0  1  0.00192576  0.17330858  0.12550773  1
  In  In1  1  -0.01473522  0.15285424  0.61593729  1
  In  In2  1  0.00469277  0.51098309  0.13431864  1
  In  In3  1  0.00677746  0.50457912  0.61843926  1
  In  In4  1  -0.01740638  0.83124858  0.13004757  1
  In  In5  1  0.00003458  0.83916093  0.61536922  1
  In  In6  1  0.34262736  0.15257349  0.13624174  1
  In  In7  1  0.35215341  0.18232769  0.61801077  1
  In  In8  1  0.33364434  0.49281144  0.12594986  1
  In  In9  1  0.32568192  0.48455272  0.62135269  1
  In  In10  1  0.35599472  0.83676657  0.12785796  1
  In  In11  1  0.33503222  0.83515495  0.61336076  1
  In  In12  1  0.64886103  0.16346986  0.12225968  1
  In  In13  1  0.65906297  0.16355640  0.62932633  1
  In  In14  1  0.66530888  0.50777203  0.12469737  1
  In  In15  1  0.66487318  0.50186591  0.62199742  1
  In  In16  1  0.65812862  0.83759684  0.12859895  1
  In  In17  1  0.66650084  0.83495337  0.62312646  1
  In  In18  1  0.16791601  0.00016433  0.38002323  1
  In  In19  1  0.17350054  0.01539496  0.86578309  1
  In  In20  1  0.16879547  0.32991415  0.38842510  1
  In  In21  1  0.16725727  0.31857150  0.86551833  1
  In  In22  1  0.15576930  0.67753654  0.38264032  1
  In  In23  1  0.16457587  0.65947500  0.87449301  1
  In  In24  1  0.50076026  0.00078029  0.37799524  1
  In  In25  1  0.52331021  -0.00663558  0.88741247  1
  In  In26  1  0.50066571  0.33867806  0.38192557  1
  In  In27  1  0.50576725  0.34039277  0.87076782  1
  In  In28  1  0.51405695  0.65984828  0.37709751  1
  In  In29  1  0.51265258  0.65415644  0.88079523  1
  In  In30  1  0.82898146  -0.00391250  0.37690753  1
  In  In31  1  0.81507350  -0.01724732  0.86228654  1
  In  In32  1  0.83591730  0.32765643  0.38889528  1
  In  In33  1  0.82191332  0.34042838  0.86843387  1
  In  In34  1  0.82857022  0.67128648  0.37587622  1
  In  In35  1  0.82738392  0.68067581  0.87940026  1
  In  In36  1  -0.00073756  0.16526837  0.38549808  1
  In  In37  1  0.01545690  0.16037189  0.86603297  1
  In  In38  1  -0.01203147  0.51086620  0.38954153  1
  In  In39  1  -0.00202951  0.49427356  0.87111154  1
  In  In40  1  -0.00135516  0.82996500  0.37630617  1
  In  In41  1  -0.01985444  0.82979124  0.87444952  1
  In  In42  1  0.33813426  0.16172246  0.38159895  1
  In  In43  1  0.34557033  0.18203905  0.86267716  1
  In  In44  1  0.34120840  0.49613578  0.38347977  1
  In  In45  1  0.35093483  0.50510969  0.87053090  1
  In  In46  1  0.32336819  0.84252270  0.38171319  1
  In  In47  1  0.34602658  0.85067029  0.87190262  1
  In  In48  1  0.67585791  0.15422772  0.38243137  1
  In  In49  1  0.65621583  0.16636553  0.86244969  1
  In  In50  1  0.65892356  0.51415809  0.38040613  1
  In  In51  1  0.64961841  0.48708889  0.85552864  1
  In  In52  1  0.66801845  0.83110212  0.37475097  1
  In  In53  1  0.67121400  0.83267657  0.87502104  1
  In  In54  1  0.17709777  0.01180257  0.13092803  1
  In  In55  1  0.15721168  -0.01008907  0.61499052  1
  In  In56  1  0.16475285  0.33726518  0.12679649  1
  In  In57  1  0.18316577  0.34099576  0.62222499  1
  In  In58  1  0.15937212  0.65892784  0.13712889  1
  In  In59  1  0.16492363  0.66185160  0.61671538  1
  In  In60  1  0.50595037  -0.00155890  0.13165934  1
  In  In61  1  0.51340626  0.01170913  0.61968473  1
  In  In62  1  0.50600793  0.33443940  0.10918244  1
  In  In63  1  0.49718620  0.32925473  0.62975678  1
  In  In64  1  0.50841819  0.67612144  0.12206252  1
  In  In65  1  0.50994152  0.67837634  0.61673680  1
  In  In66  1  0.83423111  -0.02035098  0.12325815  1
  In  In67  1  0.82733199  0.00111490  0.62458744  1
  In  In68  1  0.82838907  0.33421940  0.12192296  1
  In  In69  1  0.81929018  0.32472028  0.61782696  1
  In  In70  1  0.79210594  0.70824132  0.17214728  1
  In  In71  1  0.82259158  0.65971563  0.61424210  1
  In  In72  1  -0.00371751  0.66751894  0.73589315  1
  In  In73  1  0.17106087  0.83549682  -0.00161460  1
  In  In74  1  0.81405949  0.15046228  -0.02164708  1
  In  In75  1  0.33459581  0.66225434  0.74803437  1
  In  In76  1  -0.00144370  0.32920746  0.74084638  1
  In  In77  1  0.17833344  0.16788883  0.00297945  1
  In  In78  1  0.66587141  0.33407628  0.24664628  1
  In  In79  1  0.33932432  0.00479869  0.74187452  1
  In  In80  1  0.33623895  0.67152071  0.25226158  1
  In  In81  1  0.33865431  0.33147387  0.26325519  1
  In  In82  1  0.17359795  0.49930613  -0.00043585  1
  In  In83  1  0.00540472  0.33244993  0.24761286  1
  In  In84  1  0.82151200  0.51385599  0.01189525  1
  In  In85  1  -0.00404566  -0.00799218  0.26185848  1
  Cu  Cu86  1  -0.00738386  -0.00058635  0.49698632  1
  Cu  Cu87  1  0.67135839  0.67091668  0.00518082  1
  Cu  Cu88  1  0.66913278  0.67100154  0.49728926  1
  Cu  Cu89  1  0.83147755  0.50709581  0.74291747  1
  Cu  Cu90  1  0.33871978  0.33078935  0.50065805  1
  Cu  Cu91  1  0.16642905  0.83904164  0.25717817  1
  Cu  Cu92  1  0.83402835  0.15794490  0.25414361  1
  Cu  Cu93  1  0.33907825  0.66394863  0.49817105  1
  Cu  Cu94  1  0.83203364  0.50175787  0.26367564  1
  Cu  Cu95  1  -0.01472337  0.33157820  0.00009537  1
  Cu  Cu96  1  0.34104428  0.67324965  -0.00205559  1
  Cu  Cu97  1  0.66434103  -0.00222218  0.50155307  1
  Cu  Cu98  1  0.50807875  0.83109024  0.74965381  1
  Cu  Cu99  1  0.49847781  0.49644900  0.74385248  1
  Cu  Cu100  1  0.50232658  0.84067069  0.25371263  1
  Cu  Cu101  1  -0.00030929  0.66720831  0.49863918  1
  Cu  Cu102  1  0.15698505  0.83210640  0.74161601  1
  Cu  Cu103  1  -0.01013384  0.67036641  0.00816479  1
  Cu  Cu104  1  0.00052811  -0.00733037  -0.00449512  1
  Cu  Cu105  1  0.16645075  0.15988587  0.73783634  1
  Cu  Cu106  1  0.00320134  0.33254596  0.50794167  1
  Cu  Cu107  1  0.82606916  0.84058733  0.74839578  1
  Cu  Cu108  1  0.16249020  0.50121748  0.26463241  1
  Cu  Cu109  1  0.34274531  0.33346109  -0.00533101  1
  Cu  Cu110  1  0.50188472  0.16469685  0.25456344  1
  Cu  Cu111  1  0.66428574  0.33489398  0.50399748  1
  Cu  Cu112  1  0.34953801  0.00423630  0.00308262  1
  Cu  Cu113  1  0.33144209  0.00058020  0.50096638  1
  Cu  Cu114  1  0.83169650  0.16283341  0.74270110  1
  Se  Se115  1  0.07769558  0.07537079  0.05561128  1
  Se  Se116  1  0.07971493  0.08123656  0.54877549  1
  Se  Se117  1  0.06974725  0.41349079  0.05723219  1
  Se  Se118  1  0.09060083  0.41706891  0.55511188  1
  Se  Se119  1  0.08369672  0.74487117  0.06108900  1
  Se  Se120  1  0.08403857  0.75014587  0.55227661  1
  Se  Se121  1  0.42593171  0.08738518  0.06089588  1
  Se  Se122  1  0.41825763  0.08224658  0.55266023  1
  Se  Se123  1  0.41557103  0.42371778  0.05077612  1
  Se  Se124  1  0.42138674  0.41391559  0.55528503  1
  Se  Se125  1  0.42364564  0.75608325  0.05141284  1
  Se  Se126  1  0.42001157  0.75259595  0.54791127  1
  Se  Se127  1  0.74959984  0.07733668  0.06305170  1
  Se  Se128  1  0.74323252  0.08452985  0.55706741  1
  Se  Se129  1  0.73372538  0.40636813  0.05506343  1
  Se  Se130  1  0.75094749  0.42188711  0.55195651  1
  Se  Se131  1  0.74942802  0.74568574  0.06890104  1
  Se  Se132  1  0.75089127  0.75674126  0.55024594  1
  Se  Se133  1  0.26529517  0.26049447  0.06360996  1
  Se  Se134  1  0.25175396  0.24803516  0.55247235  1
  Se  Se135  1  0.25719225  0.59790745  0.06035844  1
  Se  Se136  1  0.25593766  0.58159436  0.55400781  1
  Se  Se137  1  0.26092923  0.92675169  0.05912301  1
  Se  Se138  1  0.24526933  0.91213920  0.54714190  1
  Se  Se139  1  0.58071688  0.24236333  0.04624535  1
  Se  Se140  1  0.58247329  0.25065662  0.55814245  1
  Se  Se141  1  0.58420941  0.58610820  0.05333496  1
  Se  Se142  1  0.58573227  0.58623200  0.55043806  1
  Se  Se143  1  0.57105739  0.90893224  0.05817543  1
  Se  Se144  1  0.57934505  0.91339957  0.55306667  1
  Se  Se145  1  0.90803174  0.24255208  0.05310135  1
  Se  Se146  1  0.91186557  0.24883223  0.55216597  1
  Se  Se147  1  0.91393472  0.59547105  0.07236414  1
  Se  Se148  1  0.91829235  0.58211579  0.55195598  1
  Se  Se149  1  0.91936089  0.91001257  0.04910138  1
  Se  Se150  1  0.90868218  0.91913494  0.55202275  1
  Se  Se151  1  0.08299787  0.24633039  0.45338556  1
  Se  Se152  1  0.07577095  0.25560926  0.94518751  1
  Se  Se153  1  0.08929841  0.58128385  0.45102905  1
  Se  Se154  1  0.06862978  0.58905956  0.94697749  1
  Se  Se155  1  0.07779185  0.91792899  0.44339905  1
  Se  Se156  1  0.08577750  0.92234531  0.93172933  1
  Se  Se157  1  0.42181582  0.24851162  0.44643401  1
  Se  Se158  1  0.42336926  0.25161234  0.93981039  1
  Se  Se159  1  0.42576167  0.58209430  0.44684288  1
  Se  Se160  1  0.41897838  0.58212848  0.94872523  1
  Se  Se161  1  0.41574096  0.91869254  0.44722345  1
  Se  Se162  1  0.42617377  0.91471970  0.94972035  1
  Se  Se163  1  0.74609690  0.24699438  0.45176711  1
  Se  Se164  1  0.73607275  0.26442372  0.93877803  1
  Se  Se165  1  0.75381999  0.58354669  0.44784753  1
  Se  Se166  1  0.73832993  0.58547074  0.93608848  1
  Se  Se167  1  0.74739747  0.91486523  0.44719745  1
  Se  Se168  1  0.75597443  0.91128319  0.94523235  1
  Se  Se169  1  0.24740041  0.08546418  0.44921733  1
  Se  Se170  1  0.26774213  0.08077873  0.93988320  1
  Se  Se171  1  0.25393747  0.41735650  0.45046746  1
  Se  Se172  1  0.25349884  0.40672187  0.93495288  1
  Se  Se173  1  0.25156835  0.74792398  0.44840385  1
  Se  Se174  1  0.26064874  0.74574645  0.93432286  1
  Se  Se175  1  0.58099185  0.08416622  0.44951571  1
  Se  Se176  1  0.59847486  0.09124234  0.94690274  1
  Se  Se177  1  0.58594136  0.42038846  0.44785294  1
  Se  Se178  1  0.57612464  0.43338768  0.94011426  1
  Se  Se179  1  0.58169099  0.75349709  0.44644506  1
  Se  Se180  1  0.58894124  0.74755177  0.94460919  1
  Se  Se181  1  0.90733075  0.08370154  0.44565888  1
  Se  Se182  1  0.92909208  0.07504762  0.93207589  1
  Se  Se183  1  0.91744765  0.41421586  0.45421072  1
  Se  Se184  1  0.91099172  0.41852578  0.94382557  1
  Se  Se185  1  0.91546269  0.74979581  0.44600567  1
  Se  Se186  1  0.90959238  0.75405285  0.95309689  1
  Se  Se187  1  0.24143230  0.24301465  0.31362393  1
  Se  Se188  1  0.24790701  0.24308941  0.79269180  1
  Se  Se189  1  0.24954058  0.58220408  0.31700861  1
  Se  Se190  1  0.24159729  0.57083839  0.80669668  1
  Se  Se191  1  0.25031707  0.92332471  0.30599833  1
  Se  Se192  1  0.24336724  0.90975244  0.80054755  1
  Se  Se193  1  0.58297496  0.24593627  0.31361946  1
  Se  Se194  1  0.58805097  0.26323209  0.79892020  1
  Se  Se195  1  0.58456997  0.58110826  0.30041356  1
  Se  Se196  1  0.57768387  0.58862158  0.79431330  1
  Se  Se197  1  0.58623349  0.92070882  0.30868105  1
  Se  Se198  1  0.58635132  0.91537366  0.80610051  1
  Se  Se199  1  0.91242232  0.24467987  0.30863849  1
  Se  Se200  1  0.91066869  0.24254259  0.80759914  1
  Se  Se201  1  0.91839411  0.58571382  0.31043984  1
  Se  Se202  1  0.91073672  0.58228599  0.80711525  1
  Se  Se203  1  0.89900986  0.89759941  0.30614486  1
  Se  Se204  1  0.91958512  0.91701677  0.79872359  1
  Se  Se205  1  0.08495229  0.09150558  0.31044686  1
  Se  Se206  1  0.08387647  0.07634953  0.79084414  1
  Se  Se207  1  0.08138211  0.41810775  0.31971643  1
  Se  Se208  1  0.08917888  0.41970153  0.80291328  1
  Se  Se209  1  0.08289589  0.75188596  0.30415875  1
  Se  Se210  1  0.08459316  0.75222900  0.80737037  1
  Se  Se211  1  0.41678555  0.08382985  0.30763732  1
  Se  Se212  1  0.42653719  0.07547911  0.81415516  1
  Se  Se213  1  0.43222515  0.43123932  0.30609717  1
  Se  Se214  1  0.41473985  0.41539385  0.79843185  1
  Se  Se215  1  0.42194323  0.75998512  0.31529217  1
  Se  Se216  1  0.42402786  0.75352225  0.80898687  1
  Se  Se217  1  0.74807340  0.07693603  0.30468308  1
  Se  Se218  1  0.74874039  0.08407517  0.80022717  1
  Se  Se219  1  0.75423951  0.41346659  0.31681071  1
  Se  Se220  1  0.74984232  0.41732426  0.79202754  1
  Se  Se221  1  0.73718240  0.73756352  0.30387390  1
  Se  Se222  1  0.75017455  0.74940360  0.80133808  1
  Se  Se223  1  0.24972125  0.08872230  0.20515377  1
  Se  Se224  1  0.24828103  0.08398064  0.67665357  1
  Se  Se225  1  0.24024671  0.42334142  0.20181799  1
  Se  Se226  1  0.25519145  0.41263639  0.70138597  1
  Se  Se227  1  0.24534277  0.76304688  0.19018594  1
  Se  Se228  1  0.24485975  0.75536801  0.68766551  1
  Se  Se229  1  0.58771126  0.08296255  0.20214131  1
  Se  Se230  1  0.58419234  0.07734090  0.70046498  1
  Se  Se231  1  0.57226681  0.42063858  0.18855214  1
  Se  Se232  1  0.58575902  0.41690341  0.69213536  1
  Se  Se233  1  0.57931956  0.75160447  0.20077232  1
  Se  Se234  1  0.58867468  0.74754471  0.69480195  1
  Se  Se235  1  0.91635266  0.08438468  0.19017343  1
  Se  Se236  1  0.91700636  0.07738431  0.69586417  1
  Se  Se237  1  0.90514457  0.42374986  0.19581527  1
  Se  Se238  1  0.91001056  0.42394946  0.68407538  1
  Se  Se239  1  0.93316523  0.72929932  0.19775433  1
  Se  Se240  1  0.90278686  0.75975978  0.68388993  1
  Se  Se241  1  0.10119445  0.23722095  0.19634848  1
  Se  Se242  1  0.08487430  0.24066807  0.67883679  1
  Se  Se243  1  0.07984759  0.58521440  0.21191520  1
  Se  Se244  1  0.09729015  0.57290910  0.69457137  1
  Se  Se245  1  0.08729661  0.91361971  0.18931186  1
  Se  Se246  1  0.07562161  0.91784340  0.69139597  1
  Se  Se247  1  0.42939273  0.25254952  0.19441292  1
  Se  Se248  1  0.42033965  0.24490959  0.70158452  1
  Se  Se249  1  0.41993876  0.58203935  0.18854264  1
  Se  Se250  1  0.42279480  0.58106102  0.68205974  1
  Se  Se251  1  0.41543834  0.92471305  0.20354094  1
  Se  Se252  1  0.42493891  0.90632638  0.68721926  1
  Se  Se253  1  0.75795696  0.23805787  0.19068665  1
  Se  Se254  1  0.74752010  0.24961390  0.69557499  1
  Se  Se255  1  0.74711702  0.57256748  0.20242522  1
  Se  Se256  1  0.74535582  0.58904916  0.69221620  1
  Se  Se257  1  0.75567005  0.90623600  0.19632033  1
  Se  Se258  1  0.74225636  0.92172295  0.69481688  1
