# generated using pymatgen
data_In86Cu29Se144
_symmetry_space_group_name_H-M   'P 1'
_cell_length_a   17.56951893
_cell_length_b   17.56715201
_cell_length_c   23.42167841
_cell_angle_alpha   89.98781656
_cell_angle_beta   90.00176562
_cell_angle_gamma   90.02335440
_symmetry_Int_Tables_number   1
_chemical_formula_structural   In86Cu29Se144
_chemical_formula_sum   'In86 Cu29 Se144'
_cell_volume   7229.01618428
_cell_formula_units_Z   1
loop_
 _symmetry_equiv_pos_site_id
 _symmetry_equiv_pos_as_xyz
  1  'x, y, z'
loop_
 _atom_site_type_symbol
 _atom_site_label
 _atom_site_symmetry_multiplicity
 _atom_site_fract_x
 _atom_site_fract_y
 _atom_site_fract_z
 _atom_site_occupancy
  In  In0  1  0.01030184  0.16515612  0.12556502  1
  In  In1  1  -0.00504274  0.17035115  0.62219724  1
  In  In2  1  0.00061419  0.51300571  0.12588372  1
  In  In3  1  -0.00920039  0.47178868  0.60222315  1
  In  In4  1  -0.01338174  0.82996054  0.12394218  1
  In  In5  1  -0.00023687  0.85133696  0.62780372  1
  In  In6  1  0.34933163  0.16249572  0.12739311  1
  In  In7  1  0.32028885  0.17870983  0.63105557  1
  In  In8  1  0.34402866  0.49030326  0.13625116  1
  In  In9  1  0.31829872  0.49062300  0.59860888  1
  In  In10  1  0.32560975  0.82943941  0.12944021  1
  In  In11  1  0.34415705  0.82521701  0.62725500  1
  In  In12  1  0.65333849  0.18133947  0.13636139  1
  In  In13  1  0.67633261  0.16103430  0.62013864  1
  In  In14  1  0.66496023  0.49857085  0.12617722  1
  In  In15  1  0.67916396  0.51072512  0.62067109  1
  In  In16  1  0.67442538  0.82120893  0.13450566  1
  In  In17  1  0.66068708  0.81581780  0.61966354  1
  In  In18  1  0.17480051  0.01341824  0.37889802  1
  In  In19  1  0.17419280  0.00484988  0.85667033  1
  In  In20  1  0.17467232  0.33351293  0.39043326  1
  In  In21  1  0.16195900  0.32975023  0.86178176  1
  In  In22  1  0.15863987  0.65885726  0.37089666  1
  In  In23  1  0.16853594  0.66572733  0.87319504  1
  In  In24  1  0.49889517  -0.01349591  0.37692590  1
  In  In25  1  0.50215494  0.01294695  0.87754890  1
  In  In26  1  0.50431156  0.34077532  0.37451416  1
  In  In27  1  0.49303199  0.33910125  0.87632275  1
  In  In28  1  0.49945539  0.65769636  0.37752297  1
  In  In29  1  0.49751865  0.64570490  0.87864069  1
  In  In30  1  0.82777858  0.00749804  0.38090740  1
  In  In31  1  0.82784524  -0.00656067  0.87229351  1
  In  In32  1  0.82318176  0.34263174  0.38968179  1
  In  In33  1  0.84254244  0.33699264  0.86848374  1
  In  In34  1  0.83449344  0.66456610  0.37610839  1
  In  In35  1  0.82389575  0.67264947  0.87596490  1
  In  In36  1  -0.00231149  0.18461411  0.39699709  1
  In  In37  1  -0.00945870  0.16995131  0.85429004  1
  In  In38  1  -0.01461056  0.50276379  0.39013738  1
  In  In39  1  -0.00669019  0.48755761  0.86702284  1
  In  In40  1  0.00236119  0.81664469  0.37628646  1
  In  In41  1  -0.01229055  0.82616597  0.86896388  1
  In  In42  1  0.32155183  0.17489426  0.38679336  1
  In  In43  1  0.33529263  0.16998412  0.86665531  1
  In  In44  1  0.33215391  0.49943698  0.38178466  1
  In  In45  1  0.34209642  0.49891098  0.87381199  1
  In  In46  1  0.35035875  0.83156796  0.38308786  1
  In  In47  1  0.32818150  0.84145626  0.87240947  1
  In  In48  1  0.67199913  0.17230021  0.36969456  1
  In  In49  1  0.66292417  0.15791147  0.87423706  1
  In  In50  1  0.66949574  0.50259362  0.37383061  1
  In  In51  1  0.66056476  0.50536296  0.87578386  1
  In  In52  1  0.66794833  0.82847202  0.37268153  1
  In  In53  1  0.68185954  0.83757937  0.87691732  1
  In  In54  1  0.17744525  0.00098143  0.12512648  1
  In  In55  1  0.14981063  0.00923024  0.63898452  1
  In  In56  1  0.16945257  0.34530969  0.12949267  1
  In  In57  1  0.16850454  0.33301820  0.61469093  1
  In  In58  1  0.16730735  0.66359784  0.13869561  1
  In  In59  1  0.17751435  0.65438088  0.61871023  1
  In  In60  1  0.49680803  0.01941495  0.12510328  1
  In  In61  1  0.50249313  -0.01805234  0.62389536  1
  In  In62  1  0.49875739  0.33484072  0.12733535  1
  In  In63  1  0.47524267  0.34069663  0.61678514  1
  In  In64  1  0.51612118  0.65075100  0.13748148  1
  In  In65  1  0.49798675  0.67084734  0.61458913  1
  In  In66  1  0.83337632  -0.01651931  0.12199210  1
  In  In67  1  0.84707149  0.00835166  0.61715248  1
  In  In68  1  0.81483988  0.33234232  0.12633723  1
  In  In69  1  0.84524634  0.33825365  0.62055926  1
  In  In70  1  0.82991778  0.66418076  0.12662953  1
  In  In71  1  0.82039884  0.64855057  0.61927144  1
  In  In72  1  0.16524365  0.83510355  0.00078323  1
  In  In73  1  0.00189623  0.66786665  0.74254680  1
  In  In74  1  0.67067854  -0.00045009  0.75074804  1
  In  In75  1  0.17079946  0.16921017  -0.01477607  1
  In  In76  1  0.16696956  0.83795059  0.50435138  1
  In  In77  1  0.16721904  0.50151258  -0.00732184  1
  In  In78  1  0.33669767  0.66349039  0.74513003  1
  In  In79  1  -0.00176095  0.00055663  0.24898926  1
  In  In80  1  0.50741300  0.82925244  0.00456236  1
  In  In81  1  0.67108225  0.33777221  0.73956415  1
  In  In82  1  0.33668033  0.00133973  0.24986202  1
  In  In83  1  0.82468635  0.17001857  -0.00423150  1
  In  In84  1  -0.00974896  0.34260142  0.26846512  1
  In  In85  1  0.49936034  0.16840189  0.49537813  1
  Cu  Cu86  1  0.83061590  0.50154456  0.25282123  1
  Cu  Cu87  1  0.16705224  0.17254581  0.74104764  1
  Cu  Cu88  1  0.67083805  0.66414346  0.00613596  1
  Cu  Cu89  1  0.50440481  0.82779219  0.25612424  1
  Cu  Cu90  1  0.65767989  0.34096000  0.00293596  1
  Cu  Cu91  1  0.16856082  0.82753562  0.25480918  1
  Cu  Cu92  1  0.49562286  0.16859556  0.74814876  1
  Cu  Cu93  1  0.16584072  0.49192428  0.73574271  1
  Cu  Cu94  1  0.16292706  0.18079676  0.26291553  1
  Cu  Cu95  1  0.49832495  0.49899314  0.25567578  1
  Cu  Cu96  1  -0.00858893  0.67194984  0.50339777  1
  Cu  Cu97  1  0.83418508  0.82584806  0.25084591  1
  Cu  Cu98  1  0.49902243  0.17186066  0.25436256  1
  Cu  Cu99  1  0.67043477  -0.01032987  0.50195385  1
  Cu  Cu100  1  0.17437396  0.50055320  0.25620884  1
  Cu  Cu101  1  0.49672628  0.49853267  0.74747294  1
  Cu  Cu102  1  -0.01194545  0.33727747  -0.00461425  1
  Cu  Cu103  1  0.00030736  -0.00460396  -0.00788172  1
  Cu  Cu104  1  0.33283291  0.00264394  0.50867859  1
  Cu  Cu105  1  0.66514458  0.00429423  0.00294721  1
  Cu  Cu106  1  0.67043800  0.33212255  0.50074878  1
  Cu  Cu107  1  0.83168640  0.83564661  0.74692875  1
  Cu  Cu108  1  -0.01399114  0.66914009  0.00010659  1
  Cu  Cu109  1  0.67006767  0.66702045  0.49306631  1
  Cu  Cu110  1  0.50129459  0.82835489  0.74628417  1
  Cu  Cu111  1  0.33976358  0.66013258  0.00727906  1
  Cu  Cu112  1  0.33791733  0.32550649  0.00221496  1
  Cu  Cu113  1  0.82263571  0.16362123  0.25312138  1
  Cu  Cu114  1  -0.00127368  0.00131833  0.50363988  1
  Se  Se115  1  0.08234088  0.07380393  0.05154023  1
  Se  Se116  1  0.08334637  0.08214227  0.55747290  1
  Se  Se117  1  0.07489831  0.41133030  0.05488795  1
  Se  Se118  1  0.11357704  0.43897633  0.54545681  1
  Se  Se119  1  0.07901913  0.73809533  0.05930475  1
  Se  Se120  1  0.07573844  0.74613951  0.56398855  1
  Se  Se121  1  0.41233179  0.08267323  0.04984809  1
  Se  Se122  1  0.41757244  0.08322502  0.56569734  1
  Se  Se123  1  0.41319952  0.41474494  0.05651997  1
  Se  Se124  1  0.43528829  0.44052196  0.54078503  1
  Se  Se125  1  0.41724932  0.74142555  0.06701822  1
  Se  Se126  1  0.40886946  0.74921507  0.54803944  1
  Se  Se127  1  0.74422199  0.08475940  0.06603270  1
  Se  Se128  1  0.75265091  0.07980701  0.54872846  1
  Se  Se129  1  0.74868867  0.41887414  0.05311137  1
  Se  Se130  1  0.75254826  0.41609794  0.55469848  1
  Se  Se131  1  0.75236507  0.75230039  0.05583976  1
  Se  Se132  1  0.75388758  0.74643855  0.55093443  1
  Se  Se133  1  0.24940990  0.25263729  0.06090298  1
  Se  Se134  1  0.26029457  0.25404628  0.54926675  1
  Se  Se135  1  0.25169135  0.58288107  0.06375532  1
  Se  Se136  1  0.26930286  0.60821914  0.54210054  1
  Se  Se137  1  0.26486332  0.92545002  0.05337372  1
  Se  Se138  1  0.25184564  0.92494258  0.56976473  1
  Se  Se139  1  0.58059672  0.25140010  0.05597674  1
  Se  Se140  1  0.58639429  0.25664598  0.56178288  1
  Se  Se141  1  0.58245082  0.58083892  0.05429382  1
  Se  Se142  1  0.59004849  0.58748852  0.55279341  1
  Se  Se143  1  0.59129082  0.92235476  0.06705570  1
  Se  Se144  1  0.58350091  0.90710944  0.55145108  1
  Se  Se145  1  0.92069526  0.25268179  0.06045881  1
  Se  Se146  1  0.92215868  0.25556113  0.54896999  1
  Se  Se147  1  0.91102860  0.58038883  0.05478410  1
  Se  Se148  1  0.91250592  0.57716324  0.54961327  1
  Se  Se149  1  0.91930199  0.91416544  0.04817182  1
  Se  Se150  1  0.91488373  0.91150056  0.54892862  1
  Se  Se151  1  0.10772849  0.23583992  0.45656298  1
  Se  Se152  1  0.06785226  0.25716924  0.93572753  1
  Se  Se153  1  0.07564520  0.59246361  0.44782469  1
  Se  Se154  1  0.06912954  0.59228238  0.93863963  1
  Se  Se155  1  0.07729935  0.92516152  0.43800856  1
  Se  Se156  1  0.08264019  0.91994944  0.93147493  1
  Se  Se157  1  0.40887319  0.26789351  0.44752299  1
  Se  Se158  1  0.41595096  0.24594920  0.94154209  1
  Se  Se159  1  0.43616377  0.56004814  0.44820528  1
  Se  Se160  1  0.41576404  0.57240941  0.95285199  1
  Se  Se161  1  0.41736264  0.92109000  0.45544586  1
  Se  Se162  1  0.41850066  0.91775569  0.94282166  1
  Se  Se163  1  0.74817461  0.24143973  0.44935999  1
  Se  Se164  1  0.73672498  0.26423277  0.93697141  1
  Se  Se165  1  0.75552156  0.57854193  0.44575801  1
  Se  Se166  1  0.74883571  0.58320462  0.94488429  1
  Se  Se167  1  0.75210418  0.91051809  0.44315508  1
  Se  Se168  1  0.75153777  0.92271022  0.95112545  1
  Se  Se169  1  0.24888237  0.08575765  0.45700255  1
  Se  Se170  1  0.26003927  0.07070947  0.93659840  1
  Se  Se171  1  0.23424609  0.43861804  0.45464368  1
  Se  Se172  1  0.25480051  0.40200689  0.93908069  1
  Se  Se173  1  0.24751104  0.74985769  0.43780886  1
  Se  Se174  1  0.26127906  0.73916061  0.94582110  1
  Se  Se175  1  0.59163575  0.07397187  0.44133100  1
  Se  Se176  1  0.58316233  0.08883526  0.95137112  1
  Se  Se177  1  0.59146278  0.41537243  0.44447372  1
  Se  Se178  1  0.57714073  0.42139614  0.94360459  1
  Se  Se179  1  0.58228536  0.74861459  0.44196934  1
  Se  Se180  1  0.59196494  0.74064552  0.93944480  1
  Se  Se181  1  0.91499895  0.08443622  0.44990480  1
  Se  Se182  1  0.92301357  0.08403025  0.93724780  1
  Se  Se183  1  0.93846979  0.38740905  0.44908835  1
  Se  Se184  1  0.90791006  0.42373602  0.94473570  1
  Se  Se185  1  0.91024797  0.75388057  0.44778992  1
  Se  Se186  1  0.90858491  0.75560125  0.94541781  1
  Se  Se187  1  0.25240096  0.25929639  0.31190018  1
  Se  Se188  1  0.25242033  0.25202371  0.79762530  1
  Se  Se189  1  0.25710687  0.58599213  0.30846513  1
  Se  Se190  1  0.24025532  0.56972533  0.80344422  1
  Se  Se191  1  0.24641696  0.91180805  0.31271100  1
  Se  Se192  1  0.25117458  0.90966897  0.79615322  1
  Se  Se193  1  0.58438213  0.25508054  0.30571823  1
  Se  Se194  1  0.58133872  0.24765924  0.80513506  1
  Se  Se195  1  0.58571388  0.58358596  0.30429130  1
  Se  Se196  1  0.57926350  0.58197283  0.80063866  1
  Se  Se197  1  0.58550909  0.91719289  0.30465373  1
  Se  Se198  1  0.57751148  0.90943893  0.81069000  1
  Se  Se199  1  0.90389948  0.23894496  0.31618612  1
  Se  Se200  1  0.92030651  0.26696237  0.79264891  1
  Se  Se201  1  0.91821927  0.57783787  0.30835603  1
  Se  Se202  1  0.91137576  0.58534999  0.80703584  1
  Se  Se203  1  0.91372631  0.90923667  0.31094007  1
  Se  Se204  1  0.91361010  0.91822946  0.80149961  1
  Se  Se205  1  0.07914758  0.09479705  0.31401758  1
  Se  Se206  1  0.08428020  0.08810552  0.79520492  1
  Se  Se207  1  0.09127477  0.42669397  0.31991269  1
  Se  Se208  1  0.08153974  0.41696909  0.79595446  1
  Se  Se209  1  0.07882656  0.74377350  0.29980089  1
  Se  Se210  1  0.09320289  0.75617844  0.80547504  1
  Se  Se211  1  0.41841030  0.09256826  0.31716365  1
  Se  Se212  1  0.41811126  0.07981359  0.80187185  1
  Se  Se213  1  0.41257471  0.41719922  0.30849273  1
  Se  Se214  1  0.41331316  0.41477648  0.80044426  1
  Se  Se215  1  0.41808658  0.74731807  0.30856238  1
  Se  Se216  1  0.42415900  0.75064565  0.81336585  1
  Se  Se217  1  0.74390344  0.07450115  0.30403703  1
  Se  Se218  1  0.76246209  0.09666072  0.80356275  1
  Se  Se219  1  0.75390880  0.41369312  0.30776881  1
  Se  Se220  1  0.75233276  0.42650290  0.80585560  1
  Se  Se221  1  0.75042439  0.74302200  0.30460121  1
  Se  Se222  1  0.74754124  0.75352518  0.80079382  1
  Se  Se223  1  0.23906507  0.09852213  0.19885678  1
  Se  Se224  1  0.25381296  0.08157991  0.69807166  1
  Se  Se225  1  0.25327177  0.41265016  0.20355263  1
  Se  Se226  1  0.25685903  0.41733693  0.68293229  1
  Se  Se227  1  0.25566203  0.74603486  0.20323792  1
  Se  Se228  1  0.24032942  0.75277887  0.69155952  1
  Se  Se229  1  0.58018052  0.08485692  0.20189179  1
  Se  Se230  1  0.57703356  0.08864063  0.68930614  1
  Se  Se231  1  0.58070502  0.41815573  0.19654476  1
  Se  Se232  1  0.57412813  0.42228090  0.68191203  1
  Se  Se233  1  0.58902240  0.74416403  0.20370205  1
  Se  Se234  1  0.57867383  0.74133208  0.69363640  1
  Se  Se235  1  0.90702758  0.09302233  0.18887209  1
  Se  Se236  1  0.92441392  0.07830727  0.69263465  1
  Se  Se237  1  0.91107060  0.42011603  0.19096379  1
  Se  Se238  1  0.91726696  0.42704172  0.69082979  1
  Se  Se239  1  0.91838841  0.74395548  0.19659360  1
  Se  Se240  1  0.90641041  0.75368449  0.68370291  1
  Se  Se241  1  0.08120443  0.25555096  0.19943040  1
  Se  Se242  1  0.08541208  0.25559582  0.68646704  1
  Se  Se243  1  0.08340242  0.57756506  0.20331065  1
  Se  Se244  1  0.08255938  0.57247965  0.67988955  1
  Se  Se245  1  0.09310427  0.90870397  0.19007767  1
  Se  Se246  1  0.08176478  0.91283618  0.70517937  1
  Se  Se247  1  0.41487706  0.25216243  0.19865615  1
  Se  Se248  1  0.41545852  0.25571453  0.69553381  1
  Se  Se249  1  0.41520157  0.58512137  0.20224159  1
  Se  Se250  1  0.41715461  0.57298757  0.68155645  1
  Se  Se251  1  0.42809697  0.90881537  0.19122585  1
  Se  Se252  1  0.41663924  0.91441408  0.69880316  1
  Se  Se253  1  0.74470760  0.25599820  0.20416730  1
  Se  Se254  1  0.76258214  0.24126951  0.68872725  1
  Se  Se255  1  0.74768036  0.58151961  0.19590595  1
  Se  Se256  1  0.74528101  0.58644404  0.70125305  1
  Se  Se257  1  0.75405122  0.91477710  0.19897585  1
  Se  Se258  1  0.75111657  0.91235829  0.68294075  1
