# generated using pymatgen
data_In86Cu29Se144
_symmetry_space_group_name_H-M   'P 1'
_cell_length_a   17.58557716
_cell_length_b   17.58099792
_cell_length_c   23.43431057
_cell_angle_alpha   89.99681654
_cell_angle_beta   89.99277088
_cell_angle_gamma   90.01977351
_symmetry_Int_Tables_number   1
_chemical_formula_structural   In86Cu29Se144
_chemical_formula_sum   'In86 Cu29 Se144'
_cell_volume   7245.23205746
_cell_formula_units_Z   1
loop_
 _symmetry_equiv_pos_site_id
 _symmetry_equiv_pos_as_xyz
  1  'x, y, z'
loop_
 _atom_site_type_symbol
 _atom_site_label
 _atom_site_symmetry_multiplicity
 _atom_site_fract_x
 _atom_site_fract_y
 _atom_site_fract_z
 _atom_site_occupancy
  In  In0  1  -0.01936545  0.14651701  0.10822457  1
  In  In1  1  -0.01423192  0.16799345  0.62350344  1
  In  In2  1  -0.00070073  0.50733408  0.11633517  1
  In  In3  1  -0.00098351  0.51297398  0.62636500  1
  In  In4  1  -0.00324377  0.83095149  0.12474190  1
  In  In5  1  0.00415692  0.83255257  0.63640242  1
  In  In6  1  0.31978464  0.15533333  0.11104868  1
  In  In7  1  0.34926621  0.15799706  0.64450292  1
  In  In8  1  0.33735995  0.51627085  0.11698485  1
  In  In9  1  0.35947922  0.48917137  0.66261140  1
  In  In10  1  0.34264224  0.84709460  0.10989143  1
  In  In11  1  0.35711657  0.82102203  0.65057615  1
  In  In12  1  0.66828041  0.15215405  0.12259903  1
  In  In13  1  0.68022584  0.15879956  0.63769840  1
  In  In14  1  0.67305058  0.49323092  0.11976549  1
  In  In15  1  0.67141209  0.49616763  0.63163044  1
  In  In16  1  0.67389206  0.84028734  0.10430775  1
  In  In17  1  0.66467206  0.83048403  0.64361926  1
  In  In18  1  0.16273230  -0.00872300  0.36473538  1
  In  In19  1  0.16668785  0.00163413  0.88231838  1
  In  In20  1  0.17114413  0.33620264  0.37578441  1
  In  In21  1  0.17526517  0.33012808  0.88231570  1
  In  In22  1  0.17257394  0.67931038  0.37161465  1
  In  In23  1  0.16125509  0.67219822  0.87765086  1
  In  In24  1  0.50334954  0.00311357  0.36192880  1
  In  In25  1  0.48322128  -0.02286370  0.85446532  1
  In  In26  1  0.51315823  0.33729727  0.38448519  1
  In  In27  1  0.50033535  0.33305326  0.84295333  1
  In  In28  1  0.49959993  0.66366554  0.38585405  1
  In  In29  1  0.51724798  0.69148851  0.84932096  1
  In  In30  1  0.84239589  0.00890303  0.35828444  1
  In  In31  1  0.83348164  -0.00507839  0.87757625  1
  In  In32  1  0.82580766  0.33727848  0.38239286  1
  In  In33  1  0.82372471  0.33927174  0.88033019  1
  In  In34  1  0.82868827  0.65416340  0.37391043  1
  In  In35  1  0.82634766  0.66403187  0.87755588  1
  In  In36  1  -0.01073287  0.15159931  0.36940536  1
  In  In37  1  0.01002663  0.15783918  0.88638643  1
  In  In38  1  -0.00824688  0.49127042  0.37412029  1
  In  In39  1  -0.01368621  0.51186687  0.88273961  1
  In  In40  1  -0.00491204  0.83312602  0.35520914  1
  In  In41  1  -0.00325532  0.83382795  0.87818290  1
  In  In42  1  0.34014618  0.16125899  0.37840643  1
  In  In43  1  0.33291836  0.15930393  0.86720324  1
  In  In44  1  0.33632263  0.51264816  0.38358556  1
  In  In45  1  0.33051254  0.49854608  0.86533096  1
  In  In46  1  0.33137135  0.83080178  0.37407252  1
  In  In47  1  0.33189277  0.82679189  0.87404002  1
  In  In48  1  0.66840913  0.16477365  0.37787683  1
  In  In49  1  0.67017925  0.16767869  0.86757866  1
  In  In50  1  0.66859160  0.50597759  0.38778790  1
  In  In51  1  0.66593252  0.50795121  0.85832861  1
  In  In52  1  0.66760839  0.84600911  0.36764238  1
  In  In53  1  0.66605272  0.83131081  0.87848841  1
  In  In54  1  0.16665887  -0.00425619  0.11812042  1
  In  In55  1  0.17181130  -0.00527258  0.63315329  1
  In  In56  1  0.16395608  0.33202845  0.11073948  1
  In  In57  1  0.17583453  0.33937933  0.62810185  1
  In  In58  1  0.15776842  0.65818693  0.10983729  1
  In  In59  1  0.16706718  0.66304677  0.63673324  1
  In  In60  1  0.51192223  -0.02105812  0.13673308  1
  In  In61  1  0.51119130  -0.00366047  0.65294011  1
  In  In62  1  0.51297687  0.33388639  0.12307472  1
  In  In63  1  0.49854611  0.34006673  0.64214756  1
  In  In64  1  0.50307128  0.67487465  0.11597338  1
  In  In65  1  0.53429082  0.63556334  0.67473755  1
  In  In66  1  0.83182471  -0.00375841  0.12602825  1
  In  In67  1  0.82896824  0.00724792  0.63235773  1
  In  In68  1  0.83048179  0.32928598  0.11415073  1
  In  In69  1  0.82766474  0.32763111  0.62040976  1
  In  In70  1  0.84803675  0.69503103  0.09852641  1
  In  In71  1  0.84261350  0.65877315  0.63232338  1
  In  In72  1  0.33086548  0.33102372  0.24976986  1
  In  In73  1  0.67023964  0.32507223  0.24897275  1
  In  In74  1  0.67925474  0.67882351  0.23569557  1
  In  In75  1  0.16489947  0.50286070  0.50762064  1
  In  In76  1  0.49901969  0.15779408  -0.01862166  1
  In  In77  1  0.50306955  0.17128869  0.51762476  1
  In  In78  1  0.50057917  0.50393201  -0.02096266  1
  In  In79  1  0.16091490  0.16951062  0.49792119  1
  In  In80  1  0.00216909  0.33039877  0.75033528  1
  In  In81  1  0.00034642  0.32249432  0.25212126  1
  In  In82  1  0.50290233  0.83093188  0.50842398  1
  In  In83  1  0.16985797  0.83512688  0.49635155  1
  In  In84  1  0.83097817  0.83061074  0.49690840  1
  In  In85  1  0.33462423  0.68467676  0.24819041  1
  Cu  Cu86  1  0.48394000  0.16129770  0.24489844  1
  Cu  Cu87  1  -0.01521366  0.33306427  0.49894682  1
  Cu  Cu88  1  0.33050567  0.67047725  -0.00768476  1
  Cu  Cu89  1  -0.00078793  0.66456884  0.50111413  1
  Cu  Cu90  1  0.66736925  0.32994839  -0.00911648  1
  Cu  Cu91  1  0.84481159  0.16197795  0.75486045  1
  Cu  Cu92  1  -0.01226837  0.00269541  0.49732603  1
  Cu  Cu93  1  0.16723987  0.83239373  0.24183133  1
  Cu  Cu94  1  0.66694653  0.00542101  0.50805806  1
  Cu  Cu95  1  0.16250241  0.15624719  0.23861978  1
  Cu  Cu96  1  0.83117806  0.50156854  0.75535407  1
  Cu  Cu97  1  0.33473698  -0.00790069  0.50592718  1
  Cu  Cu98  1  0.16029443  0.84534735  0.76241914  1
  Cu  Cu99  1  0.34897231  0.65306187  0.51526055  1
  Cu  Cu100  1  0.00273656  0.33565466  -0.00447558  1
  Cu  Cu101  1  0.16556801  0.50766901  0.23639384  1
  Cu  Cu102  1  0.66751298  -0.00354195  -0.00284325  1
  Cu  Cu103  1  -0.00263886  -0.00386692  0.00054930  1
  Cu  Cu104  1  0.83482987  0.83174462  0.75723696  1
  Cu  Cu105  1  0.50169922  0.50977643  0.26111550  1
  Cu  Cu106  1  0.34132053  0.34043097  -0.00663405  1
  Cu  Cu107  1  0.15729676  0.50259781  0.75592082  1
  Cu  Cu108  1  0.66479601  0.66268608  0.51356327  1
  Cu  Cu109  1  -0.00404009  0.66867372  -0.00358451  1
  Cu  Cu110  1  0.33836397  0.00020708  -0.00824647  1
  Cu  Cu111  1  0.34178825  0.33806465  0.52031723  1
  Cu  Cu112  1  0.84208130  0.50184322  0.24930274  1
  Cu  Cu113  1  0.66438256  0.34600548  0.50588447  1
  Cu  Cu114  1  0.16704509  0.16275931  0.75887742  1
  Se  Se115  1  0.08644980  0.08239643  0.04854940  1
  Se  Se116  1  0.07641788  0.07403499  0.55794518  1
  Se  Se117  1  0.08326293  0.42297141  0.04885874  1
  Se  Se118  1  0.07026896  0.40532078  0.56074074  1
  Se  Se119  1  0.07899248  0.75332287  0.04962244  1
  Se  Se120  1  0.08078088  0.74434374  0.55911871  1
  Se  Se121  1  0.42248685  0.07476232  0.05566367  1
  Se  Se122  1  0.41806097  0.06671191  0.56758250  1
  Se  Se123  1  0.42124520  0.41571617  0.05622176  1
  Se  Se124  1  0.41895154  0.42592930  0.57185867  1
  Se  Se125  1  0.41652237  0.74960566  0.04698003  1
  Se  Se126  1  0.42456309  0.73899718  0.57189491  1
  Se  Se127  1  0.75109680  0.07863725  0.05116144  1
  Se  Se128  1  0.75372625  0.08793698  0.55708580  1
  Se  Se129  1  0.74828420  0.41353419  0.04631526  1
  Se  Se130  1  0.75480786  0.42443865  0.55616736  1
  Se  Se131  1  0.72644474  0.72968831  0.04421690  1
  Se  Se132  1  0.74485119  0.74905505  0.56696493  1
  Se  Se133  1  0.25723880  0.25586629  0.04589435  1
  Se  Se134  1  0.25903479  0.24468062  0.56499017  1
  Se  Se135  1  0.25102441  0.58133604  0.04367553  1
  Se  Se136  1  0.25859813  0.57966745  0.57141292  1
  Se  Se137  1  0.24904210  0.91891226  0.04348584  1
  Se  Se138  1  0.26038163  0.90910126  0.56566383  1
  Se  Se139  1  0.58683653  0.24796870  0.04977141  1
  Se  Se140  1  0.59516416  0.26308592  0.57205177  1
  Se  Se141  1  0.58408779  0.57835782  0.05438445  1
  Se  Se142  1  0.58069467  0.58945998  0.57405508  1
  Se  Se143  1  0.57311154  0.91929834  0.04681557  1
  Se  Se144  1  0.59015719  0.92623253  0.56871067  1
  Se  Se145  1  0.91637983  0.25073859  0.04599119  1
  Se  Se146  1  0.90712272  0.24329975  0.54944089  1
  Se  Se147  1  0.91065219  0.58036246  0.04604925  1
  Se  Se148  1  0.91409672  0.58283638  0.55228454  1
  Se  Se149  1  0.91397299  0.91401645  0.05512987  1
  Se  Se150  1  0.92000202  0.91656761  0.56145651  1
  Se  Se151  1  0.06832418  0.25905512  0.43634868  1
  Se  Se152  1  0.09007195  0.24937703  0.94994777  1
  Se  Se153  1  0.08312104  0.58998421  0.43799889  1
  Se  Se154  1  0.08269949  0.58431640  0.94742515  1
  Se  Se155  1  0.06948125  0.92050973  0.43891621  1
  Se  Se156  1  0.08214951  0.91476213  0.94739546  1
  Se  Se157  1  0.41148170  0.25774928  0.45037561  1
  Se  Se158  1  0.41892157  0.26457396  0.92929884  1
  Se  Se159  1  0.42889324  0.57390616  0.45615650  1
  Se  Se160  1  0.41219906  0.59919561  0.92660702  1
  Se  Se161  1  0.41673676  0.91980634  0.44179650  1
  Se  Se162  1  0.41872982  0.91220015  0.94079363  1
  Se  Se163  1  0.73625043  0.25734306  0.44738820  1
  Se  Se164  1  0.75050350  0.24033500  0.94377750  1
  Se  Se165  1  0.75255545  0.58855170  0.45522305  1
  Se  Se166  1  0.74541281  0.56873061  0.93803512  1
  Se  Se167  1  0.74317199  0.92809031  0.44363855  1
  Se  Se168  1  0.75312041  0.91085131  0.94773313  1
  Se  Se169  1  0.25416948  0.07108197  0.44447596  1
  Se  Se170  1  0.25509383  0.09029169  0.94591997  1
  Se  Se171  1  0.26142232  0.40804930  0.45116932  1
  Se  Se172  1  0.25493959  0.42495256  0.94443805  1
  Se  Se173  1  0.27022650  0.73369249  0.45096548  1
  Se  Se174  1  0.24289956  0.75652247  0.94682566  1
  Se  Se175  1  0.57852065  0.07795933  0.44776267  1
  Se  Se176  1  0.58902509  0.06461819  0.92790225  1
  Se  Se177  1  0.57872909  0.42797684  0.45490041  1
  Se  Se178  1  0.58534237  0.40216755  0.92621022  1
  Se  Se179  1  0.59918603  0.74770957  0.44616335  1
  Se  Se180  1  0.57812367  0.74233770  0.94000720  1
  Se  Se181  1  0.90397601  0.08340455  0.44363881  1
  Se  Se182  1  0.91402134  0.08065316  0.94820636  1
  Se  Se183  1  0.90740524  0.42451946  0.44898728  1
  Se  Se184  1  0.91277929  0.41670282  0.94726332  1
  Se  Se185  1  0.92704412  0.74592526  0.43678407  1
  Se  Se186  1  0.91011005  0.75063067  0.94439810  1
  Se  Se187  1  0.23808314  0.23619254  0.30577630  1
  Se  Se188  1  0.24870463  0.25244592  0.80579276  1
  Se  Se189  1  0.24889067  0.57825969  0.30365788  1
  Se  Se190  1  0.24027929  0.58753606  0.80655649  1
  Se  Se191  1  0.25171290  0.90909809  0.30172064  1
  Se  Se192  1  0.25161213  0.92238122  0.81198057  1
  Se  Se193  1  0.56580527  0.24245365  0.30619102  1
  Se  Se194  1  0.58792613  0.23796033  0.79104350  1
  Se  Se195  1  0.59060962  0.58997522  0.31147907  1
  Se  Se196  1  0.56923659  0.57691845  0.79114839  1
  Se  Se197  1  0.58040873  0.91473169  0.29769194  1
  Se  Se198  1  0.59376973  0.91295151  0.80132376  1
  Se  Se199  1  0.89783270  0.24487234  0.30935763  1
  Se  Se200  1  0.91849633  0.24551909  0.81733786  1
  Se  Se201  1  0.92274372  0.58376482  0.30510957  1
  Se  Se202  1  0.91507574  0.58733276  0.80472896  1
  Se  Se203  1  0.92204009  0.92500546  0.29163651  1
  Se  Se204  1  0.91887849  0.91785307  0.80611948  1
  Se  Se205  1  0.08111093  0.08089909  0.30106231  1
  Se  Se206  1  0.08188989  0.08015151  0.80925653  1
  Se  Se207  1  0.09511324  0.42518040  0.30278249  1
  Se  Se208  1  0.08099680  0.42002714  0.81747848  1
  Se  Se209  1  0.08829203  0.74656601  0.29753146  1
  Se  Se210  1  0.07845850  0.75230059  0.80646872  1
  Se  Se211  1  0.40393488  0.07904887  0.30142907  1
  Se  Se212  1  0.43437381  0.09769331  0.80348482  1
  Se  Se213  1  0.42106717  0.42153516  0.31415884  1
  Se  Se214  1  0.41369503  0.42853047  0.78999394  1
  Se  Se215  1  0.43519720  0.75768063  0.31193174  1
  Se  Se216  1  0.39245701  0.73408936  0.79868769  1
  Se  Se217  1  0.73280358  0.07791303  0.30582684  1
  Se  Se218  1  0.75736212  0.08033558  0.80487382  1
  Se  Se219  1  0.75160811  0.42904417  0.30798782  1
  Se  Se220  1  0.74900269  0.40981551  0.80061344  1
  Se  Se221  1  0.76334405  0.75876216  0.30898152  1
  Se  Se222  1  0.74789178  0.74806417  0.80628503  1
  Se  Se223  1  0.25268312  0.07694789  0.18949263  1
  Se  Se224  1  0.24972018  0.08030686  0.70206002  1
  Se  Se225  1  0.24999405  0.42456724  0.18401494  1
  Se  Se226  1  0.24232364  0.41770864  0.70558667  1
  Se  Se227  1  0.24346491  0.75332508  0.17735686  1
  Se  Se228  1  0.23291003  0.76816455  0.69591758  1
  Se  Se229  1  0.57743355  0.08714412  0.19430918  1
  Se  Se230  1  0.57628277  0.10751287  0.70559146  1
  Se  Se231  1  0.57811576  0.42829661  0.19894253  1
  Se  Se232  1  0.58747687  0.42273265  0.70439280  1
  Se  Se233  1  0.57771356  0.76256838  0.18591789  1
  Se  Se234  1  0.56533868  0.77235408  0.71086750  1
  Se  Se235  1  0.91583242  0.08347431  0.19239827  1
  Se  Se236  1  0.92557957  0.07955612  0.69887454  1
  Se  Se237  1  0.91426269  0.41474060  0.18880039  1
  Se  Se238  1  0.91167769  0.42254703  0.69212809  1
  Se  Se239  1  0.91036406  0.74521095  0.18908321  1
  Se  Se240  1  0.91706566  0.74946952  0.69989660  1
  Se  Se241  1  0.08677751  0.24331706  0.18264818  1
  Se  Se242  1  0.09292333  0.23838185  0.68924363  1
  Se  Se243  1  0.07842558  0.58898684  0.18872023  1
  Se  Se244  1  0.07539844  0.58625947  0.70256846  1
  Se  Se245  1  0.08438061  0.91644241  0.18970496  1
  Se  Se246  1  0.07960919  0.92431304  0.70156364  1
  Se  Se247  1  0.41610682  0.24645643  0.18168205  1
  Se  Se248  1  0.40154118  0.26634148  0.70487114  1
  Se  Se249  1  0.42575580  0.58398905  0.19449126  1
  Se  Se250  1  0.38990076  0.62246790  0.70304927  1
  Se  Se251  1  0.40577498  0.91360854  0.19523084  1
  Se  Se252  1  0.40284499  0.93516800  0.70956831  1
  Se  Se253  1  0.76017965  0.23826486  0.18925512  1
  Se  Se254  1  0.76449524  0.24847279  0.70073776  1
  Se  Se255  1  0.76252079  0.57558757  0.18521372  1
  Se  Se256  1  0.75050088  0.58700229  0.70005126  1
  Se  Se257  1  0.74062549  0.91008515  0.18561894  1
  Se  Se258  1  0.75530853  0.91787408  0.70127399  1
