# generated using pymatgen
data_In86Cu29Se144
_symmetry_space_group_name_H-M   'P 1'
_cell_length_a   17.58174077
_cell_length_b   17.58083399
_cell_length_c   23.43353664
_cell_angle_alpha   89.97384616
_cell_angle_beta   89.97676093
_cell_angle_gamma   90.00593886
_symmetry_Int_Tables_number   1
_chemical_formula_structural   In86Cu29Se144
_chemical_formula_sum   'In86 Cu29 Se144'
_cell_volume   7243.34381918
_cell_formula_units_Z   1
loop_
 _symmetry_equiv_pos_site_id
 _symmetry_equiv_pos_as_xyz
  1  'x, y, z'
loop_
 _atom_site_type_symbol
 _atom_site_label
 _atom_site_symmetry_multiplicity
 _atom_site_fract_x
 _atom_site_fract_y
 _atom_site_fract_z
 _atom_site_occupancy
  In  In0  1  0.00403288  0.16719299  0.11164683  1
  In  In1  1  0.01054763  0.15977855  0.64663689  1
  In  In2  1  0.00515624  0.50631084  0.09794219  1
  In  In3  1  0.02737944  0.47569706  0.65900563  1
  In  In4  1  0.00306423  0.82750076  0.10965090  1
  In  In5  1  -0.00608054  0.83440757  0.63670751  1
  In  In6  1  0.33309187  0.17399306  0.11600152  1
  In  In7  1  0.33807811  0.17226594  0.62875118  1
  In  In8  1  0.34146886  0.50234630  0.11516065  1
  In  In9  1  0.32159377  0.50289233  0.64020614  1
  In  In10  1  0.31757774  0.82405446  0.12050230  1
  In  In11  1  0.33909791  0.82551679  0.62704637  1
  In  In12  1  0.66845354  0.16294521  0.13040430  1
  In  In13  1  0.66642405  0.16441078  0.62408951  1
  In  In14  1  0.66137263  0.49229284  0.11337476  1
  In  In15  1  0.67502093  0.49513955  0.63316234  1
  In  In16  1  0.67397691  0.83657065  0.12502702  1
  In  In17  1  0.66101048  0.82587346  0.61613211  1
  In  In18  1  0.17948822  0.00272224  0.37730502  1
  In  In19  1  0.14782810  0.02233286  0.88127535  1
  In  In20  1  0.17648628  0.33308861  0.39071346  1
  In  In21  1  0.16461211  0.33657218  0.86126317  1
  In  In22  1  0.16443003  0.65379711  0.37816155  1
  In  In23  1  0.16566616  0.65937123  0.87380911  1
  In  In24  1  0.51109629  -0.00259915  0.38846753  1
  In  In25  1  0.49051415  0.00131048  0.87312683  1
  In  In26  1  0.49628566  0.32487898  0.37765145  1
  In  In27  1  0.51321104  0.33827655  0.86439052  1
  In  In28  1  0.50318180  0.67873721  0.37365289  1
  In  In29  1  0.48422467  0.65138286  0.86363048  1
  In  In30  1  0.81121531  0.00340271  0.37866924  1
  In  In31  1  0.84817295  -0.01259455  0.88292967  1
  In  In32  1  0.82930036  0.34848563  0.37355781  1
  In  In33  1  0.83180566  0.33478760  0.87527500  1
  In  In34  1  0.84342640  0.67453814  0.37891141  1
  In  In35  1  0.83583704  0.66867310  0.88028078  1
  In  In36  1  0.00949621  0.17799420  0.38125717  1
  In  In37  1  0.00070974  0.16617669  0.86521204  1
  In  In38  1  0.00510124  0.51157382  0.38075968  1
  In  In39  1  0.00614958  0.49915963  0.87190677  1
  In  In40  1  -0.00889024  0.82065232  0.38370379  1
  In  In41  1  -0.00080870  0.83131657  0.87591542  1
  In  In42  1  0.33570676  0.17099037  0.39092681  1
  In  In43  1  0.30739797  0.17115464  0.86116155  1
  In  In44  1  0.32150526  0.49394996  0.37566399  1
  In  In45  1  0.32694969  0.50213822  0.87104036  1
  In  In46  1  0.34165478  0.83577083  0.37376683  1
  In  In47  1  0.33216306  0.81961491  0.87289341  1
  In  In48  1  0.65941358  0.16109899  0.36939383  1
  In  In49  1  0.66842024  0.18300376  0.87142120  1
  In  In50  1  0.67366522  0.49768079  0.36536562  1
  In  In51  1  0.66438526  0.50243524  0.87540556  1
  In  In52  1  0.66046321  0.84285889  0.38984723  1
  In  In53  1  0.68560630  0.83451440  0.87916054  1
  In  In54  1  0.16805387  -0.00484293  0.10673838  1
  In  In55  1  0.14997661  0.00312246  0.62865534  1
  In  In56  1  0.16504767  0.32961487  0.11056906  1
  In  In57  1  0.16850343  0.32992177  0.63589097  1
  In  In58  1  0.17195876  0.66755438  0.11136915  1
  In  In59  1  0.18099628  0.65260766  0.64883099  1
  In  In60  1  0.50077319  0.01134096  0.12700250  1
  In  In61  1  0.50830991  0.00097439  0.61169459  1
  In  In62  1  0.50326876  0.34756869  0.12248659  1
  In  In63  1  0.50476835  0.31906345  0.64277649  1
  In  In64  1  0.49691490  0.64338665  0.12741029  1
  In  In65  1  0.49466184  0.67018654  0.62781544  1
  In  In66  1  0.82506312  -0.00504981  0.12222900  1
  In  In67  1  0.84183599  0.00068308  0.62439578  1
  In  In68  1  0.82894995  0.32629035  0.11215435  1
  In  In69  1  0.83057477  0.32814780  0.63563706  1
  In  In70  1  0.84227446  0.67248578  0.10339181  1
  In  In71  1  0.83431957  0.66375717  0.63488092  1
  In  In72  1  0.84295094  0.50784191  0.50220702  1
  In  In73  1  0.66731516  0.66393691  0.24424822  1
  In  In74  1  0.83207822  0.16577175  0.50745049  1
  In  In75  1  0.16362136  0.83343236  0.50839548  1
  In  In76  1  -0.00271413  0.66527240  0.23907335  1
  In  In77  1  0.34067210  0.00308671  0.24955357  1
  In  In78  1  0.49240101  0.49967778  0.50300293  1
  In  In79  1  0.49981415  0.82720254  -0.00664709  1
  In  In80  1  -0.00401297  0.33734062  0.24770202  1
  In  In81  1  -0.00442378  -0.00380126  0.24117928  1
  In  In82  1  0.49203769  0.17016954  -0.00431594  1
  In  In83  1  0.33906697  0.33643236  0.24730153  1
  In  In84  1  0.32836438  -0.00183418  0.75043367  1
  In  In85  1  0.67051474  -0.00209264  0.74372720  1
  Cu  Cu86  1  0.66242547  0.33043575  0.50317562  1
  Cu  Cu87  1  0.66846989  0.00948682  0.00119615  1
  Cu  Cu88  1  0.50121228  0.83425146  0.25434363  1
  Cu  Cu89  1  0.50966778  0.83166697  0.74768098  1
  Cu  Cu90  1  0.00280245  0.00714440  -0.00581202  1
  Cu  Cu91  1  0.82985517  0.49580807  0.23831212  1
  Cu  Cu92  1  0.82904095  0.16132666  0.75291054  1
  Cu  Cu93  1  0.32840989  0.33922255  0.51269521  1
  Cu  Cu94  1  0.16840388  0.49948209  0.25090926  1
  Cu  Cu95  1  0.16305473  0.83543060  0.75504804  1
  Cu  Cu96  1  0.00501663  0.32933724  -0.01366126  1
  Cu  Cu97  1  0.32570130  0.33229213  -0.01073334  1
  Cu  Cu98  1  0.82392337  0.50521927  0.76157199  1
  Cu  Cu99  1  0.00035272  0.00475165  0.50670527  1
  Cu  Cu100  1  0.00873866  0.65833635  0.51389608  1
  Cu  Cu101  1  0.82181414  0.17383046  0.24643794  1
  Cu  Cu102  1  0.66917182  0.33771665  -0.00499448  1
  Cu  Cu103  1  0.01353549  0.33427709  0.51335522  1
  Cu  Cu104  1  0.16917775  0.81896055  0.24069429  1
  Cu  Cu105  1  0.17085158  0.16454808  0.25085590  1
  Cu  Cu106  1  0.32918485  0.66590296  0.50865909  1
  Cu  Cu107  1  0.83858392  0.82618124  0.75548781  1
  Cu  Cu108  1  0.33244643  0.65852370  -0.00510446  1
  Cu  Cu109  1  0.32927282  0.01140135  0.50358817  1
  Cu  Cu110  1  0.66791101  0.66945824  0.50514064  1
  Cu  Cu111  1  0.66313657  0.66256613  -0.00420534  1
  Cu  Cu112  1  0.50836548  0.16549312  0.25516396  1
  Cu  Cu113  1  0.50527218  0.50462685  0.74773337  1
  Cu  Cu114  1  0.82415286  0.84133199  0.25011269  1
  Se  Se115  1  0.09188278  0.08998959  0.04469792  1
  Se  Se116  1  0.07676101  0.09266562  0.55975143  1
  Se  Se117  1  0.08924683  0.41326883  0.03986407  1
  Se  Se118  1  0.08986100  0.42227414  0.56698566  1
  Se  Se119  1  0.07493176  0.73438023  0.04613963  1
  Se  Se120  1  0.08624678  0.74203990  0.57325098  1
  Se  Se121  1  0.40584704  0.07078643  0.05299396  1
  Se  Se122  1  0.41659519  0.09035349  0.55582282  1
  Se  Se123  1  0.41169143  0.40638534  0.04825396  1
  Se  Se124  1  0.41449015  0.41389484  0.57252361  1
  Se  Se125  1  0.41329452  0.73727349  0.05757156  1
  Se  Se126  1  0.41905912  0.75106468  0.55240805  1
  Se  Se127  1  0.75103204  0.08977185  0.05641809  1
  Se  Se128  1  0.74036839  0.06678642  0.55557120  1
  Se  Se129  1  0.75523545  0.42134336  0.04656492  1
  Se  Se130  1  0.75031703  0.40960453  0.55622532  1
  Se  Se131  1  0.73968554  0.75204771  0.04967952  1
  Se  Se132  1  0.75881564  0.74311848  0.55853908  1
  Se  Se133  1  0.24821054  0.24459135  0.04386437  1
  Se  Se134  1  0.24698088  0.25016477  0.56190510  1
  Se  Se135  1  0.24879224  0.57294094  0.04738397  1
  Se  Se136  1  0.24896696  0.58433547  0.56416340  1
  Se  Se137  1  0.24801649  0.90411618  0.04643606  1
  Se  Se138  1  0.25542287  0.92658180  0.56564648  1
  Se  Se139  1  0.58844739  0.25430958  0.05606932  1
  Se  Se140  1  0.58089329  0.25190349  0.56032156  1
  Se  Se141  1  0.57850580  0.58065016  0.04857493  1
  Se  Se142  1  0.59131800  0.58270717  0.56124213  1
  Se  Se143  1  0.58441514  0.92504003  0.05550474  1
  Se  Se144  1  0.58549647  0.91237747  0.54735982  1
  Se  Se145  1  0.92144490  0.25151923  0.04591566  1
  Se  Se146  1  0.92500177  0.25365109  0.56618917  1
  Se  Se147  1  0.92174361  0.59147823  0.03531980  1
  Se  Se148  1  0.93069725  0.57684772  0.57405501  1
  Se  Se149  1  0.92264830  0.92780120  0.05551250  1
  Se  Se150  1  0.92399822  0.91487024  0.55774468  1
  Se  Se151  1  0.09075318  0.24909386  0.45573487  1
  Se  Se152  1  0.08928639  0.24772175  0.93279121  1
  Se  Se153  1  0.08869148  0.57933414  0.45568140  1
  Se  Se154  1  0.07823935  0.58547391  0.94454541  1
  Se  Se155  1  0.07697886  0.92325829  0.44179162  1
  Se  Se156  1  0.08333085  0.91835680  0.94343646  1
  Se  Se157  1  0.41459238  0.26133547  0.45589275  1
  Se  Se158  1  0.40931033  0.25461762  0.92888200  1
  Se  Se159  1  0.40740386  0.59246571  0.44040728  1
  Se  Se160  1  0.41761660  0.57562470  0.94401574  1
  Se  Se161  1  0.40580741  0.92574889  0.44581389  1
  Se  Se162  1  0.40558612  0.92025549  0.94154705  1
  Se  Se163  1  0.74923572  0.25784067  0.44132125  1
  Se  Se164  1  0.75185367  0.24899207  0.94736695  1
  Se  Se165  1  0.74313998  0.59004387  0.44077960  1
  Se  Se166  1  0.74983302  0.58097807  0.94541900  1
  Se  Se167  1  0.77466784  0.89579454  0.44637250  1
  Se  Se168  1  0.75184575  0.92138508  0.95290628  1
  Se  Se169  1  0.24091951  0.09041600  0.45218269  1
  Se  Se170  1  0.25982216  0.08178086  0.93850091  1
  Se  Se171  1  0.24997274  0.42529526  0.45753012  1
  Se  Se172  1  0.24271059  0.41635685  0.93705805  1
  Se  Se173  1  0.25240383  0.74708871  0.44316797  1
  Se  Se174  1  0.24985258  0.74453369  0.94471909  1
  Se  Se175  1  0.58076759  0.09785032  0.44841815  1
  Se  Se176  1  0.58838970  0.08104017  0.93745253  1
  Se  Se177  1  0.59191751  0.41688382  0.44140119  1
  Se  Se178  1  0.58038115  0.41698671  0.94431738  1
  Se  Se179  1  0.58047118  0.74828677  0.45125873  1
  Se  Se180  1  0.58579221  0.73959953  0.93106266  1
  Se  Se181  1  0.92224921  0.07997319  0.43922142  1
  Se  Se182  1  0.91859475  0.09074189  0.94204824  1
  Se  Se183  1  0.93271488  0.40678813  0.44643513  1
  Se  Se184  1  0.91870754  0.41675061  0.94085553  1
  Se  Se185  1  0.92241744  0.73877060  0.45970757  1
  Se  Se186  1  0.89302460  0.77746572  0.94173164  1
  Se  Se187  1  0.24821367  0.24571543  0.31152557  1
  Se  Se188  1  0.26507817  0.27547426  0.78906251  1
  Se  Se189  1  0.24964679  0.58351043  0.30446595  1
  Se  Se190  1  0.25693107  0.59374816  0.80145952  1
  Se  Se191  1  0.24142261  0.90721112  0.30182234  1
  Se  Se192  1  0.24202865  0.91458188  0.81604331  1
  Se  Se193  1  0.58535948  0.25790982  0.30495877  1
  Se  Se194  1  0.58238615  0.24378889  0.79675004  1
  Se  Se195  1  0.57520522  0.57837794  0.30618685  1
  Se  Se196  1  0.58907569  0.58792939  0.80191825  1
  Se  Se197  1  0.58052736  0.91411950  0.31235448  1
  Se  Se198  1  0.58221393  0.91118061  0.81210227  1
  Se  Se199  1  0.90731698  0.24340387  0.31030164  1
  Se  Se200  1  0.90906889  0.24990179  0.80304437  1
  Se  Se201  1  0.90691258  0.57363418  0.30468529  1
  Se  Se202  1  0.91440387  0.58498794  0.80927796  1
  Se  Se203  1  0.91290062  0.91143957  0.31161701  1
  Se  Se204  1  0.92033801  0.91716626  0.80254760  1
  Se  Se205  1  0.08682888  0.08485902  0.30752116  1
  Se  Se206  1  0.08872178  0.08967556  0.79566777  1
  Se  Se207  1  0.08969249  0.41990137  0.31325322  1
  Se  Se208  1  0.07163321  0.41259673  0.79574201  1
  Se  Se209  1  0.08490016  0.75189831  0.30782845  1
  Se  Se210  1  0.08298384  0.74946334  0.80740819  1
  Se  Se211  1  0.42143658  0.09339531  0.31564654  1
  Se  Se212  1  0.41948575  0.09348037  0.80489477  1
  Se  Se213  1  0.42467548  0.42501940  0.31088126  1
  Se  Se214  1  0.42375051  0.42627429  0.80546509  1
  Se  Se215  1  0.41422849  0.74997129  0.30215797  1
  Se  Se216  1  0.41938664  0.75363022  0.79903242  1
  Se  Se217  1  0.74674142  0.08403523  0.30022207  1
  Se  Se218  1  0.75401740  0.07791351  0.81519230  1
  Se  Se219  1  0.74908251  0.41339039  0.29411938  1
  Se  Se220  1  0.74254790  0.41313921  0.80711345  1
  Se  Se221  1  0.75186069  0.75302869  0.31022499  1
  Se  Se222  1  0.74960366  0.74679060  0.80569124  1
  Se  Se223  1  0.24603038  0.08645663  0.18655970  1
  Se  Se224  1  0.23890842  0.08958033  0.69264410  1
  Se  Se225  1  0.24044583  0.41607294  0.18709533  1
  Se  Se226  1  0.25233318  0.40840485  0.70797261  1
  Se  Se227  1  0.25165564  0.73281510  0.19232416  1
  Se  Se228  1  0.25449643  0.75997990  0.70254455  1
  Se  Se229  1  0.58591731  0.07923093  0.20027718  1
  Se  Se230  1  0.57158748  0.08681061  0.69290896  1
  Se  Se231  1  0.58354876  0.42542337  0.19221888  1
  Se  Se232  1  0.58854048  0.41501061  0.69948130  1
  Se  Se233  1  0.57270959  0.75567158  0.18581902  1
  Se  Se234  1  0.58838064  0.74717904  0.69285420  1
  Se  Se235  1  0.91018942  0.09825625  0.18804174  1
  Se  Se236  1  0.91293493  0.07632455  0.70189341  1
  Se  Se237  1  0.91820833  0.42473745  0.17821320  1
  Se  Se238  1  0.89996378  0.42439558  0.70034416  1
  Se  Se239  1  0.90459594  0.76190449  0.18750805  1
  Se  Se240  1  0.92224078  0.74106859  0.70416049  1
  Se  Se241  1  0.08959360  0.24374447  0.19099516  1
  Se  Se242  1  0.06249553  0.27263152  0.70237612  1
  Se  Se243  1  0.08702300  0.57062179  0.18491158  1
  Se  Se244  1  0.07928057  0.59211895  0.71285068  1
  Se  Se245  1  0.09215746  0.90537304  0.18453934  1
  Se  Se246  1  0.07997823  0.91878872  0.70187959  1
  Se  Se247  1  0.42829992  0.23961243  0.19010689  1
  Se  Se248  1  0.39978052  0.25795291  0.70638598  1
  Se  Se249  1  0.40973140  0.57221411  0.19666535  1
  Se  Se250  1  0.41737230  0.58653533  0.69750209  1
  Se  Se251  1  0.42124565  0.90653406  0.18673345  1
  Se  Se252  1  0.42996555  0.91580088  0.69055333  1
  Se  Se253  1  0.74627985  0.26077495  0.19092984  1
  Se  Se254  1  0.74451134  0.24167640  0.69829870  1
  Se  Se255  1  0.76057450  0.58538491  0.17863154  1
  Se  Se256  1  0.74417238  0.58672413  0.70189270  1
  Se  Se257  1  0.74126052  0.92498900  0.19856152  1
  Se  Se258  1  0.75964537  0.90209321  0.68916949  1
