# generated using pymatgen
data_In86Cu29Se144
_symmetry_space_group_name_H-M   'P 1'
_cell_length_a   17.58486294
_cell_length_b   17.58299630
_cell_length_c   23.44219688
_cell_angle_alpha   90.00500415
_cell_angle_beta   89.98414227
_cell_angle_gamma   90.00023756
_symmetry_Int_Tables_number   1
_chemical_formula_structural   In86Cu29Se144
_chemical_formula_sum   'In86 Cu29 Se144'
_cell_volume   7248.19991329
_cell_formula_units_Z   1
loop_
 _symmetry_equiv_pos_site_id
 _symmetry_equiv_pos_as_xyz
  1  'x, y, z'
loop_
 _atom_site_type_symbol
 _atom_site_label
 _atom_site_symmetry_multiplicity
 _atom_site_fract_x
 _atom_site_fract_y
 _atom_site_fract_z
 _atom_site_occupancy
  In  In0  1  -0.01358429  0.18223059  0.11868144  1
  In  In1  1  -0.01226370  0.17798756  0.63447681  1
  In  In2  1  0.00416017  0.49708786  0.10880080  1
  In  In3  1  -0.00321132  0.49889204  0.63284013  1
  In  In4  1  -0.00105605  0.82951577  0.11208515  1
  In  In5  1  -0.03331663  0.84449234  0.66260410  1
  In  In6  1  0.34170171  0.16713907  0.12724748  1
  In  In7  1  0.32987852  0.17333475  0.63151619  1
  In  In8  1  0.32189179  0.50838551  0.14128677  1
  In  In9  1  0.32542520  0.50275331  0.62253504  1
  In  In10  1  0.31708196  0.83020831  0.11694166  1
  In  In11  1  0.34498483  0.82348182  0.63042531  1
  In  In12  1  0.68434515  0.17381885  0.11930952  1
  In  In13  1  0.67268415  0.14666466  0.61969027  1
  In  In14  1  0.66409282  0.49640767  0.12515316  1
  In  In15  1  0.68451989  0.51438159  0.61419153  1
  In  In16  1  0.67555389  0.82810514  0.12066662  1
  In  In17  1  0.66688196  0.83463743  0.62640270  1
  In  In18  1  0.16661780  0.00835292  0.37664177  1
  In  In19  1  0.15069557  -0.01479191  0.86152331  1
  In  In20  1  0.17985517  0.34365527  0.36400393  1
  In  In21  1  0.16885554  0.34003258  0.87484750  1
  In  In22  1  0.16711796  0.65303795  0.37671645  1
  In  In23  1  0.16936357  0.66423472  0.87348543  1
  In  In24  1  0.50000698  -0.00978801  0.38403215  1
  In  In25  1  0.50037029  -0.00274547  0.86359218  1
  In  In26  1  0.50935944  0.34332322  0.37685056  1
  In  In27  1  0.49658120  0.34841528  0.87012356  1
  In  In28  1  0.49074680  0.67133892  0.38353708  1
  In  In29  1  0.50575895  0.67662240  0.86664309  1
  In  In30  1  0.81552163  0.01622968  0.40435598  1
  In  In31  1  0.84091338  -0.00182901  0.86464817  1
  In  In32  1  0.82391008  0.34451202  0.39254549  1
  In  In33  1  0.84434733  0.32815665  0.87959612  1
  In  In34  1  0.83076920  0.67232967  0.38805651  1
  In  In35  1  0.83844618  0.66525565  0.86826542  1
  In  In36  1  -0.00442149  0.16440510  0.37697291  1
  In  In37  1  -0.00611312  0.15576633  0.86732461  1
  In  In38  1  -0.00223989  0.50526570  0.38733098  1
  In  In39  1  0.00055748  0.50382640  0.87044699  1
  In  In40  1  -0.00520290  0.82591974  0.38408843  1
  In  In41  1  -0.00186902  0.83170848  0.86917595  1
  In  In42  1  0.32680087  0.17991640  0.37493006  1
  In  In43  1  0.33607493  0.17169219  0.86820700  1
  In  In44  1  0.33106677  0.50271093  0.37602983  1
  In  In45  1  0.32614989  0.49208836  0.86701671  1
  In  In46  1  0.34529391  0.83621947  0.37838283  1
  In  In47  1  0.31931357  0.81996529  0.86448325  1
  In  In48  1  0.66402057  0.18177810  0.38207334  1
  In  In49  1  0.68476607  0.17057368  0.86978098  1
  In  In50  1  0.67230468  0.48661215  0.39233324  1
  In  In51  1  0.68177075  0.51783506  0.86081037  1
  In  In52  1  0.66875076  0.83414975  0.39376581  1
  In  In53  1  0.71047025  0.85320766  0.82924583  1
  In  In54  1  0.17202873  -0.00770578  0.11608082  1
  In  In55  1  0.16469424  0.00442347  0.63595390  1
  In  In56  1  0.16358603  0.34620695  0.12587495  1
  In  In57  1  0.15235371  0.34537916  0.63249353  1
  In  In58  1  0.16806473  0.66532365  0.11829378  1
  In  In59  1  0.16656306  0.66577034  0.62808227  1
  In  In60  1  0.49564860  0.00252597  0.12425634  1
  In  In61  1  0.52235338  -0.01961381  0.63515631  1
  In  In62  1  0.49492437  0.34663353  0.13795602  1
  In  In63  1  0.49205404  0.33328484  0.62055808  1
  In  In64  1  0.49669728  0.64785638  0.12596552  1
  In  In65  1  0.49813563  0.66463614  0.62206366  1
  In  In66  1  0.83765489  0.00492389  0.11174772  1
  In  In67  1  0.82598540  -0.00807175  0.62930668  1
  In  In68  1  0.83465821  0.33339902  0.11742945  1
  In  In69  1  0.84080212  0.34201750  0.61673450  1
  In  In70  1  0.84170646  0.67124711  0.11304848  1
  In  In71  1  0.82681753  0.66072855  0.63854317  1
  In  In72  1  0.16304799  0.17294557  0.49239767  1
  In  In73  1  0.50800010  0.83024451  -0.00314122  1
  In  In74  1  0.33289145  0.00485536  0.25278293  1
  In  In75  1  0.66596788  0.33554232  0.74644948  1
  In  In76  1  0.50581984  0.16559390  0.00737698  1
  In  In77  1  0.66220913  0.00831464  0.25883982  1
  In  In78  1  0.16032644  0.16289886  -0.00114096  1
  In  In79  1  0.00353804  0.33572546  0.24524196  1
  In  In80  1  0.66243792  0.65796072  0.25310934  1
  In  In81  1  0.00183584  0.66401579  0.23908743  1
  In  In82  1  -0.00234483  -0.00161482  0.25732477  1
  In  In83  1  0.15655592  0.82383430  0.51445998  1
  In  In84  1  0.50685844  0.50240505  -0.00309617  1
  In  In85  1  0.50387408  0.15883557  0.50271690  1
  Cu  Cu86  1  0.32734402  0.34129160  0.50119230  1
  Cu  Cu87  1  0.82790560  0.84391994  0.25577481  1
  Cu  Cu88  1  0.83344609  0.16364125  0.74659844  1
  Cu  Cu89  1  0.68232528  0.67796842  -0.01279239  1
  Cu  Cu90  1  0.48979384  0.49927236  0.74079454  1
  Cu  Cu91  1  0.32079219  -0.01122103  -0.01424308  1
  Cu  Cu92  1  -0.00078852  0.34231843  0.50631652  1
  Cu  Cu93  1  0.67662713  -0.00343211  -0.01545376  1
  Cu  Cu94  1  0.49597856  0.83221954  0.74531795  1
  Cu  Cu95  1  -0.00932150  0.66851466  0.51597330  1
  Cu  Cu96  1  0.17436973  0.83229827  0.74791912  1
  Cu  Cu97  1  0.33199188  0.33887837  -0.00112492  1
  Cu  Cu98  1  0.33001840  0.66514966  0.50299383  1
  Cu  Cu99  1  0.83248372  0.18009801  0.24857644  1
  Cu  Cu100  1  0.66520907  0.66429182  0.50789642  1
  Cu  Cu101  1  0.83389682  0.50099228  0.25622007  1
  Cu  Cu102  1  0.49368172  0.82157880  0.25413581  1
  Cu  Cu103  1  -0.00675054  -0.00537161  -0.01075905  1
  Cu  Cu104  1  0.17059231  0.49890354  0.75075786  1
  Cu  Cu105  1  0.32991081  0.65853507  -0.00268640  1
  Cu  Cu106  1  0.34159164  -0.00583782  0.50971561  1
  Cu  Cu107  1  0.00193793  0.66728057  -0.01065209  1
  Cu  Cu108  1  0.16717844  0.82619275  0.24417254  1
  Cu  Cu109  1  0.00054449  -0.00479662  0.51538947  1
  Cu  Cu110  1  0.49790756  0.16566462  0.74361378  1
  Cu  Cu111  1  0.50357003  0.17760576  0.25492399  1
  Cu  Cu112  1  0.49552550  0.49587945  0.25811046  1
  Cu  Cu113  1  0.67662432  0.34056590  -0.00018491  1
  Cu  Cu114  1  0.16809772  0.17162452  0.75404107  1
  Se  Se115  1  0.06645390  0.07259093  0.05886541  1
  Se  Se116  1  0.08225720  0.08619303  0.56258096  1
  Se  Se117  1  0.07387634  0.39564981  0.04904994  1
  Se  Se118  1  0.08374858  0.42636615  0.55632264  1
  Se  Se119  1  0.08550436  0.74589638  0.04889495  1
  Se  Se120  1  0.05933480  0.75388874  0.57986555  1
  Se  Se121  1  0.40021152  0.06793655  0.04934445  1
  Se  Se122  1  0.41573026  0.07805897  0.56957408  1
  Se  Se123  1  0.41470813  0.41730913  0.05899531  1
  Se  Se124  1  0.41274970  0.42095058  0.55401329  1
  Se  Se125  1  0.41470370  0.73845979  0.05672135  1
  Se  Se126  1  0.41624871  0.74999320  0.55121431  1
  Se  Se127  1  0.74860203  0.08395799  0.04601354  1
  Se  Se128  1  0.75837337  0.07286755  0.55063845  1
  Se  Se129  1  0.75331250  0.42746353  0.05473254  1
  Se  Se130  1  0.74559858  0.41103070  0.55124482  1
  Se  Se131  1  0.76008180  0.75979253  0.04742325  1
  Se  Se132  1  0.75076717  0.74256584  0.56371719  1
  Se  Se133  1  0.25855664  0.25007279  0.05647502  1
  Se  Se134  1  0.24740458  0.25821581  0.55932281  1
  Se  Se135  1  0.25468289  0.57517212  0.05643019  1
  Se  Se136  1  0.24129410  0.58565193  0.55277806  1
  Se  Se137  1  0.23985498  0.90708930  0.04187471  1
  Se  Se138  1  0.25162305  0.91970942  0.56523767  1
  Se  Se139  1  0.58901458  0.26800720  0.06135640  1
  Se  Se140  1  0.59195615  0.25043601  0.56105670  1
  Se  Se141  1  0.60047546  0.60014569  0.05143484  1
  Se  Se142  1  0.57785758  0.57794056  0.55356119  1
  Se  Se143  1  0.59548672  0.93019299  0.05573242  1
  Se  Se144  1  0.58899527  0.91526182  0.55264840  1
  Se  Se145  1  0.90551568  0.24841601  0.04429517  1
  Se  Se146  1  0.91972835  0.24810734  0.55172917  1
  Se  Se147  1  0.91969940  0.58483749  0.04637637  1
  Se  Se148  1  0.90947126  0.58067021  0.56554586  1
  Se  Se149  1  0.91168061  0.91191362  0.04696438  1
  Se  Se150  1  0.92127113  0.90842672  0.56762886  1
  Se  Se151  1  0.07473706  0.26881069  0.43604907  1
  Se  Se152  1  0.07559134  0.24945210  0.93490262  1
  Se  Se153  1  0.07509986  0.59755633  0.45242864  1
  Se  Se154  1  0.08816142  0.58088793  0.94280065  1
  Se  Se155  1  0.08099313  0.92448571  0.44695155  1
  Se  Se156  1  0.08223705  0.91213120  0.94215666  1
  Se  Se157  1  0.41060552  0.25498782  0.44773968  1
  Se  Se158  1  0.41781805  0.25827681  0.94391618  1
  Se  Se159  1  0.41318337  0.58040041  0.44913514  1
  Se  Se160  1  0.41540352  0.58791328  0.93530844  1
  Se  Se161  1  0.42192177  0.90956517  0.45579125  1
  Se  Se162  1  0.41348669  0.91347616  0.93390662  1
  Se  Se163  1  0.76784645  0.23138989  0.44861437  1
  Se  Se164  1  0.75155348  0.25003245  0.94681213  1
  Se  Se165  1  0.75051379  0.58390971  0.45222746  1
  Se  Se166  1  0.75849286  0.58178284  0.94202720  1
  Se  Se167  1  0.76907128  0.89794702  0.45663954  1
  Se  Se168  1  0.75130444  0.91025957  0.92789675  1
  Se  Se169  1  0.26604215  0.07455081  0.44706851  1
  Se  Se170  1  0.24733104  0.07873278  0.93048242  1
  Se  Se171  1  0.24333706  0.42020935  0.44493168  1
  Se  Se172  1  0.24996138  0.42233549  0.94656477  1
  Se  Se173  1  0.25019014  0.75055188  0.44326312  1
  Se  Se174  1  0.25094296  0.74743739  0.94596548  1
  Se  Se175  1  0.59804894  0.07015395  0.44352365  1
  Se  Se176  1  0.58733686  0.08055443  0.93572565  1
  Se  Se177  1  0.58363468  0.40708387  0.45779652  1
  Se  Se178  1  0.59927604  0.41665591  0.93483202  1
  Se  Se179  1  0.58117119  0.74559186  0.45218169  1
  Se  Se180  1  0.59970753  0.75661546  0.93003215  1
  Se  Se181  1  0.92962439  0.08196757  0.45359386  1
  Se  Se182  1  0.91084105  0.08206688  0.94125752  1
  Se  Se183  1  0.91278523  0.42743480  0.45588648  1
  Se  Se184  1  0.90792239  0.43245892  0.93945216  1
  Se  Se185  1  0.91400158  0.75343757  0.45763056  1
  Se  Se186  1  0.91615651  0.75079751  0.93996326  1
  Se  Se187  1  0.24278633  0.24217897  0.30009202  1
  Se  Se188  1  0.25145301  0.25728536  0.80488445  1
  Se  Se189  1  0.24785015  0.58163084  0.30461943  1
  Se  Se190  1  0.25388045  0.58622962  0.80136438  1
  Se  Se191  1  0.24014264  0.90781135  0.30946438  1
  Se  Se192  1  0.25596366  0.92205930  0.79927465  1
  Se  Se193  1  0.58995450  0.25802430  0.30652434  1
  Se  Se194  1  0.57549576  0.24415361  0.80989546  1
  Se  Se195  1  0.57800555  0.57433849  0.31985280  1
  Se  Se196  1  0.57023717  0.57411092  0.80287651  1
  Se  Se197  1  0.57777739  0.90181403  0.30995784  1
  Se  Se198  1  0.58254320  0.91504369  0.79586255  1
  Se  Se199  1  0.91244901  0.25460159  0.31142823  1
  Se  Se200  1  0.91414517  0.24676469  0.80225482  1
  Se  Se201  1  0.91135885  0.58715000  0.31134736  1
  Se  Se202  1  0.93133591  0.59558229  0.79755841  1
  Se  Se203  1  0.90547325  0.91704828  0.32083018  1
  Se  Se204  1  0.91388658  0.90595679  0.79661988  1
  Se  Se205  1  0.09317946  0.09644917  0.30440870  1
  Se  Se206  1  0.08056891  0.08184284  0.79650598  1
  Se  Se207  1  0.08139026  0.43327433  0.30778681  1
  Se  Se208  1  0.08474227  0.41673105  0.80373359  1
  Se  Se209  1  0.08325045  0.75508762  0.30757861  1
  Se  Se210  1  0.09207945  0.75307715  0.80535474  1
  Se  Se211  1  0.42879865  0.09067748  0.31512429  1
  Se  Se212  1  0.41494297  0.08473032  0.80101228  1
  Se  Se213  1  0.41309451  0.41145581  0.31013148  1
  Se  Se214  1  0.41101304  0.41338434  0.79593681  1
  Se  Se215  1  0.40806882  0.74273204  0.30631512  1
  Se  Se216  1  0.41363741  0.74744262  0.79858420  1
  Se  Se217  1  0.76196168  0.09339225  0.31236717  1
  Se  Se218  1  0.74921233  0.08008843  0.79861896  1
  Se  Se219  1  0.75295481  0.41981766  0.31250904  1
  Se  Se220  1  0.76270363  0.41726463  0.80472789  1
  Se  Se221  1  0.74996375  0.75614507  0.31066349  1
  Se  Se222  1  0.73011631  0.71436506  0.79948682  1
  Se  Se223  1  0.24002975  0.08574282  0.18822463  1
  Se  Se224  1  0.25109882  0.08813564  0.70003121  1
  Se  Se225  1  0.26297116  0.39682611  0.19667886  1
  Se  Se226  1  0.25227855  0.41495108  0.69530877  1
  Se  Se227  1  0.25121996  0.74451115  0.19174856  1
  Se  Se228  1  0.25384303  0.74602444  0.69554509  1
  Se  Se229  1  0.57728199  0.09554142  0.18993552  1
  Se  Se230  1  0.58833550  0.08361925  0.69782980  1
  Se  Se231  1  0.58755764  0.42401857  0.20273127  1
  Se  Se232  1  0.57868685  0.42413380  0.68459113  1
  Se  Se233  1  0.57653259  0.75292264  0.18815885  1
  Se  Se234  1  0.57850466  0.74946078  0.69116475  1
  Se  Se235  1  0.90826389  0.08952743  0.19271721  1
  Se  Se236  1  0.91579118  0.07699509  0.69465900  1
  Se  Se237  1  0.91186083  0.42920588  0.18912931  1
  Se  Se238  1  0.92296746  0.40080387  0.69575493  1
  Se  Se239  1  0.90596604  0.76494830  0.19240139  1
  Se  Se240  1  0.92258203  0.72096496  0.71373089  1
  Se  Se241  1  0.08959526  0.23853883  0.18763873  1
  Se  Se242  1  0.08237484  0.25081890  0.69936454  1
  Se  Se243  1  0.09115240  0.56830142  0.18626505  1
  Se  Se244  1  0.08719857  0.58096579  0.69736910  1
  Se  Se245  1  0.08459092  0.90922710  0.18940866  1
  Se  Se246  1  0.08554816  0.91692785  0.70230955  1
  Se  Se247  1  0.41513581  0.25151806  0.19890740  1
  Se  Se248  1  0.41706050  0.25552772  0.69690647  1
  Se  Se249  1  0.41786987  0.58401818  0.20471788  1
  Se  Se250  1  0.40889820  0.58710268  0.69077433  1
  Se  Se251  1  0.41875365  0.90726784  0.19129492  1
  Se  Se252  1  0.41303731  0.92203288  0.69608228  1
  Se  Se253  1  0.75029876  0.26048979  0.19364021  1
  Se  Se254  1  0.75282401  0.24334105  0.68592838  1
  Se  Se255  1  0.76222700  0.58323881  0.18996490  1
  Se  Se256  1  0.73815071  0.57688956  0.70391059  1
  Se  Se257  1  0.75165633  0.92164558  0.19103180  1
  Se  Se258  1  0.75354313  0.90354308  0.70226439  1
