# generated using pymatgen
data_In86Cu29Se144
_symmetry_space_group_name_H-M   'P 1'
_cell_length_a   17.58498981
_cell_length_b   17.58088956
_cell_length_c   23.44264702
_cell_angle_alpha   89.97149090
_cell_angle_beta   90.01634887
_cell_angle_gamma   90.01771645
_symmetry_Int_Tables_number   1
_chemical_formula_structural   In86Cu29Se144
_chemical_formula_sum   'In86 Cu29 Se144'
_cell_volume   7247.52167626
_cell_formula_units_Z   1
loop_
 _symmetry_equiv_pos_site_id
 _symmetry_equiv_pos_as_xyz
  1  'x, y, z'
loop_
 _atom_site_type_symbol
 _atom_site_label
 _atom_site_symmetry_multiplicity
 _atom_site_fract_x
 _atom_site_fract_y
 _atom_site_fract_z
 _atom_site_occupancy
  In  In0  1  0.01205655  0.16872421  0.12042597  1
  In  In1  1  -0.00483032  0.17059661  0.62754371  1
  In  In2  1  -0.00108704  0.49869462  0.13579614  1
  In  In3  1  -0.00706806  0.49072509  0.63064535  1
  In  In4  1  -0.02023823  0.82899073  0.12175045  1
  In  In5  1  0.00564063  0.84442945  0.62180208  1
  In  In6  1  0.33395823  0.17199410  0.12485474  1
  In  In7  1  0.32562636  0.17225802  0.63517561  1
  In  In8  1  0.32735024  0.48505457  0.11741858  1
  In  In9  1  0.34149378  0.49712411  0.62935263  1
  In  In10  1  0.34421673  0.83745844  0.12740282  1
  In  In11  1  0.34552553  0.82403678  0.63663090  1
  In  In12  1  0.65173713  0.18002719  0.12669446  1
  In  In13  1  0.66943424  0.15570987  0.62222526  1
  In  In14  1  0.67531849  0.50751323  0.10690700  1
  In  In15  1  0.66521569  0.51705313  0.62873126  1
  In  In16  1  0.68510360  0.81895845  0.13310195  1
  In  In17  1  0.65193651  0.82483509  0.61443386  1
  In  In18  1  0.17596909  -0.00848248  0.37022324  1
  In  In19  1  0.17356042  0.01002126  0.86991489  1
  In  In20  1  0.16764866  0.34122954  0.35992230  1
  In  In21  1  0.16467807  0.33339950  0.87771307  1
  In  In22  1  0.16830254  0.67479606  0.36969786  1
  In  In23  1  0.16811867  0.64916669  0.87863597  1
  In  In24  1  0.49523727  -0.00571725  0.37134090  1
  In  In25  1  0.49508357  0.00954842  0.87799551  1
  In  In26  1  0.50102117  0.35323271  0.37085029  1
  In  In27  1  0.48615623  0.34822820  0.88988836  1
  In  In28  1  0.50781252  0.65329402  0.38161170  1
  In  In29  1  0.49731429  0.66196835  0.87101045  1
  In  In30  1  0.82112042  0.00767814  0.37685441  1
  In  In31  1  0.82931787  -0.01017592  0.87518919  1
  In  In32  1  0.83309958  0.32828347  0.36895094  1
  In  In33  1  0.84761308  0.33765020  0.87811861  1
  In  In34  1  0.83763598  0.67017332  0.36634597  1
  In  In35  1  0.82511209  0.66691180  0.88735782  1
  In  In36  1  -0.01988559  0.17054141  0.36569020  1
  In  In37  1  0.00852009  0.17911725  0.87171249  1
  In  In38  1  -0.00376953  0.49937185  0.35146376  1
  In  In39  1  0.01136806  0.49267704  0.88538123  1
  In  In40  1  -0.00439474  0.81691072  0.37167098  1
  In  In41  1  -0.01851447  0.83045390  0.87197428  1
  In  In42  1  0.33217949  0.16804222  0.37065231  1
  In  In43  1  0.32661981  0.16847000  0.87706363  1
  In  In44  1  0.35239452  0.50332406  0.36043253  1
  In  In45  1  0.33394035  0.49653749  0.87453713  1
  In  In46  1  0.33244062  0.84289001  0.37415506  1
  In  In47  1  0.33825129  0.83464092  0.86599027  1
  In  In48  1  0.69014635  0.17078940  0.36919553  1
  In  In49  1  0.65712548  0.15763188  0.88453598  1
  In  In50  1  0.64459934  0.50638514  0.36636616  1
  In  In51  1  0.64872054  0.51512200  0.90135182  1
  In  In52  1  0.66292880  0.83312614  0.37458450  1
  In  In53  1  0.68326345  0.82862210  0.87838190  1
  In  In54  1  0.16702718  0.01721201  0.12257077  1
  In  In55  1  0.16327162  0.00061262  0.63558842  1
  In  In56  1  0.17113594  0.33770931  0.12977980  1
  In  In57  1  0.16696024  0.33448865  0.63213241  1
  In  In58  1  0.16638868  0.63339047  0.12889536  1
  In  In59  1  0.17464993  0.67782616  0.62590590  1
  In  In60  1  0.49633815  0.01160776  0.13326345  1
  In  In61  1  0.50526427  -0.01224204  0.62781465  1
  In  In62  1  0.50071042  0.32712285  0.11243421  1
  In  In63  1  0.48830203  0.33471767  0.62606353  1
  In  In64  1  0.52192557  0.65741505  0.12620487  1
  In  In65  1  0.49890631  0.66810351  0.62544107  1
  In  In66  1  0.83633074  -0.01096667  0.12718383  1
  In  In67  1  0.83642812  0.00022503  0.61818512  1
  In  In68  1  0.82395517  0.36912815  0.13620945  1
  In  In69  1  0.84610627  0.33283085  0.62523658  1
  In  In70  1  0.82661775  0.66333523  0.12747495  1
  In  In71  1  0.81713817  0.66440544  0.62406256  1
  In  In72  1  0.82602995  0.49810624  0.49399468  1
  In  In73  1  0.16241106  0.17126013  0.50338396  1
  In  In74  1  0.15940131  0.82765759  -0.00407422  1
  In  In75  1  0.17052020  0.83182735  0.49591312  1
  In  In76  1  0.00313092  0.00254952  0.24781355  1
  In  In77  1  0.17204108  0.50470457  0.49941477  1
  In  In78  1  0.50490442  0.16277701  0.50208671  1
  In  In79  1  0.66844401  0.33403629  0.76376914  1
  In  In80  1  0.33633256  0.66718854  0.24642550  1
  In  In81  1  0.50567956  0.82959066  0.00332175  1
  In  In82  1  0.66343872  -0.00552054  0.75354244  1
  In  In83  1  0.83501039  0.17096302  0.00591798  1
  In  In84  1  0.66263873  0.33983195  0.24573584  1
  In  In85  1  0.00378540  0.66406272  0.75011285  1
  Cu  Cu86  1  0.00507019  0.33814179  0.00724567  1
  Cu  Cu87  1  -0.01099850  -0.00212864  0.49599767  1
  Cu  Cu88  1  0.83575387  0.49875782  0.75485434  1
  Cu  Cu89  1  0.16789754  0.83567289  0.75106689  1
  Cu  Cu90  1  0.83908269  0.16702829  0.74821878  1
  Cu  Cu91  1  0.16167242  0.16820597  0.75392679  1
  Cu  Cu92  1  0.17204826  0.49429465  0.75616743  1
  Cu  Cu93  1  0.66394848  -0.00515428  0.00554420  1
  Cu  Cu94  1  0.16671674  0.83452304  0.24639385  1
  Cu  Cu95  1  0.66147032  0.67274750  0.49941574  1
  Cu  Cu96  1  0.49697363  0.16872478  0.24976053  1
  Cu  Cu97  1  -0.00486358  0.66070344  0.00615271  1
  Cu  Cu98  1  0.34274343  0.34497118  0.49725338  1
  Cu  Cu99  1  0.83077436  0.83126270  0.74910262  1
  Cu  Cu100  1  0.66748578  0.33850134  0.49092451  1
  Cu  Cu101  1  0.17712014  0.16830240  0.24662512  1
  Cu  Cu102  1  -0.00122847  0.00163069  0.00008940  1
  Cu  Cu103  1  0.32900731  0.00805289  0.00309507  1
  Cu  Cu104  1  0.48703655  0.17018193  0.75624341  1
  Cu  Cu105  1  0.33614901  -0.00554490  0.50417307  1
  Cu  Cu106  1  0.50233047  0.82736684  0.74661371  1
  Cu  Cu107  1  0.82551481  0.83314914  0.25059954  1
  Cu  Cu108  1  -0.00724206  0.66039589  0.49093685  1
  Cu  Cu109  1  0.33784464  0.65580578  -0.00183459  1
  Cu  Cu110  1  0.32724104  0.33009456  -0.00093952  1
  Cu  Cu111  1  -0.00345179  0.32705538  0.49687072  1
  Cu  Cu112  1  0.67185940  -0.00098887  0.49675525  1
  Cu  Cu113  1  0.50365867  0.50072072  0.75617382  1
  Cu  Cu114  1  0.50422301  0.83818378  0.24923703  1
  Se  Se115  1  0.08577140  0.08621802  0.04616197  1
  Se  Se116  1  0.07509492  0.07183242  0.55681918  1
  Se  Se117  1  0.08490978  0.42191413  0.06320071  1
  Se  Se118  1  0.07670825  0.40899174  0.55565604  1
  Se  Se119  1  0.07975183  0.74086841  0.06470734  1
  Se  Se120  1  0.07441452  0.73888240  0.55302102  1
  Se  Se121  1  0.41667852  0.08450432  0.05704664  1
  Se  Se122  1  0.40870748  0.08109478  0.56491677  1
  Se  Se123  1  0.41620260  0.41408119  0.04657666  1
  Se  Se124  1  0.42423722  0.42510152  0.55299275  1
  Se  Se125  1  0.41229029  0.73770003  0.06034066  1
  Se  Se126  1  0.42402258  0.76079805  0.55888316  1
  Se  Se127  1  0.74385912  0.07856576  0.06404344  1
  Se  Se128  1  0.75303484  0.08453998  0.54997719  1
  Se  Se129  1  0.74125941  0.39851530  0.04976487  1
  Se  Se130  1  0.74252930  0.41205583  0.56302953  1
  Se  Se131  1  0.75882355  0.75310878  0.05390732  1
  Se  Se132  1  0.75055384  0.75157369  0.55087985  1
  Se  Se133  1  0.24543318  0.25009184  0.05682768  1
  Se  Se134  1  0.26049282  0.26398448  0.55571705  1
  Se  Se135  1  0.24933822  0.57589051  0.04903207  1
  Se  Se136  1  0.26068872  0.59321744  0.55954026  1
  Se  Se137  1  0.25158651  0.91776498  0.05757104  1
  Se  Se138  1  0.25198737  0.91926411  0.56474705  1
  Se  Se139  1  0.58125038  0.24201203  0.04411242  1
  Se  Se140  1  0.59299078  0.26002006  0.55947980  1
  Se  Se141  1  0.58299495  0.58633940  0.04286455  1
  Se  Se142  1  0.58273991  0.58558604  0.55411455  1
  Se  Se143  1  0.58663626  0.91761765  0.06984246  1
  Se  Se144  1  0.58116810  0.92134406  0.54826948  1
  Se  Se145  1  0.91852613  0.26376042  0.06703468  1
  Se  Se146  1  0.91460845  0.24585507  0.55185875  1
  Se  Se147  1  0.91653277  0.57805656  0.06322104  1
  Se  Se148  1  0.92019378  0.58348084  0.55854995  1
  Se  Se149  1  0.91304443  0.91770557  0.04864264  1
  Se  Se150  1  0.91373822  0.90945196  0.55066187  1
  Se  Se151  1  0.08053144  0.25557498  0.43388165  1
  Se  Se152  1  0.08200083  0.25252906  0.94997372  1
  Se  Se153  1  0.07641635  0.58351410  0.43350210  1
  Se  Se154  1  0.08560630  0.58282448  0.95472248  1
  Se  Se155  1  0.07474204  0.92177853  0.43717448  1
  Se  Se156  1  0.07438318  0.92123751  0.93550524  1
  Se  Se157  1  0.41720193  0.25477170  0.44128794  1
  Se  Se158  1  0.41231969  0.24535901  0.94766892  1
  Se  Se159  1  0.40892174  0.58014054  0.44243069  1
  Se  Se160  1  0.42184097  0.57720201  0.94269028  1
  Se  Se161  1  0.41763489  0.91665618  0.44685493  1
  Se  Se162  1  0.40739347  0.92018495  0.94657514  1
  Se  Se163  1  0.75592872  0.25475170  0.44644822  1
  Se  Se164  1  0.74829009  0.25221937  0.93822759  1
  Se  Se165  1  0.73839965  0.59061887  0.43665646  1
  Se  Se166  1  0.76740051  0.56570038  0.95302317  1
  Se  Se167  1  0.75170648  0.91251549  0.44354701  1
  Se  Se168  1  0.75055446  0.91717969  0.95120720  1
  Se  Se169  1  0.25485411  0.07652943  0.44636749  1
  Se  Se170  1  0.24333344  0.08649083  0.94842738  1
  Se  Se171  1  0.25591506  0.41439874  0.43602130  1
  Se  Se172  1  0.24805780  0.41801445  0.94473772  1
  Se  Se173  1  0.26374194  0.73956030  0.44224396  1
  Se  Se174  1  0.26163605  0.74367506  0.94025612  1
  Se  Se175  1  0.59462285  0.08270295  0.43571640  1
  Se  Se176  1  0.57719425  0.07674586  0.95503719  1
  Se  Se177  1  0.58137180  0.42487922  0.44677610  1
  Se  Se178  1  0.59524060  0.39753200  0.95264198  1
  Se  Se179  1  0.57697743  0.75344078  0.44454554  1
  Se  Se180  1  0.59201862  0.74191039  0.94106168  1
  Se  Se181  1  0.91400815  0.08677055  0.44197171  1
  Se  Se182  1  0.91879387  0.08201422  0.93813124  1
  Se  Se183  1  0.92667141  0.41677433  0.43666499  1
  Se  Se184  1  0.91978675  0.41870767  0.95341788  1
  Se  Se185  1  0.90883355  0.74859097  0.44518805  1
  Se  Se186  1  0.91885015  0.74800679  0.94993535  1
  Se  Se187  1  0.25739331  0.25366932  0.30077671  1
  Se  Se188  1  0.24617744  0.25156959  0.80657889  1
  Se  Se189  1  0.24218215  0.57774263  0.30449136  1
  Se  Se190  1  0.25388389  0.58345473  0.80400221  1
  Se  Se191  1  0.25411322  0.91614208  0.29640260  1
  Se  Se192  1  0.25138484  0.91984641  0.80337132  1
  Se  Se193  1  0.57920081  0.24600693  0.31250602  1
  Se  Se194  1  0.57110646  0.24385102  0.81677457  1
  Se  Se195  1  0.56972748  0.58814647  0.29507900  1
  Se  Se196  1  0.59115200  0.57805103  0.81059560  1
  Se  Se197  1  0.58705125  0.92174485  0.30374691  1
  Se  Se198  1  0.57541806  0.90476974  0.81615950  1
  Se  Se199  1  0.92114197  0.26462551  0.29460788  1
  Se  Se200  1  0.91690584  0.25310951  0.80307788  1
  Se  Se201  1  0.90862936  0.58636906  0.29425541  1
  Se  Se202  1  0.91833164  0.57877677  0.81516343  1
  Se  Se203  1  0.91320201  0.91237049  0.30838862  1
  Se  Se204  1  0.91206838  0.91900345  0.79943155  1
  Se  Se205  1  0.09437211  0.09273540  0.31090130  1
  Se  Se206  1  0.07734214  0.08250580  0.80453626  1
  Se  Se207  1  0.08281200  0.41502523  0.29045181  1
  Se  Se208  1  0.08164729  0.41615434  0.80640346  1
  Se  Se209  1  0.08397231  0.75056574  0.29847198  1
  Se  Se210  1  0.09114410  0.75415890  0.81408252  1
  Se  Se211  1  0.41590225  0.08372344  0.30520124  1
  Se  Se212  1  0.40803930  0.08086966  0.80734408  1
  Se  Se213  1  0.41639055  0.40843499  0.29251929  1
  Se  Se214  1  0.41891849  0.41425614  0.80506140  1
  Se  Se215  1  0.42261457  0.75713708  0.30903473  1
  Se  Se216  1  0.41726857  0.74538605  0.80117947  1
  Se  Se217  1  0.75981269  0.08705209  0.29687668  1
  Se  Se218  1  0.75389705  0.09231476  0.80851369  1
  Se  Se219  1  0.75057513  0.42781559  0.31041248  1
  Se  Se220  1  0.75338718  0.42934190  0.82015540  1
  Se  Se221  1  0.74291459  0.74896218  0.30423543  1
  Se  Se222  1  0.75642744  0.74451020  0.80588062  1
  Se  Se223  1  0.25695434  0.08104813  0.19525953  1
  Se  Se224  1  0.24710010  0.08455946  0.70117458  1
  Se  Se225  1  0.25342857  0.42005395  0.19859141  1
  Se  Se226  1  0.25430001  0.41595462  0.69640411  1
  Se  Se227  1  0.24192203  0.75282387  0.18301529  1
  Se  Se228  1  0.25170149  0.74849972  0.70260088  1
  Se  Se229  1  0.58691326  0.08909805  0.20002338  1
  Se  Se230  1  0.57274018  0.09312314  0.69700815  1
  Se  Se231  1  0.57964361  0.42259769  0.17817158  1
  Se  Se232  1  0.58251165  0.41890771  0.69394834  1
  Se  Se233  1  0.58486273  0.75086231  0.19753543  1
  Se  Se234  1  0.58897302  0.74634893  0.69526180  1
  Se  Se235  1  0.91469990  0.09131617  0.18783202  1
  Se  Se236  1  0.91409042  0.08009370  0.69195256  1
  Se  Se237  1  0.93207049  0.40055654  0.20570342  1
  Se  Se238  1  0.91620247  0.41176701  0.70334798  1
  Se  Se239  1  0.90984982  0.75023893  0.19771551  1
  Se  Se240  1  0.91372270  0.75278350  0.68749734  1
  Se  Se241  1  0.08884145  0.24604338  0.19457658  1
  Se  Se242  1  0.08079680  0.25025123  0.69564085  1
  Se  Se243  1  0.06952937  0.59470502  0.20389674  1
  Se  Se244  1  0.09586471  0.57309226  0.68906494  1
  Se  Se245  1  0.08719505  0.91148126  0.18267147  1
  Se  Se246  1  0.07844024  0.91572709  0.70112681  1
  Se  Se247  1  0.42241942  0.25349665  0.19106901  1
  Se  Se248  1  0.41165158  0.25650282  0.69979539  1
  Se  Se249  1  0.41836257  0.57788553  0.18213727  1
  Se  Se250  1  0.42265864  0.58205826  0.69749901  1
  Se  Se251  1  0.41671166  0.92069903  0.19950323  1
  Se  Se252  1  0.41961938  0.92024333  0.70183112  1
  Se  Se253  1  0.75663821  0.25001570  0.18910194  1
  Se  Se254  1  0.75141264  0.24577242  0.69207017  1
  Se  Se255  1  0.74469235  0.57295589  0.19024602  1
  Se  Se256  1  0.75290924  0.58336474  0.70267885  1
  Se  Se257  1  0.74670157  0.92212945  0.19944189  1
  Se  Se258  1  0.74885741  0.90945863  0.68727938  1
