# generated using pymatgen
data_In86Cu29Se144
_symmetry_space_group_name_H-M   'P 1'
_cell_length_a   17.57119405
_cell_length_b   17.57141818
_cell_length_c   23.43411179
_cell_angle_alpha   89.98416744
_cell_angle_beta   90.03022976
_cell_angle_gamma   89.99714869
_symmetry_Int_Tables_number   1
_chemical_formula_structural   In86Cu29Se144
_chemical_formula_sum   'In86 Cu29 Se144'
_cell_volume   7235.29944022
_cell_formula_units_Z   1
loop_
 _symmetry_equiv_pos_site_id
 _symmetry_equiv_pos_as_xyz
  1  'x, y, z'
loop_
 _atom_site_type_symbol
 _atom_site_label
 _atom_site_symmetry_multiplicity
 _atom_site_fract_x
 _atom_site_fract_y
 _atom_site_fract_z
 _atom_site_occupancy
  In  In0  1  -0.00461669  0.15399425  0.10988662  1
  In  In1  1  -0.00678540  0.17676060  0.63223095  1
  In  In2  1  0.00956103  0.48676770  0.12042016  1
  In  In3  1  -0.01420364  0.51325192  0.64071196  1
  In  In4  1  0.00068488  0.85149371  0.11642389  1
  In  In5  1  0.00811556  0.82637766  0.63219064  1
  In  In6  1  0.34179704  0.18405696  0.12196927  1
  In  In7  1  0.33366606  0.16942933  0.63155853  1
  In  In8  1  0.32447640  0.48343845  0.11517032  1
  In  In9  1  0.32646838  0.48565229  0.62790233  1
  In  In10  1  0.33858601  0.81741844  0.11848155  1
  In  In11  1  0.32639477  0.84985597  0.62942927  1
  In  In12  1  0.67074692  0.16613494  0.12778797  1
  In  In13  1  0.65890209  0.16794124  0.62302792  1
  In  In14  1  0.65758717  0.50405260  0.13058508  1
  In  In15  1  0.67321869  0.50799642  0.62079475  1
  In  In16  1  0.66492130  0.82695957  0.11408345  1
  In  In17  1  0.67367500  0.82902814  0.63565745  1
  In  In18  1  0.15089287  0.00765020  0.37229489  1
  In  In19  1  0.17169948  0.00819797  0.87352764  1
  In  In20  1  0.16637864  0.32528702  0.36980119  1
  In  In21  1  0.16588359  0.33018300  0.87016719  1
  In  In22  1  0.17644807  0.66643521  0.38079143  1
  In  In23  1  0.15515871  0.66555140  0.87208813  1
  In  In24  1  0.51362882  0.00587048  0.37762222  1
  In  In25  1  0.49272140  -0.00788828  0.87210205  1
  In  In26  1  0.50276380  0.33203370  0.37355424  1
  In  In27  1  0.50652208  0.34564698  0.88021261  1
  In  In28  1  0.49598313  0.64978603  0.37635778  1
  In  In29  1  0.50874664  0.65956673  0.87684320  1
  In  In30  1  0.84252415  -0.00279074  0.37562433  1
  In  In31  1  0.83519104  0.00332047  0.87403472  1
  In  In32  1  0.81939060  0.34310894  0.38412859  1
  In  In33  1  0.83695731  0.30754294  0.88386100  1
  In  In34  1  0.81992812  0.67177613  0.37313997  1
  In  In35  1  0.84602916  0.67683467  0.86647576  1
  In  In36  1  0.00204916  0.15446064  0.37559051  1
  In  In37  1  0.00049619  0.16449517  0.87410862  1
  In  In38  1  -0.00183678  0.48841049  0.37878422  1
  In  In39  1  0.01251969  0.50435955  0.86392044  1
  In  In40  1  -0.00813507  0.84605895  0.37595351  1
  In  In41  1  -0.00630428  0.83073063  0.87025792  1
  In  In42  1  0.33770376  0.18343438  0.36894233  1
  In  In43  1  0.32026747  0.14761122  0.87209343  1
  In  In44  1  0.34424633  0.50247554  0.37696578  1
  In  In45  1  0.34145893  0.49178645  0.87513590  1
  In  In46  1  0.33145195  0.82131422  0.38019600  1
  In  In47  1  0.33632205  0.85338344  0.88042706  1
  In  In48  1  0.65145119  0.18102654  0.39111319  1
  In  In49  1  0.69508323  0.16967022  0.88295493  1
  In  In50  1  0.66422755  0.49622766  0.37241097  1
  In  In51  1  0.65540188  0.49706553  0.87672499  1
  In  In52  1  0.67960883  0.83152502  0.37135497  1
  In  In53  1  0.66795510  0.83455485  0.87295808  1
  In  In54  1  0.15097991  -0.00084734  0.11739043  1
  In  In55  1  0.17004514  -0.00566357  0.63190840  1
  In  In56  1  0.18105078  0.34004371  0.11569246  1
  In  In57  1  0.16598789  0.34611183  0.64502455  1
  In  In58  1  0.17792234  0.65579219  0.11989252  1
  In  In59  1  0.12942661  0.66805986  0.62827504  1
  In  In60  1  0.51241676  0.00134273  0.11850177  1
  In  In61  1  0.48822782  0.01463930  0.63445933  1
  In  In62  1  0.48575325  0.33793082  0.13144647  1
  In  In63  1  0.48994885  0.33073627  0.62113363  1
  In  In64  1  0.50893051  0.66554241  0.11725868  1
  In  In65  1  0.51436853  0.66756590  0.62556367  1
  In  In66  1  0.84438930  0.00878396  0.11081026  1
  In  In67  1  0.82581503  0.00880026  0.63408395  1
  In  In68  1  0.83353118  0.31691111  0.12414952  1
  In  In69  1  0.83483220  0.34135041  0.61991400  1
  In  In70  1  0.81746799  0.66049501  0.12292312  1
  In  In71  1  0.84175190  0.65624770  0.63090517  1
  In  In72  1  -0.00067179  0.66628019  0.24351958  1
  In  In73  1  -0.00060849  0.32579660  0.24837718  1
  In  In74  1  0.33189520  0.66878482  0.75377918  1
  In  In75  1  0.33729612  0.65951332  0.25073040  1
  In  In76  1  0.16915841  0.16777647  0.50090560  1
  In  In77  1  0.67427306  0.00771198  0.24180565  1
  In  In78  1  0.16650306  0.83374072  -0.00909048  1
  In  In79  1  0.33180973  0.00205815  0.24724683  1
  In  In80  1  0.50002283  0.83825770  0.50313921  1
  In  In81  1  0.83520541  0.49594072  -0.00066248  1
  In  In82  1  0.49897387  0.16180059  0.00064290  1
  In  In83  1  0.16210225  0.50343926  0.50787760  1
  In  In84  1  0.83824905  0.82944291  0.50354862  1
  In  In85  1  0.66821938  0.33324588  0.75657670  1
  Cu  Cu86  1  0.16351298  0.83559536  0.75481885  1
  Cu  Cu87  1  0.50053567  0.49610234  0.25108540  1
  Cu  Cu88  1  0.67097424  0.66866467  -0.00402263  1
  Cu  Cu89  1  0.66529338  0.00655460  0.50969153  1
  Cu  Cu90  1  0.15868219  0.83815215  0.24939374  1
  Cu  Cu91  1  0.34231281  0.65819233  -0.00373048  1
  Cu  Cu92  1  0.33208614  0.00797449  0.50707235  1
  Cu  Cu93  1  0.33569356  0.33487562  0.50036947  1
  Cu  Cu94  1  0.82611635  0.49800955  0.25234197  1
  Cu  Cu95  1  0.50337826  0.83680964  0.74979583  1
  Cu  Cu96  1  0.00065597  -0.00084370  0.50063789  1
  Cu  Cu97  1  0.83607612  0.83657137  0.24826820  1
  Cu  Cu98  1  0.32837284  0.66894510  0.50439494  1
  Cu  Cu99  1  0.00856662  0.32935755  -0.00405002  1
  Cu  Cu100  1  0.83864615  0.16432296  0.75289142  1
  Cu  Cu101  1  0.33288924  0.33013147  -0.00559920  1
  Cu  Cu102  1  0.67175655  -0.00323613  -0.00332334  1
  Cu  Cu103  1  0.83040298  0.83850191  0.75224332  1
  Cu  Cu104  1  0.83232369  0.49822875  0.75133784  1
  Cu  Cu105  1  0.66370574  0.65737488  0.49677419  1
  Cu  Cu106  1  0.66331817  0.33722408  0.50101332  1
  Cu  Cu107  1  0.50258693  0.49963701  0.75192424  1
  Cu  Cu108  1  0.16627232  0.16374247  0.75169941  1
  Cu  Cu109  1  0.00168868  0.66564188  -0.00716263  1
  Cu  Cu110  1  0.16361069  0.16876458  0.24449596  1
  Cu  Cu111  1  -0.00987013  0.33631204  0.50709737  1
  Cu  Cu112  1  0.50166584  0.16755183  0.75263722  1
  Cu  Cu113  1  0.50973144  0.82860157  0.24020380  1
  Cu  Cu114  1  0.83340941  0.16429889  0.24963029  1
  Se  Se115  1  0.08627359  0.08215298  0.04175452  1
  Se  Se116  1  0.07876182  0.08110083  0.56215431  1
  Se  Se117  1  0.09102150  0.41669800  0.04615013  1
  Se  Se118  1  0.07578403  0.41013418  0.56689201  1
  Se  Se119  1  0.08211130  0.74248055  0.05848366  1
  Se  Se120  1  0.08142829  0.75855833  0.55118607  1
  Se  Se121  1  0.40596279  0.07319857  0.05983890  1
  Se  Se122  1  0.41500015  0.09222979  0.55704665  1
  Se  Se123  1  0.41895669  0.41178508  0.04855141  1
  Se  Se124  1  0.41525780  0.42287392  0.55286710  1
  Se  Se125  1  0.42355898  0.74528615  0.04729928  1
  Se  Se126  1  0.40978933  0.74914763  0.56500606  1
  Se  Se127  1  0.74454685  0.08684687  0.05272772  1
  Se  Se128  1  0.75280112  0.08925766  0.55843155  1
  Se  Se129  1  0.74814280  0.41416091  0.06538922  1
  Se  Se130  1  0.74966994  0.42096950  0.55164850  1
  Se  Se131  1  0.75731773  0.75017467  0.04778697  1
  Se  Se132  1  0.74177671  0.73967981  0.55831074  1
  Se  Se133  1  0.25084898  0.24560230  0.04771210  1
  Se  Se134  1  0.24941839  0.26357348  0.56285661  1
  Se  Se135  1  0.25275339  0.57758976  0.04607236  1
  Se  Se136  1  0.25017855  0.59391282  0.56977112  1
  Se  Se137  1  0.25394753  0.91377652  0.06040662  1
  Se  Se138  1  0.24658856  0.92122007  0.55278216  1
  Se  Se139  1  0.58024913  0.25304319  0.06469939  1
  Se  Se140  1  0.57977096  0.25325743  0.55445377  1
  Se  Se141  1  0.59108512  0.58126612  0.04922224  1
  Se  Se142  1  0.57833228  0.57885879  0.55149490  1
  Se  Se143  1  0.58442387  0.91512996  0.04778853  1
  Se  Se144  1  0.58765165  0.92227237  0.56848061  1
  Se  Se145  1  0.91851738  0.25207812  0.04857272  1
  Se  Se146  1  0.91095905  0.24504427  0.55568798  1
  Se  Se147  1  0.92640436  0.58823680  0.06036101  1
  Se  Se148  1  0.92217011  0.58326273  0.55721842  1
  Se  Se149  1  0.91442267  0.91556091  0.04325056  1
  Se  Se150  1  0.91995848  0.92422326  0.56472932  1
  Se  Se151  1  0.07191406  0.25946882  0.44437946  1
  Se  Se152  1  0.08939867  0.24404663  0.94207426  1
  Se  Se153  1  0.07519017  0.58924706  0.44195650  1
  Se  Se154  1  0.08468581  0.57875176  0.94496244  1
  Se  Se155  1  0.08342680  0.91882773  0.44500693  1
  Se  Se156  1  0.07377915  0.92466565  0.93741883  1
  Se  Se157  1  0.41726323  0.25155903  0.44599901  1
  Se  Se158  1  0.41230700  0.24843157  0.93467387  1
  Se  Se159  1  0.41271166  0.58503483  0.45336200  1
  Se  Se160  1  0.42553335  0.57447159  0.94315861  1
  Se  Se161  1  0.40860580  0.92744535  0.44106419  1
  Se  Se162  1  0.42308336  0.91980459  0.95264827  1
  Se  Se163  1  0.75163062  0.24968332  0.45405684  1
  Se  Se164  1  0.72981207  0.27497998  0.95463340  1
  Se  Se165  1  0.74963211  0.58038171  0.44128077  1
  Se  Se166  1  0.75275182  0.58932683  0.93550798  1
  Se  Se167  1  0.74220160  0.92473950  0.44749059  1
  Se  Se168  1  0.75443600  0.91477260  0.94179112  1
  Se  Se169  1  0.25724976  0.08094687  0.43576691  1
  Se  Se170  1  0.25296954  0.07332691  0.95188357  1
  Se  Se171  1  0.24897301  0.41217676  0.44191990  1
  Se  Se172  1  0.24989934  0.41365356  0.94028445  1
  Se  Se173  1  0.24545057  0.75407761  0.45393661  1
  Se  Se174  1  0.26102067  0.73953784  0.93566578  1
  Se  Se175  1  0.57732778  0.08518965  0.45658340  1
  Se  Se176  1  0.59246186  0.07939851  0.93684969  1
  Se  Se177  1  0.58046260  0.41848692  0.44392886  1
  Se  Se178  1  0.59121494  0.41463288  0.95313533  1
  Se  Se179  1  0.58830320  0.74786045  0.43939966  1
  Se  Se180  1  0.58521261  0.75097103  0.94306351  1
  Se  Se181  1  0.91635252  0.08240254  0.44826039  1
  Se  Se182  1  0.89100379  0.11101374  0.93789546  1
  Se  Se183  1  0.91123540  0.42020211  0.45073150  1
  Se  Se184  1  0.92676479  0.41160976  0.93669791  1
  Se  Se185  1  0.92328742  0.74088950  0.43908247  1
  Se  Se186  1  0.91713702  0.75169913  0.94604599  1
  Se  Se187  1  0.24760945  0.25111406  0.29669742  1
  Se  Se188  1  0.25312954  0.24414233  0.80468366  1
  Se  Se189  1  0.24206853  0.57277653  0.30840101  1
  Se  Se190  1  0.24507320  0.57505795  0.81030323  1
  Se  Se191  1  0.24539601  0.90962146  0.31115205  1
  Se  Se192  1  0.25030454  0.91819017  0.80485832  1
  Se  Se193  1  0.58724238  0.24687832  0.30778717  1
  Se  Se194  1  0.58222914  0.24067269  0.81709268  1
  Se  Se195  1  0.58219953  0.58336497  0.30298395  1
  Se  Se196  1  0.58816647  0.58319590  0.80147164  1
  Se  Se197  1  0.58274869  0.91166451  0.30377030  1
  Se  Se198  1  0.58575438  0.92033490  0.80401695  1
  Se  Se199  1  0.90855887  0.24504778  0.31444532  1
  Se  Se200  1  0.92001646  0.25202118  0.80303729  1
  Se  Se201  1  0.91198811  0.57706386  0.30863949  1
  Se  Se202  1  0.92012747  0.58423188  0.80004357  1
  Se  Se203  1  0.91863099  0.92213708  0.29850231  1
  Se  Se204  1  0.91666128  0.92077548  0.80324968  1
  Se  Se205  1  0.07831429  0.08536298  0.29576405  1
  Se  Se206  1  0.08157927  0.08040158  0.80374806  1
  Se  Se207  1  0.08868831  0.42243101  0.30411809  1
  Se  Se208  1  0.07708375  0.40460669  0.80070299  1
  Se  Se209  1  0.08606964  0.75304822  0.31109895  1
  Se  Se210  1  0.07814724  0.74824506  0.80133333  1
  Se  Se211  1  0.42453742  0.08639931  0.30858182  1
  Se  Se212  1  0.41703441  0.08097777  0.80306750  1
  Se  Se213  1  0.41537420  0.41627937  0.30598223  1
  Se  Se214  1  0.42329139  0.41208853  0.80296234  1
  Se  Se215  1  0.42894746  0.75693396  0.30701700  1
  Se  Se216  1  0.42244162  0.75904992  0.81290662  1
  Se  Se217  1  0.75326615  0.08921164  0.31486367  1
  Se  Se218  1  0.74878866  0.08461623  0.80262989  1
  Se  Se219  1  0.74526835  0.41025733  0.30296075  1
  Se  Se220  1  0.76142805  0.41864121  0.81775277  1
  Se  Se221  1  0.74991563  0.75121832  0.29553914  1
  Se  Se222  1  0.74896088  0.74975738  0.80266935  1
  Se  Se223  1  0.24282792  0.08736735  0.18393824  1
  Se  Se224  1  0.25163871  0.08245495  0.69709335  1
  Se  Se225  1  0.24989243  0.41641070  0.19446386  1
  Se  Se226  1  0.26597454  0.41060194  0.70906692  1
  Se  Se227  1  0.24154849  0.75492739  0.19437986  1
  Se  Se228  1  0.24008858  0.75440341  0.69066557  1
  Se  Se229  1  0.56926394  0.09471802  0.19545371  1
  Se  Se230  1  0.58636197  0.08621856  0.69842958  1
  Se  Se231  1  0.58231851  0.41209051  0.19707197  1
  Se  Se232  1  0.58232624  0.41949206  0.68937775  1
  Se  Se233  1  0.59144018  0.74458224  0.18917196  1
  Se  Se234  1  0.58520126  0.74775383  0.70128488  1
  Se  Se235  1  0.91440220  0.08725831  0.18943104  1
  Se  Se236  1  0.92213177  0.08123053  0.69901587  1
  Se  Se237  1  0.90842970  0.42189895  0.19089493  1
  Se  Se238  1  0.91261220  0.41029642  0.69900330  1
  Se  Se239  1  0.91169357  0.75712576  0.18311166  1
  Se  Se240  1  0.91169335  0.75357058  0.69639909  1
  Se  Se241  1  0.08528567  0.24533387  0.17967077  1
  Se  Se242  1  0.08294022  0.24991427  0.70114207  1
  Se  Se243  1  0.09364990  0.57257784  0.19151199  1
  Se  Se244  1  0.09903241  0.56408338  0.70005620  1
  Se  Se245  1  0.07854774  0.92097188  0.19516804  1
  Se  Se246  1  0.08033920  0.91917578  0.70018934  1
  Se  Se247  1  0.41058868  0.25232744  0.20250168  1
  Se  Se248  1  0.41948870  0.25219878  0.69893975  1
  Se  Se249  1  0.42248324  0.57429013  0.18525602  1
  Se  Se250  1  0.42258550  0.58063276  0.69072258  1
  Se  Se251  1  0.42322637  0.90856259  0.18702154  1
  Se  Se252  1  0.41534020  0.91920933  0.70005567  1
  Se  Se253  1  0.74907011  0.24908484  0.19970555  1
  Se  Se254  1  0.75651460  0.24640230  0.69266415  1
  Se  Se255  1  0.74484180  0.58429110  0.19976391  1
  Se  Se256  1  0.74849304  0.58250250  0.69834382  1
  Se  Se257  1  0.75807256  0.91334111  0.18242420  1
  Se  Se258  1  0.74506824  0.92285108  0.70160130  1
