# generated using pymatgen
data_In86Cu29Se144
_symmetry_space_group_name_H-M   'P 1'
_cell_length_a   17.56951265
_cell_length_b   17.56625952
_cell_length_c   23.41934120
_cell_angle_alpha   90.01611826
_cell_angle_beta   89.99799991
_cell_angle_gamma   89.99593646
_symmetry_Int_Tables_number   1
_chemical_formula_structural   In86Cu29Se144
_chemical_formula_sum   'In86 Cu29 Se144'
_cell_volume   7227.92546123
_cell_formula_units_Z   1
loop_
 _symmetry_equiv_pos_site_id
 _symmetry_equiv_pos_as_xyz
  1  'x, y, z'
loop_
 _atom_site_type_symbol
 _atom_site_label
 _atom_site_symmetry_multiplicity
 _atom_site_fract_x
 _atom_site_fract_y
 _atom_site_fract_z
 _atom_site_occupancy
  In  In0  1  -0.00419835  0.18501779  0.12351646  1
  In  In1  1  -0.00749579  0.17127404  0.62337584  1
  In  In2  1  -0.00063223  0.48841379  0.12137198  1
  In  In3  1  0.00466969  0.49974093  0.63801544  1
  In  In4  1  -0.00236267  0.82568375  0.11263203  1
  In  In5  1  -0.00685747  0.82476128  0.63376878  1
  In  In6  1  0.34373234  0.16089278  0.13172131  1
  In  In7  1  0.32312279  0.16884276  0.62639198  1
  In  In8  1  0.32407513  0.49336972  0.11453698  1
  In  In9  1  0.34011496  0.50754673  0.62136909  1
  In  In10  1  0.33847740  0.83737223  0.11980722  1
  In  In11  1  0.34100300  0.82104124  0.63755728  1
  In  In12  1  0.66919922  0.16471570  0.13015276  1
  In  In13  1  0.68207678  0.16476720  0.61934899  1
  In  In14  1  0.66157782  0.50500405  0.13022265  1
  In  In15  1  0.66154474  0.51037473  0.63832074  1
  In  In16  1  0.66655598  0.82784884  0.12822710  1
  In  In17  1  0.66830597  0.83044676  0.62138205  1
  In  In18  1  0.17431402  -0.00809140  0.37128844  1
  In  In19  1  0.16424586  -0.02964903  0.87042364  1
  In  In20  1  0.17435969  0.34060912  0.36698957  1
  In  In21  1  0.16583516  0.36349338  0.86880810  1
  In  In22  1  0.15492787  0.66098425  0.38180367  1
  In  In23  1  0.16304156  0.66048180  0.86969498  1
  In  In24  1  0.49329480  -0.00946794  0.37171007  1
  In  In25  1  0.48914788  0.00287094  0.87478925  1
  In  In26  1  0.50398194  0.34035852  0.36905594  1
  In  In27  1  0.52222055  0.35415425  0.87224351  1
  In  In28  1  0.50854572  0.65518737  0.38502240  1
  In  In29  1  0.49187319  0.65132671  0.86923069  1
  In  In30  1  0.82650262  0.01001991  0.38292861  1
  In  In31  1  0.83844101  0.00041121  0.88522996  1
  In  In32  1  0.82579612  0.32674941  0.37055155  1
  In  In33  1  0.83266324  0.33901006  0.86687857  1
  In  In34  1  0.82940459  0.67873615  0.38020642  1
  In  In35  1  0.84391762  0.68117878  0.85223326  1
  In  In36  1  -0.01613466  0.17002142  0.38001129  1
  In  In37  1  -0.01698458  0.16836691  0.87865090  1
  In  In38  1  0.01198175  0.49867900  0.37852911  1
  In  In39  1  0.01589285  0.52555228  0.83802946  1
  In  In40  1  -0.00452452  0.82597362  0.38436086  1
  In  In41  1  0.00340601  0.82625392  0.87720953  1
  In  In42  1  0.33047174  0.16495728  0.36704864  1
  In  In43  1  0.33731700  0.16038351  0.87638301  1
  In  In44  1  0.33931743  0.49756035  0.38099872  1
  In  In45  1  0.31227207  0.53534248  0.90787602  1
  In  In46  1  0.33404158  0.84624201  0.37368841  1
  In  In47  1  0.28997168  0.79671053  0.83127464  1
  In  In48  1  0.67873775  0.17268629  0.37032431  1
  In  In49  1  0.67462370  0.19342856  0.88000805  1
  In  In50  1  0.66001783  0.49400252  0.36871867  1
  In  In51  1  0.66362446  0.49743904  0.86990272  1
  In  In52  1  0.66517467  0.83058763  0.37478702  1
  In  In53  1  0.68210533  0.83201967  0.87141106  1
  In  In54  1  0.17694688  -0.00314698  0.12417388  1
  In  In55  1  0.16945671  0.00447070  0.63161345  1
  In  In56  1  0.16311101  0.34008764  0.12597644  1
  In  In57  1  0.14594926  0.33912199  0.63494334  1
  In  In58  1  0.16469774  0.65994026  0.10653691  1
  In  In59  1  0.18202050  0.65259891  0.65191137  1
  In  In60  1  0.49971531  0.00143371  0.13288047  1
  In  In61  1  0.50723503  -0.01560643  0.61875024  1
  In  In62  1  0.50175494  0.33505940  0.12998280  1
  In  In63  1  0.49774979  0.35275925  0.62190294  1
  In  In64  1  0.50662775  0.67330243  0.11988296  1
  In  In65  1  0.50195418  0.66759426  0.62509822  1
  In  In66  1  0.82527970  -0.00910474  0.12043325  1
  In  In67  1  0.83933442  -0.00976070  0.60964488  1
  In  In68  1  0.83693806  0.33168126  0.12667101  1
  In  In69  1  0.83821955  0.33217684  0.63245587  1
  In  In70  1  0.81840386  0.66494096  0.12195448  1
  In  In71  1  0.81764040  0.68106132  0.65245170  1
  In  In72  1  -0.00079939  0.00532307  0.25804933  1
  In  In73  1  0.50304257  0.16780044  0.00531118  1
  In  In74  1  0.66753822  0.00131650  0.74373583  1
  In  In75  1  0.83435855  0.50193577  0.51422124  1
  In  In76  1  0.49436186  0.82838044  -0.00356447  1
  In  In77  1  0.15880735  0.17011971  0.50735405  1
  In  In78  1  0.33636603  0.66711532  0.24622310  1
  In  In79  1  0.50148357  0.17001702  0.48745115  1
  In  In80  1  -0.00451527  0.66411418  0.25429704  1
  In  In81  1  0.33677398  0.33769674  0.75573499  1
  In  In82  1  0.16171593  0.16982559  0.00503189  1
  In  In83  1  0.16378296  0.83107069  0.50481464  1
  In  In84  1  0.83735355  0.49899239  -0.01139473  1
  In  In85  1  0.00198264  -0.00211066  0.74857518  1
  Cu  Cu86  1  0.50265475  0.83148923  0.74517738  1
  Cu  Cu87  1  0.50523967  0.16605568  0.25405888  1
  Cu  Cu88  1  0.49942687  0.49831685  0.25093919  1
  Cu  Cu89  1  0.33176895  0.66892341  0.50971722  1
  Cu  Cu90  1  0.66420593  0.33655331  0.49412748  1
  Cu  Cu91  1  0.33878486  -0.00179814  0.50054963  1
  Cu  Cu92  1  0.83087796  0.49765855  0.24596574  1
  Cu  Cu93  1  0.67210149  0.66920109  -0.00106597  1
  Cu  Cu94  1  0.00123696  0.66410018  0.50971046  1
  Cu  Cu95  1  0.16868007  0.49618111  0.24733153  1
  Cu  Cu96  1  0.66943338  0.66515988  0.50709895  1
  Cu  Cu97  1  0.32560741  0.34944213  0.49766642  1
  Cu  Cu98  1  0.66839270  0.00412710  0.00046754  1
  Cu  Cu99  1  0.00152065  0.34214064  -0.00506944  1
  Cu  Cu100  1  0.50376089  0.17008724  0.75367763  1
  Cu  Cu101  1  0.16765135  0.16010138  0.75330568  1
  Cu  Cu102  1  -0.00542845  0.33639109  0.50750213  1
  Cu  Cu103  1  0.49632992  0.50704738  0.75087435  1
  Cu  Cu104  1  -0.00626222  -0.00192231  -0.00144241  1
  Cu  Cu105  1  0.83300077  0.16810617  0.25021269  1
  Cu  Cu106  1  0.82569469  0.16943243  0.75188562  1
  Cu  Cu107  1  0.34422638  0.33401904  0.00038869  1
  Cu  Cu108  1  0.82331054  0.83478747  0.25091763  1
  Cu  Cu109  1  0.50266656  0.83242566  0.24984319  1
  Cu  Cu110  1  0.17080802  0.83853978  0.24516790  1
  Cu  Cu111  1  0.16919186  0.17127706  0.24359339  1
  Cu  Cu112  1  0.67234854  -0.00963243  0.49713958  1
  Cu  Cu113  1  -0.00421201  0.66340343  -0.01523047  1
  Cu  Cu114  1  0.32258329  -0.01473585  -0.00452617  1
  Se  Se115  1  0.07166329  0.07566232  0.06388819  1
  Se  Se116  1  0.07280144  0.07039818  0.56054699  1
  Se  Se117  1  0.08893328  0.41973575  0.04976967  1
  Se  Se118  1  0.07791672  0.42114961  0.55847398  1
  Se  Se119  1  0.07893542  0.74502942  0.04297518  1
  Se  Se120  1  0.08916015  0.73670463  0.57043352  1
  Se  Se121  1  0.40686357  0.06726227  0.05328157  1
  Se  Se122  1  0.41540448  0.08581495  0.55776659  1
  Se  Se123  1  0.42492703  0.41593815  0.05640669  1
  Se  Se124  1  0.41757936  0.42588391  0.54767437  1
  Se  Se125  1  0.40201568  0.73472230  0.05246484  1
  Se  Se126  1  0.41788070  0.75410635  0.55723560  1
  Se  Se127  1  0.74936051  0.08625312  0.05657384  1
  Se  Se128  1  0.75327479  0.07861257  0.54782469  1
  Se  Se129  1  0.75167056  0.42194100  0.06081464  1
  Se  Se130  1  0.73768742  0.40959347  0.56475345  1
  Se  Se131  1  0.75039598  0.75724956  0.05219507  1
  Se  Se132  1  0.75791669  0.74168387  0.56125628  1
  Se  Se133  1  0.26389043  0.25210420  0.06080591  1
  Se  Se134  1  0.25086669  0.26818406  0.56089083  1
  Se  Se135  1  0.25054497  0.57812770  0.04313854  1
  Se  Se136  1  0.24362558  0.58999818  0.56170640  1
  Se  Se137  1  0.24114163  0.90495430  0.05212503  1
  Se  Se138  1  0.25871593  0.92008965  0.56271472  1
  Se  Se139  1  0.59537412  0.25907002  0.05871806  1
  Se  Se140  1  0.58439697  0.25511305  0.55706504  1
  Se  Se141  1  0.59044678  0.58789648  0.05444652  1
  Se  Se142  1  0.58554786  0.58018451  0.55837076  1
  Se  Se143  1  0.58329598  0.92310073  0.05699905  1
  Se  Se144  1  0.58661560  0.90729996  0.54716743  1
  Se  Se145  1  0.91780579  0.25971781  0.04850751  1
  Se  Se146  1  0.90826433  0.25017669  0.55382448  1
  Se  Se147  1  0.92279452  0.59104995  0.05767001  1
  Se  Se148  1  0.91809253  0.59430590  0.57460521  1
  Se  Se149  1  0.91079158  0.91217517  0.05122295  1
  Se  Se150  1  0.93068976  0.90419953  0.55421338  1
  Se  Se151  1  0.07688655  0.26153425  0.44238770  1
  Se  Se152  1  0.08303289  0.25833864  0.93584024  1
  Se  Se153  1  0.08195091  0.57986558  0.45552171  1
  Se  Se154  1  0.07354239  0.57386322  0.93363818  1
  Se  Se155  1  0.07946328  0.92613934  0.44256662  1
  Se  Se156  1  0.07880517  0.91332700  0.94899060  1
  Se  Se157  1  0.40121139  0.26218837  0.43882865  1
  Se  Se158  1  0.42062506  0.25616935  0.93722818  1
  Se  Se159  1  0.41195523  0.58622502  0.45109753  1
  Se  Se160  1  0.43867617  0.57526305  0.95410553  1
  Se  Se161  1  0.41998070  0.91199520  0.44926603  1
  Se  Se162  1  0.40353971  0.91094861  0.93378201  1
  Se  Se163  1  0.75123770  0.25051785  0.44813262  1
  Se  Se164  1  0.76715767  0.25926976  0.94743406  1
  Se  Se165  1  0.74573838  0.58266954  0.44423722  1
  Se  Se166  1  0.75049563  0.59531005  0.93271661  1
  Se  Se167  1  0.75634943  0.90700011  0.44339697  1
  Se  Se168  1  0.74846353  0.91672084  0.94786187  1
  Se  Se169  1  0.25381037  0.08007859  0.44568605  1
  Se  Se170  1  0.24519244  0.07653568  0.94180015  1
  Se  Se171  1  0.23761082  0.42687707  0.44395211  1
  Se  Se172  1  0.25168430  0.41187040  0.95072219  1
  Se  Se173  1  0.25691088  0.74435962  0.44014512  1
  Se  Se174  1  0.24826109  0.75182058  0.93053194  1
  Se  Se175  1  0.59369646  0.07359148  0.43626119  1
  Se  Se176  1  0.59070814  0.08160515  0.93756105  1
  Se  Se177  1  0.57915282  0.42029290  0.44445450  1
  Se  Se178  1  0.59895604  0.41867227  0.95085155  1
  Se  Se179  1  0.58827864  0.74658985  0.44830048  1
  Se  Se180  1  0.58994139  0.74542229  0.93578662  1
  Se  Se181  1  0.92270534  0.07714395  0.44951198  1
  Se  Se182  1  0.91105432  0.09022130  0.95525543  1
  Se  Se183  1  0.91608503  0.41498031  0.44299777  1
  Se  Se184  1  0.93464012  0.42200073  0.92664922  1
  Se  Se185  1  0.91722551  0.74470997  0.45515420  1
  Se  Se186  1  0.90663128  0.74763128  0.93968736  1
  Se  Se187  1  0.25298596  0.25298191  0.29963477  1
  Se  Se188  1  0.24166539  0.24603930  0.81442865  1
  Se  Se189  1  0.24184512  0.58203782  0.30855172  1
  Se  Se190  1  0.25691796  0.57274552  0.81138345  1
  Se  Se191  1  0.25618001  0.92041597  0.29669290  1
  Se  Se192  1  0.27057251  0.93720253  0.80093873  1
  Se  Se193  1  0.58751645  0.25191029  0.30582870  1
  Se  Se194  1  0.58569863  0.25459750  0.80408914  1
  Se  Se195  1  0.58075932  0.58568763  0.30339017  1
  Se  Se196  1  0.58874436  0.58799571  0.79969030  1
  Se  Se197  1  0.58506097  0.91590832  0.30458428  1
  Se  Se198  1  0.57816173  0.91446389  0.80836924  1
  Se  Se199  1  0.91790259  0.25139375  0.30248018  1
  Se  Se200  1  0.91669378  0.24846957  0.80138023  1
  Se  Se201  1  0.90611876  0.57375410  0.31461559  1
  Se  Se202  1  0.88124646  0.55632414  0.79965489  1
  Se  Se203  1  0.91089034  0.90698316  0.31169583  1
  Se  Se204  1  0.90981303  0.91441716  0.81043807  1
  Se  Se205  1  0.09411046  0.09738728  0.31342635  1
  Se  Se206  1  0.08684656  0.08511188  0.81727825  1
  Se  Se207  1  0.08042448  0.41763092  0.30139447  1
  Se  Se208  1  0.07643069  0.40661843  0.78917450  1
  Se  Se209  1  0.09169010  0.76053645  0.30798087  1
  Se  Se210  1  0.07320860  0.74308565  0.80397310  1
  Se  Se211  1  0.41808248  0.08161019  0.30394907  1
  Se  Se212  1  0.41692754  0.08664213  0.80077121  1
  Se  Se213  1  0.41143133  0.41894964  0.30401739  1
  Se  Se214  1  0.41812110  0.43177517  0.81637026  1
  Se  Se215  1  0.42309403  0.75284186  0.31199059  1
  Se  Se216  1  0.42391869  0.74676383  0.80043763  1
  Se  Se217  1  0.75265372  0.07990087  0.30250760  1
  Se  Se218  1  0.75090612  0.08704689  0.81371913  1
  Se  Se219  1  0.74845721  0.41464233  0.30261031  1
  Se  Se220  1  0.74143663  0.41212590  0.80018617  1
  Se  Se221  1  0.74637789  0.74515496  0.30396565  1
  Se  Se222  1  0.74374340  0.75340962  0.79169333  1
  Se  Se223  1  0.25067896  0.08165846  0.19536068  1
  Se  Se224  1  0.25559349  0.08313503  0.70040436  1
  Se  Se225  1  0.25445781  0.41563903  0.19374259  1
  Se  Se226  1  0.24930029  0.42146907  0.69003560  1
  Se  Se227  1  0.23999683  0.74984980  0.18482679  1
  Se  Se228  1  0.25095623  0.75740973  0.71111141  1
  Se  Se229  1  0.58610349  0.08173826  0.19868495  1
  Se  Se230  1  0.57564295  0.09260896  0.68440469  1
  Se  Se231  1  0.58633715  0.41561332  0.19955000  1
  Se  Se232  1  0.57762630  0.41794057  0.70015056  1
  Se  Se233  1  0.58301354  0.74613311  0.19718782  1
  Se  Se234  1  0.58858335  0.74958072  0.69301594  1
  Se  Se235  1  0.91328976  0.08771904  0.18914642  1
  Se  Se236  1  0.90306596  0.08482879  0.69175803  1
  Se  Se237  1  0.91914178  0.41651204  0.19639168  1
  Se  Se238  1  0.93419575  0.39784402  0.69882822  1
  Se  Se239  1  0.90918347  0.75600218  0.19221763  1
  Se  Se240  1  0.92373220  0.74677840  0.71091624  1
  Se  Se241  1  0.08268194  0.25496364  0.19517934  1
  Se  Se242  1  0.08145670  0.23622895  0.69764451  1
  Se  Se243  1  0.08847988  0.58053687  0.18945821  1
  Se  Se244  1  0.07647217  0.58698942  0.71066446  1
  Se  Se245  1  0.07892981  0.91212080  0.18967978  1
  Se  Se246  1  0.09615845  0.90523177  0.69577720  1
  Se  Se247  1  0.42171412  0.24812617  0.19838364  1
  Se  Se248  1  0.42379925  0.24838569  0.68914648  1
  Se  Se249  1  0.42246901  0.57559116  0.18575311  1
  Se  Se250  1  0.41436984  0.58936937  0.69516451  1
  Se  Se251  1  0.41539965  0.91202464  0.19561839  1
  Se  Se252  1  0.42217093  0.92086697  0.69451112  1
  Se  Se253  1  0.75093112  0.25287345  0.19629657  1
  Se  Se254  1  0.74375345  0.25070341  0.69565798  1
  Se  Se255  1  0.74833508  0.58671462  0.19882143  1
  Se  Se256  1  0.77266637  0.55734986  0.70244507  1
  Se  Se257  1  0.74383823  0.91896457  0.19580106  1
  Se  Se258  1  0.76227107  0.91325996  0.68899381  1
