# generated using pymatgen
data_In86Cu29Se144
_symmetry_space_group_name_H-M   'P 1'
_cell_length_a   17.58324149
_cell_length_b   17.58604573
_cell_length_c   23.44390446
_cell_angle_alpha   89.97272811
_cell_angle_beta   90.00712274
_cell_angle_gamma   90.00495926
_symmetry_Int_Tables_number   1
_chemical_formula_structural   In86Cu29Se144
_chemical_formula_sum   'In86 Cu29 Se144'
_cell_volume   7249.31594155
_cell_formula_units_Z   1
loop_
 _symmetry_equiv_pos_site_id
 _symmetry_equiv_pos_as_xyz
  1  'x, y, z'
loop_
 _atom_site_type_symbol
 _atom_site_label
 _atom_site_symmetry_multiplicity
 _atom_site_fract_x
 _atom_site_fract_y
 _atom_site_fract_z
 _atom_site_occupancy
  In  In0  1  -0.02245638  0.16212114  0.12906498  1
  In  In1  1  -0.00646972  0.18035809  0.62704771  1
  In  In2  1  0.00222766  0.50397271  0.11470576  1
  In  In3  1  -0.01594251  0.49580015  0.62758239  1
  In  In4  1  0.00172217  0.83847533  0.12723209  1
  In  In5  1  -0.00259351  0.82410265  0.61210037  1
  In  In6  1  0.34764915  0.18230382  0.12489309  1
  In  In7  1  0.33331843  0.17473264  0.62780572  1
  In  In8  1  0.33229739  0.50253015  0.11079718  1
  In  In9  1  0.34048741  0.49421044  0.63050820  1
  In  In10  1  0.33583986  0.82455574  0.11178424  1
  In  In11  1  0.32970476  0.82000699  0.61945382  1
  In  In12  1  0.69094313  0.15573831  0.14621854  1
  In  In13  1  0.67802847  0.16388840  0.62377869  1
  In  In14  1  0.66193492  0.49572498  0.11426724  1
  In  In15  1  0.66630157  0.50352171  0.62870701  1
  In  In16  1  0.67263202  0.83797359  0.11451214  1
  In  In17  1  0.65459964  0.81550984  0.61643931  1
  In  In18  1  0.15552177  -0.00297175  0.36998369  1
  In  In19  1  0.15804162  -0.01111115  0.87591500  1
  In  In20  1  0.16515572  0.32679987  0.37205155  1
  In  In21  1  0.18245766  0.34483213  0.85989661  1
  In  In22  1  0.17283354  0.67872419  0.38148509  1
  In  In23  1  0.18642433  0.65084621  0.89131783  1
  In  In24  1  0.50585870  -0.01307174  0.37142306  1
  In  In25  1  0.49226899  -0.01288076  0.87461386  1
  In  In26  1  0.50823914  0.34307204  0.37325457  1
  In  In27  1  0.51442601  0.34684310  0.86628480  1
  In  In28  1  0.50017723  0.65908035  0.38679599  1
  In  In29  1  0.50591033  0.66144844  0.87713335  1
  In  In30  1  0.83212425  -0.00090193  0.36789273  1
  In  In31  1  0.83752691  -0.00206611  0.88621489  1
  In  In32  1  0.82147775  0.34116983  0.38189693  1
  In  In33  1  0.83330343  0.33410868  0.87823488  1
  In  In34  1  0.82682197  0.67422573  0.38620746  1
  In  In35  1  0.82159133  0.66652817  0.88328631  1
  In  In36  1  -0.00702928  0.14890106  0.36699335  1
  In  In37  1  -0.00852910  0.16360996  0.87510653  1
  In  In38  1  -0.00755330  0.48966239  0.37684204  1
  In  In39  1  0.00647207  0.49256896  0.87940419  1
  In  In40  1  -0.01605299  0.84573047  0.39116959  1
  In  In41  1  0.00264613  0.83135949  0.88128226  1
  In  In42  1  0.32169699  0.17604633  0.37270948  1
  In  In43  1  0.32707635  0.18475529  0.87217600  1
  In  In44  1  0.34872071  0.50642153  0.37838384  1
  In  In45  1  0.34277744  0.50400758  0.87469759  1
  In  In46  1  0.34216872  0.82200409  0.38679288  1
  In  In47  1  0.35700083  0.80062156  0.89654064  1
  In  In48  1  0.68029443  0.17700044  0.36266802  1
  In  In49  1  0.66823719  0.18084414  0.87603631  1
  In  In50  1  0.66688873  0.49948819  0.37998731  1
  In  In51  1  0.66822281  0.49683762  0.88017042  1
  In  In52  1  0.66399119  0.83528200  0.37197128  1
  In  In53  1  0.67971453  0.81636224  0.89063232  1
  In  In54  1  0.16613512  -0.01403200  0.12941402  1
  In  In55  1  0.17087670  -0.01267050  0.62433759  1
  In  In56  1  0.17357887  0.34911096  0.11999293  1
  In  In57  1  0.16090610  0.33404860  0.64142327  1
  In  In58  1  0.16997191  0.66744860  0.10982037  1
  In  In59  1  0.16863568  0.68019620  0.62788485  1
  In  In60  1  0.51392784  0.00299260  0.12862481  1
  In  In61  1  0.50761519  -0.01887020  0.62151825  1
  In  In62  1  0.50250220  0.33909575  0.12629594  1
  In  In63  1  0.49492557  0.34963167  0.63126363  1
  In  In64  1  0.50631983  0.66573951  0.09582661  1
  In  In65  1  0.50016454  0.66527989  0.62988444  1
  In  In66  1  0.82818216  -0.00336182  0.13412874  1
  In  In67  1  0.83084871  -0.00308620  0.61484096  1
  In  In68  1  0.82634423  0.32345344  0.12077441  1
  In  In69  1  0.82593228  0.33384884  0.62783871  1
  In  In70  1  0.83396311  0.67351833  0.11277104  1
  In  In71  1  0.82820892  0.65082405  0.61469330  1
  In  In72  1  0.33494815  0.00497783  0.25095478  1
  In  In73  1  0.67090800  0.67333010  0.24502495  1
  In  In74  1  0.50998765  0.16323632  0.00353463  1
  In  In75  1  -0.00244846  0.66321740  0.75045728  1
  In  In76  1  0.15674958  0.16311222  0.49761497  1
  In  In77  1  0.66551019  0.00039129  0.74499160  1
  In  In78  1  0.00103726  0.00129193  0.75484243  1
  In  In79  1  0.50191152  0.16263080  0.50299314  1
  In  In80  1  0.15955051  0.16583537  -0.00680434  1
  In  In81  1  0.16164556  0.50508756  0.50973038  1
  In  In82  1  0.32925104  0.00487347  0.74902000  1
  In  In83  1  0.33848149  0.66185600  0.23937773  1
  In  In84  1  -0.00254936  0.66783391  0.24430980  1
  In  In85  1  -0.00304004  0.32953958  0.24789308  1
  Cu  Cu86  1  0.34065565  0.34159408  -0.00649041  1
  Cu  Cu87  1  0.83068691  0.17395129  0.75242587  1
  Cu  Cu88  1  -0.01745046  0.33109466  0.50180075  1
  Cu  Cu89  1  0.50205764  0.82220835  0.75426099  1
  Cu  Cu90  1  0.50357699  0.49676978  0.24637877  1
  Cu  Cu91  1  -0.00066579  0.33695541  -0.00161260  1
  Cu  Cu92  1  -0.01001216  0.00275135  0.00752046  1
  Cu  Cu93  1  0.50228705  0.50278841  0.75242617  1
  Cu  Cu94  1  0.67156034  0.32951640  0.00210265  1
  Cu  Cu95  1  0.66802295  -0.00106619  0.00710679  1
  Cu  Cu96  1  0.66587511  0.66483372  0.50298947  1
  Cu  Cu97  1  0.17165744  0.17773216  0.24707678  1
  Cu  Cu98  1  0.50268765  0.83009837  0.24704130  1
  Cu  Cu99  1  0.82396591  0.82453778  0.75121022  1
  Cu  Cu100  1  -0.00646880  0.66975605  -0.00170298  1
  Cu  Cu101  1  0.16220828  0.83581250  0.25168649  1
  Cu  Cu102  1  0.82872182  0.49802329  0.25168473  1
  Cu  Cu103  1  0.17122812  0.82838405  0.75456456  1
  Cu  Cu104  1  0.17028409  0.50433066  0.75698432  1
  Cu  Cu105  1  0.32711685  -0.00537618  0.00091053  1
  Cu  Cu106  1  0.33098775  0.33902182  0.50267929  1
  Cu  Cu107  1  0.49656563  0.17842323  0.74821674  1
  Cu  Cu108  1  0.33307698  -0.01105291  0.50065654  1
  Cu  Cu109  1  -0.00275012  -0.00360928  0.49396634  1
  Cu  Cu110  1  0.66433438  0.34087995  0.50090702  1
  Cu  Cu111  1  0.18085213  0.49972923  0.24370024  1
  Cu  Cu112  1  0.50257805  0.17863018  0.25016466  1
  Cu  Cu113  1  0.82628179  0.49578088  0.75133893  1
  Cu  Cu114  1  0.67473233  -0.00035208  0.49249068  1
  Se  Se115  1  0.07904920  0.08004506  0.06390152  1
  Se  Se116  1  0.07125790  0.07361748  0.56302122  1
  Se  Se117  1  0.08690814  0.41943093  0.04864599  1
  Se  Se118  1  0.07420399  0.40140586  0.56049178  1
  Se  Se119  1  0.07493419  0.75257945  0.05467791  1
  Se  Se120  1  0.08937778  0.74643876  0.55095484  1
  Se  Se121  1  0.40876138  0.07555460  0.05956504  1
  Se  Se122  1  0.40715488  0.07161882  0.56266772  1
  Se  Se123  1  0.42556526  0.41744812  0.05140610  1
  Se  Se124  1  0.41780112  0.42009341  0.55283037  1
  Se  Se125  1  0.39319951  0.72671713  0.04346118  1
  Se  Se126  1  0.44539393  0.77216279  0.56403027  1
  Se  Se127  1  0.74981274  0.08280881  0.06107483  1
  Se  Se128  1  0.75125991  0.08552105  0.54851459  1
  Se  Se129  1  0.75622084  0.41563334  0.05208866  1
  Se  Se130  1  0.74849595  0.42041266  0.55802092  1
  Se  Se131  1  0.74310518  0.74700993  0.04697583  1
  Se  Se132  1  0.75442251  0.74883994  0.55169295  1
  Se  Se133  1  0.25874876  0.25539529  0.04981582  1
  Se  Se134  1  0.24609824  0.25733631  0.55730446  1
  Se  Se135  1  0.24522314  0.57962215  0.04395547  1
  Se  Se136  1  0.25874815  0.58945846  0.56485660  1
  Se  Se137  1  0.24381549  0.91286323  0.05431060  1
  Se  Se138  1  0.24744033  0.90774259  0.55292181  1
  Se  Se139  1  0.59785789  0.24723346  0.06730914  1
  Se  Se140  1  0.58622485  0.25795287  0.56258292  1
  Se  Se141  1  0.60815614  0.59192447  0.03961088  1
  Se  Se142  1  0.58268832  0.58344723  0.55842104  1
  Se  Se143  1  0.57568253  0.91755840  0.05257540  1
  Se  Se144  1  0.59242515  0.91605369  0.54704093  1
  Se  Se145  1  0.92004357  0.25121941  0.05264129  1
  Se  Se146  1  0.90329171  0.24586744  0.55585399  1
  Se  Se147  1  0.91279773  0.58142386  0.04908604  1
  Se  Se148  1  0.93251872  0.58788764  0.55285437  1
  Se  Se149  1  0.91114767  0.91670581  0.06132979  1
  Se  Se150  1  0.91432193  0.91287560  0.54902138  1
  Se  Se151  1  0.06524045  0.25570370  0.43860460  1
  Se  Se152  1  0.08024263  0.26305306  0.93337857  1
  Se  Se153  1  0.07958822  0.58328520  0.43639031  1
  Se  Se154  1  0.07850882  0.58452255  0.94791836  1
  Se  Se155  1  0.09109384  0.91666536  0.44817287  1
  Se  Se156  1  0.07426100  0.92297606  0.95123121  1
  Se  Se157  1  0.40989910  0.25452818  0.44386190  1
  Se  Se158  1  0.42312824  0.25489829  0.94074063  1
  Se  Se159  1  0.40653102  0.59236689  0.45421812  1
  Se  Se160  1  0.41696235  0.58662679  0.94695979  1
  Se  Se161  1  0.42383519  0.91645903  0.44626339  1
  Se  Se162  1  0.41752216  0.91464531  0.95189392  1
  Se  Se163  1  0.74153875  0.25115094  0.44769276  1
  Se  Se164  1  0.75534179  0.24569624  0.94958261  1
  Se  Se165  1  0.74920685  0.58106725  0.44908734  1
  Se  Se166  1  0.73237668  0.59123472  0.95245783  1
  Se  Se167  1  0.75381948  0.91256848  0.43935648  1
  Se  Se168  1  0.75230544  0.91635830  0.95227029  1
  Se  Se169  1  0.25628247  0.07440139  0.44165316  1
  Se  Se170  1  0.25827649  0.07737016  0.93726741  1
  Se  Se171  1  0.24732106  0.41466457  0.44144420  1
  Se  Se172  1  0.25239505  0.41829301  0.93971190  1
  Se  Se173  1  0.26161643  0.74061672  0.45413573  1
  Se  Se174  1  0.22382680  0.77724773  0.93853398  1
  Se  Se175  1  0.58943643  0.08114859  0.43612248  1
  Se  Se176  1  0.59273566  0.07186239  0.93675265  1
  Se  Se177  1  0.57768762  0.42328406  0.44998370  1
  Se  Se178  1  0.58500969  0.41105977  0.94964061  1
  Se  Se179  1  0.58908481  0.74856276  0.44328756  1
  Se  Se180  1  0.55768932  0.77367902  0.94046830  1
  Se  Se181  1  0.91312820  0.08074467  0.44314206  1
  Se  Se182  1  0.91432529  0.08973207  0.95157699  1
  Se  Se183  1  0.90679034  0.42218636  0.45063809  1
  Se  Se184  1  0.91324311  0.42055862  0.94717111  1
  Se  Se185  1  0.92792766  0.73627735  0.44968831  1
  Se  Se186  1  0.91081734  0.75298158  0.94472496  1
  Se  Se187  1  0.25434277  0.26159070  0.29816868  1
  Se  Se188  1  0.24856066  0.24681181  0.79418588  1
  Se  Se189  1  0.24847018  0.58270229  0.30894074  1
  Se  Se190  1  0.25536644  0.58785669  0.80657186  1
  Se  Se191  1  0.25311254  0.90648317  0.31090452  1
  Se  Se192  1  0.25214984  0.90978302  0.81236527  1
  Se  Se193  1  0.58659477  0.26044693  0.30346269  1
  Se  Se194  1  0.58827451  0.25218893  0.80050320  1
  Se  Se195  1  0.57876185  0.58326310  0.30615041  1
  Se  Se196  1  0.58878788  0.58012384  0.80780655  1
  Se  Se197  1  0.58646337  0.91476407  0.29645420  1
  Se  Se198  1  0.58404753  0.90783026  0.80878394  1
  Se  Se199  1  0.90722225  0.24935945  0.31259133  1
  Se  Se200  1  0.91617288  0.25193764  0.80668955  1
  Se  Se201  1  0.90877825  0.57992790  0.30944524  1
  Se  Se202  1  0.90747058  0.57638488  0.81297886  1
  Se  Se203  1  0.92898059  0.91969509  0.30726017  1
  Se  Se204  1  0.90588677  0.90640655  0.80832164  1
  Se  Se205  1  0.09190544  0.08912460  0.29788712  1
  Se  Se206  1  0.09475227  0.09266676  0.80889778  1
  Se  Se207  1  0.09185658  0.42603438  0.30268476  1
  Se  Se208  1  0.07985982  0.41927337  0.80111431  1
  Se  Se209  1  0.08413237  0.75359712  0.31034503  1
  Se  Se210  1  0.08906919  0.74722262  0.81321931  1
  Se  Se211  1  0.42505643  0.09581292  0.31249937  1
  Se  Se212  1  0.42423960  0.09415814  0.81024790  1
  Se  Se213  1  0.41847573  0.42146596  0.30496516  1
  Se  Se214  1  0.41605464  0.41632858  0.80237387  1
  Se  Se215  1  0.42469725  0.74879846  0.30644840  1
  Se  Se216  1  0.41586091  0.74080901  0.80655768  1
  Se  Se217  1  0.74086783  0.07395735  0.30084361  1
  Se  Se218  1  0.75626003  0.08411008  0.81088882  1
  Se  Se219  1  0.74443389  0.41908845  0.30643534  1
  Se  Se220  1  0.74657672  0.41258964  0.80879714  1
  Se  Se221  1  0.76323546  0.75836690  0.30537097  1
  Se  Se222  1  0.74383176  0.74358631  0.80703694  1
  Se  Se223  1  0.24900761  0.09488228  0.18557056  1
  Se  Se224  1  0.23502987  0.09195339  0.68927869  1
  Se  Se225  1  0.26414615  0.41968384  0.18977577  1
  Se  Se226  1  0.25071113  0.41992729  0.70009790  1
  Se  Se227  1  0.24065205  0.75685564  0.18929024  1
  Se  Se228  1  0.25688555  0.74893889  0.70056483  1
  Se  Se229  1  0.58195374  0.08709090  0.20208571  1
  Se  Se230  1  0.56936260  0.09090638  0.68754388  1
  Se  Se231  1  0.59195814  0.41856330  0.19337506  1
  Se  Se232  1  0.58747533  0.41873593  0.70011107  1
  Se  Se233  1  0.57176245  0.74778129  0.18075409  1
  Se  Se234  1  0.58943189  0.74437615  0.69984447  1
  Se  Se235  1  0.90952328  0.08214260  0.20296940  1
  Se  Se236  1  0.90385503  0.08390637  0.69336268  1
  Se  Se237  1  0.91439403  0.42647848  0.18877978  1
  Se  Se238  1  0.91122059  0.41215126  0.69979333  1
  Se  Se239  1  0.90276900  0.75844879  0.19169787  1
  Se  Se240  1  0.90933347  0.75281071  0.68905943  1
  Se  Se241  1  0.09024182  0.24885749  0.18166400  1
  Se  Se242  1  0.07640448  0.24580427  0.70116072  1
  Se  Se243  1  0.09577529  0.57901357  0.18827016  1
  Se  Se244  1  0.08974004  0.57526715  0.68948221  1
  Se  Se245  1  0.07741591  0.92052230  0.20243940  1
  Se  Se246  1  0.08462765  0.90258004  0.69464500  1
  Se  Se247  1  0.41793075  0.26196781  0.19966669  1
  Se  Se248  1  0.41176345  0.25912672  0.69532879  1
  Se  Se249  1  0.43411716  0.57884508  0.17996967  1
  Se  Se250  1  0.41658286  0.58335610  0.69897752  1
  Se  Se251  1  0.41661201  0.90825240  0.18869926  1
  Se  Se252  1  0.42289243  0.90909666  0.69676909  1
  Se  Se253  1  0.75775763  0.25998283  0.20459388  1
  Se  Se254  1  0.74274299  0.25062510  0.69845859  1
  Se  Se255  1  0.75734372  0.57895846  0.18605562  1
  Se  Se256  1  0.75286214  0.58664379  0.69678690  1
  Se  Se257  1  0.73342321  0.91516539  0.19479187  1
  Se  Se258  1  0.75243594  0.90647069  0.68643900  1
