# generated using pymatgen
data_In86Cu29Se144
_symmetry_space_group_name_H-M   'P 1'
_cell_length_a   17.58473203
_cell_length_b   17.58035634
_cell_length_c   23.43673296
_cell_angle_alpha   89.96912328
_cell_angle_beta   89.99715676
_cell_angle_gamma   89.98835775
_symmetry_Int_Tables_number   1
_chemical_formula_structural   In86Cu29Se144
_chemical_formula_sum   'In86 Cu29 Se144'
_cell_volume   7245.36764359
_cell_formula_units_Z   1
loop_
 _symmetry_equiv_pos_site_id
 _symmetry_equiv_pos_as_xyz
  1  'x, y, z'
loop_
 _atom_site_type_symbol
 _atom_site_label
 _atom_site_symmetry_multiplicity
 _atom_site_fract_x
 _atom_site_fract_y
 _atom_site_fract_z
 _atom_site_occupancy
  In  In0  1  0.01378378  0.16718482  0.11994299  1
  In  In1  1  0.01403980  0.17037828  0.63494665  1
  In  In2  1  -0.00539513  0.48980449  0.12040278  1
  In  In3  1  0.00031139  0.49806660  0.62957803  1
  In  In4  1  -0.00130380  0.85041085  0.12326502  1
  In  In5  1  -0.00394624  0.82375138  0.63087531  1
  In  In6  1  0.34229158  0.17212677  0.11597278  1
  In  In7  1  0.33883840  0.16321202  0.61894302  1
  In  In8  1  0.31746211  0.50002256  0.12183413  1
  In  In9  1  0.33156146  0.49125947  0.62153608  1
  In  In10  1  0.34135714  0.82723707  0.12582038  1
  In  In11  1  0.34737086  0.85636808  0.60842821  1
  In  In12  1  0.65759878  0.17380639  0.12930881  1
  In  In13  1  0.65285173  0.18832984  0.63648480  1
  In  In14  1  0.67512074  0.49202514  0.13116772  1
  In  In15  1  0.64958005  0.48657622  0.59924639  1
  In  In16  1  0.66800482  0.82561280  0.13454684  1
  In  In17  1  0.66218043  0.84145160  0.62015705  1
  In  In18  1  0.18846278  -0.01515362  0.39685035  1
  In  In19  1  0.18161582  0.00628573  0.86716125  1
  In  In20  1  0.16614360  0.32328955  0.37183202  1
  In  In21  1  0.17028055  0.33328126  0.87405826  1
  In  In22  1  0.19558739  0.66229836  0.38403693  1
  In  In23  1  0.15126017  0.67179398  0.87531199  1
  In  In24  1  0.50238336  -0.01194750  0.39032315  1
  In  In25  1  0.50946518  0.01138483  0.86597190  1
  In  In26  1  0.50086136  0.32883776  0.37101901  1
  In  In27  1  0.48557866  0.32177262  0.86467442  1
  In  In28  1  0.53851592  0.62666532  0.41590047  1
  In  In29  1  0.50427586  0.66177168  0.87055604  1
  In  In30  1  0.82849601  0.01534646  0.37427542  1
  In  In31  1  0.81729035  0.00699692  0.87617377  1
  In  In32  1  0.84031278  0.34038436  0.37152275  1
  In  In33  1  0.84072800  0.34060089  0.86538340  1
  In  In34  1  0.80973561  0.66329358  0.38050232  1
  In  In35  1  0.84217646  0.65470413  0.88542090  1
  In  In36  1  0.00622048  0.17702026  0.37618464  1
  In  In37  1  0.00364629  0.19754568  0.85882973  1
  In  In38  1  0.00284418  0.48429606  0.37379098  1
  In  In39  1  -0.00266317  0.49974217  0.87546660  1
  In  In40  1  0.00732615  0.83673940  0.37466811  1
  In  In41  1  0.00184983  0.81819722  0.87224025  1
  In  In42  1  0.32598201  0.16915111  0.38447438  1
  In  In43  1  0.33185922  0.17214166  0.87367029  1
  In  In44  1  0.36799485  0.48449258  0.38578244  1
  In  In45  1  0.33672824  0.48219304  0.87321193  1
  In  In46  1  0.37937351  0.79745326  0.42889857  1
  In  In47  1  0.32012301  0.84128502  0.86991727  1
  In  In48  1  0.66214078  0.16252981  0.37014645  1
  In  In49  1  0.66282645  0.16218391  0.86311409  1
  In  In50  1  0.66764352  0.49272440  0.37253656  1
  In  In51  1  0.67967016  0.49912436  0.87926890  1
  In  In52  1  0.65660609  0.82344973  0.36817538  1
  In  In53  1  0.66323109  0.84813004  0.87494444  1
  In  In54  1  0.15786108  0.00526727  0.12264452  1
  In  In55  1  0.19651140  0.02387443  0.60472590  1
  In  In56  1  0.16601599  0.32840484  0.12524358  1
  In  In57  1  0.18802975  0.31178047  0.65101871  1
  In  In58  1  0.18276300  0.65331026  0.12338542  1
  In  In59  1  0.15991354  0.66579148  0.62474974  1
  In  In60  1  0.49191739  0.01415087  0.12661050  1
  In  In61  1  0.49740262  0.01063271  0.61948406  1
  In  In62  1  0.50773119  0.32654121  0.13282522  1
  In  In63  1  0.50290895  0.32756159  0.61633380  1
  In  In64  1  0.49980435  0.67576842  0.13034401  1
  In  In65  1  0.50099267  0.66867997  0.60494848  1
  In  In66  1  0.82853166  -0.01063209  0.11882762  1
  In  In67  1  0.81971145  -0.00370211  0.63256588  1
  In  In68  1  0.82691725  0.34375577  0.12831819  1
  In  In69  1  0.82212305  0.34517162  0.63582794  1
  In  In70  1  0.82599972  0.65850467  0.12101317  1
  In  In71  1  0.84237674  0.66121226  0.62357465  1
  In  In72  1  0.82960965  0.82902500  0.50270891  1
  In  In73  1  0.33119252  0.66290854  0.74530677  1
  In  In74  1  0.34619551  0.66387177  0.26546209  1
  In  In75  1  0.16519143  0.49977730  0.50807140  1
  In  In76  1  0.49728744  0.49793830  -0.00117572  1
  In  In77  1  0.50000861  0.83588348  0.00654796  1
  In  In78  1  -0.00222152  0.01524973  0.25272635  1
  In  In79  1  -0.00394261  0.66330915  0.24481630  1
  In  In80  1  0.82846964  0.17801577  0.50375696  1
  In  In81  1  0.00219782  -0.00200077  0.75449711  1
  In  In82  1  0.16268059  0.83038806  0.00155122  1
  In  In83  1  0.67189358  0.66717025  0.74183502  1
  In  In84  1  0.83774560  0.17146038  -0.01155360  1
  In  In85  1  0.32978387  0.00236921  0.26192765  1
  Cu  Cu86  1  0.00330719  0.33743234  -0.00436587  1
  Cu  Cu87  1  0.33482580  0.00396777  -0.00524107  1
  Cu  Cu88  1  0.82944624  0.17322544  0.24902657  1
  Cu  Cu89  1  0.66253036  0.33034892  0.00375927  1
  Cu  Cu90  1  0.50551703  0.50009974  0.25769739  1
  Cu  Cu91  1  -0.00485670  0.65821869  0.50181639  1
  Cu  Cu92  1  0.17057510  0.48449490  0.25069392  1
  Cu  Cu93  1  0.83282746  0.50296014  0.75130512  1
  Cu  Cu94  1  0.66230893  0.00142266  0.49921755  1
  Cu  Cu95  1  0.32846335  0.32913674  -0.00185012  1
  Cu  Cu96  1  0.17121007  0.83932925  0.74300460  1
  Cu  Cu97  1  0.67121576  0.66957091  0.00584714  1
  Cu  Cu98  1  0.82360544  0.83742583  0.24889916  1
  Cu  Cu99  1  0.50190628  0.16591697  0.25165460  1
  Cu  Cu100  1  0.16784285  0.16866535  0.25252057  1
  Cu  Cu101  1  0.50430586  0.83570457  0.26088102  1
  Cu  Cu102  1  0.49203461  0.84142267  0.74200233  1
  Cu  Cu103  1  -0.00301189  0.66411168  0.00115876  1
  Cu  Cu104  1  0.17046582  0.82981602  0.25987621  1
  Cu  Cu105  1  0.00627866  0.33264525  0.50449997  1
  Cu  Cu106  1  0.00434195  0.00401193  0.50724620  1
  Cu  Cu107  1  0.15786745  0.50097839  0.75186835  1
  Cu  Cu108  1  0.33640089  0.33172537  0.50325290  1
  Cu  Cu109  1  0.66408642  0.00551463  -0.00481485  1
  Cu  Cu110  1  0.50633056  0.49087099  0.73902808  1
  Cu  Cu111  1  0.82862355  0.82613638  0.74994201  1
  Cu  Cu112  1  0.82963941  0.50328868  0.24938273  1
  Cu  Cu113  1  0.00128661  0.00311936  -0.00521164  1
  Cu  Cu114  1  0.49394381  0.16778062  0.74438309  1
  Se  Se115  1  0.08734565  0.08459338  0.04613933  1
  Se  Se116  1  0.08336210  0.09422157  0.55566938  1
  Se  Se117  1  0.08679089  0.41502042  0.05481395  1
  Se  Se118  1  0.08960944  0.40238250  0.57021832  1
  Se  Se119  1  0.07553045  0.74073999  0.06677217  1
  Se  Se120  1  0.07257948  0.74451323  0.55613313  1
  Se  Se121  1  0.42096054  0.08555755  0.04681484  1
  Se  Se122  1  0.40409217  0.07142039  0.54549588  1
  Se  Se123  1  0.41056930  0.40719126  0.06073512  1
  Se  Se124  1  0.41954493  0.42024909  0.55136654  1
  Se  Se125  1  0.40556817  0.73405857  0.05212323  1
  Se  Se126  1  0.41454692  0.75542803  0.54595907  1
  Se  Se127  1  0.74690581  0.08691289  0.05493167  1
  Se  Se128  1  0.74216395  0.07986311  0.55975867  1
  Se  Se129  1  0.74724409  0.41694458  0.05191607  1
  Se  Se130  1  0.75544536  0.40896302  0.55076081  1
  Se  Se131  1  0.75096627  0.75685515  0.05831126  1
  Se  Se132  1  0.73957071  0.73755205  0.55968560  1
  Se  Se133  1  0.24534488  0.24520148  0.05295512  1
  Se  Se134  1  0.24950282  0.25611767  0.55943101  1
  Se  Se135  1  0.25025881  0.57931007  0.04496530  1
  Se  Se136  1  0.26066155  0.59537580  0.55717902  1
  Se  Se137  1  0.25958006  0.92264416  0.05952004  1
  Se  Se138  1  0.22262331  0.89411985  0.55780777  1
  Se  Se139  1  0.57743232  0.24781214  0.05387784  1
  Se  Se140  1  0.59140067  0.24888909  0.54919623  1
  Se  Se141  1  0.58586075  0.58867231  0.06205235  1
  Se  Se142  1  0.58005405  0.58656121  0.53581477  1
  Se  Se143  1  0.59030865  0.92767881  0.06315191  1
  Se  Se144  1  0.57740804  0.91864469  0.55172576  1
  Se  Se145  1  0.92118616  0.25728368  0.05745233  1
  Se  Se146  1  0.92349535  0.25703884  0.56673588  1
  Se  Se147  1  0.91472147  0.57980710  0.05544251  1
  Se  Se148  1  0.91705822  0.57228999  0.55452006  1
  Se  Se149  1  0.91811932  0.91980677  0.04694545  1
  Se  Se150  1  0.91795086  0.92408810  0.56201196  1
  Se  Se151  1  0.08848543  0.25053645  0.44979702  1
  Se  Se152  1  0.08277785  0.25078904  0.94285699  1
  Se  Se153  1  0.08060036  0.58679201  0.43812411  1
  Se  Se154  1  0.08017771  0.58386982  0.94579208  1
  Se  Se155  1  0.07688185  0.91642258  0.44983932  1
  Se  Se156  1  0.08226936  0.92177603  0.93456960  1
  Se  Se157  1  0.41849179  0.25188853  0.44536019  1
  Se  Se158  1  0.41750389  0.24963710  0.94639516  1
  Se  Se159  1  0.39136190  0.61352468  0.43359494  1
  Se  Se160  1  0.40967654  0.58873041  0.93679723  1
  Se  Se161  1  0.39045948  0.94389157  0.45296141  1
  Se  Se162  1  0.41475620  0.92021695  0.93764808  1
  Se  Se163  1  0.74284648  0.25971726  0.43600420  1
  Se  Se164  1  0.74036940  0.25919716  0.93484222  1
  Se  Se165  1  0.75394706  0.56429898  0.44731238  1
  Se  Se166  1  0.75057982  0.58132669  0.95367136  1
  Se  Se167  1  0.74621996  0.92289981  0.43954759  1
  Se  Se168  1  0.74903728  0.91726428  0.94916026  1
  Se  Se169  1  0.23627894  0.09858807  0.45438905  1
  Se  Se170  1  0.24923198  0.08652344  0.94409441  1
  Se  Se171  1  0.25427634  0.41262601  0.44200878  1
  Se  Se172  1  0.24868653  0.41750830  0.94728393  1
  Se  Se173  1  0.23344361  0.77295941  0.44704160  1
  Se  Se174  1  0.25542684  0.74447662  0.94062854  1
  Se  Se175  1  0.58337261  0.08867776  0.44588357  1
  Se  Se176  1  0.58361926  0.08987347  0.94179321  1
  Se  Se177  1  0.55646328  0.43680738  0.43535217  1
  Se  Se178  1  0.58407280  0.40784148  0.93714292  1
  Se  Se179  1  0.57794947  0.76343368  0.44818034  1
  Se  Se180  1  0.58929258  0.74354543  0.94302802  1
  Se  Se181  1  0.92367624  0.08246180  0.44611334  1
  Se  Se182  1  0.92923194  0.08274036  0.92908435  1
  Se  Se183  1  0.92250051  0.41176305  0.44869404  1
  Se  Se184  1  0.91322109  0.41580135  0.94416399  1
  Se  Se185  1  0.92036858  0.74170525  0.43808730  1
  Se  Se186  1  0.91754780  0.75208616  0.94878745  1
  Se  Se187  1  0.25698274  0.24784362  0.30427159  1
  Se  Se188  1  0.26436121  0.26654143  0.80509425  1
  Se  Se189  1  0.25237971  0.56256810  0.31222112  1
  Se  Se190  1  0.24323071  0.57958384  0.81195953  1
  Se  Se191  1  0.25586414  0.90017921  0.31961544  1
  Se  Se192  1  0.25528008  0.92384939  0.79323013  1
  Se  Se193  1  0.58727892  0.25192816  0.30050490  1
  Se  Se194  1  0.58014075  0.25045851  0.79813363  1
  Se  Se195  1  0.58151496  0.58903490  0.31228844  1
  Se  Se196  1  0.58194751  0.57183205  0.80217931  1
  Se  Se197  1  0.58393162  0.92687987  0.30916549  1
  Se  Se198  1  0.58030168  0.91550935  0.79930280  1
  Se  Se199  1  0.91768729  0.24687787  0.30507534  1
  Se  Se200  1  0.88570030  0.23040094  0.79951387  1
  Se  Se201  1  0.91132239  0.57889151  0.31240077  1
  Se  Se202  1  0.91625916  0.58602901  0.80530037  1
  Se  Se203  1  0.90869035  0.91402873  0.30813528  1
  Se  Se204  1  0.90684387  0.90714426  0.81196871  1
  Se  Se205  1  0.09866737  0.08259487  0.31670144  1
  Se  Se206  1  0.09286810  0.09670241  0.80462280  1
  Se  Se207  1  0.08208789  0.40566840  0.30225211  1
  Se  Se208  1  0.08024297  0.41582663  0.80785188  1
  Se  Se209  1  0.09069763  0.74142009  0.31193514  1
  Se  Se210  1  0.08849526  0.75405911  0.79603624  1
  Se  Se211  1  0.42508790  0.08999569  0.31664911  1
  Se  Se212  1  0.41395526  0.08670942  0.80358168  1
  Se  Se213  1  0.41650243  0.41075788  0.29846245  1
  Se  Se214  1  0.41755319  0.41678170  0.79521388  1
  Se  Se215  1  0.42347082  0.76206443  0.32321991  1
  Se  Se216  1  0.42183539  0.75748582  0.80675050  1
  Se  Se217  1  0.74838056  0.08440451  0.29853629  1
  Se  Se218  1  0.74257647  0.07324661  0.79784177  1
  Se  Se219  1  0.75079251  0.41380303  0.30123462  1
  Se  Se220  1  0.74607209  0.41954376  0.80164719  1
  Se  Se221  1  0.74808909  0.74735429  0.30185242  1
  Se  Se222  1  0.75116888  0.74875213  0.81572964  1
  Se  Se223  1  0.24619615  0.08695567  0.19087087  1
  Se  Se224  1  0.24841335  0.09319478  0.69160654  1
  Se  Se225  1  0.25512868  0.40771532  0.19390825  1
  Se  Se226  1  0.25259484  0.42738923  0.70108964  1
  Se  Se227  1  0.24909682  0.75101499  0.19692247  1
  Se  Se228  1  0.25335876  0.75885237  0.68324757  1
  Se  Se229  1  0.58268413  0.08151784  0.19702484  1
  Se  Se230  1  0.58124458  0.08362115  0.69354549  1
  Se  Se231  1  0.58470304  0.41751864  0.19847894  1
  Se  Se232  1  0.59011092  0.41250925  0.68420156  1
  Se  Se233  1  0.58064338  0.74880689  0.20392564  1
  Se  Se234  1  0.56910047  0.75231826  0.68695639  1
  Se  Se235  1  0.90661917  0.09296091  0.18421942  1
  Se  Se236  1  0.91243290  0.08367170  0.69097879  1
  Se  Se237  1  0.91604761  0.41926742  0.19785420  1
  Se  Se238  1  0.91854900  0.41770723  0.70080081  1
  Se  Se239  1  0.90995280  0.76269011  0.18897454  1
  Se  Se240  1  0.91308748  0.74240382  0.69996079  1
  Se  Se241  1  0.08162424  0.24718083  0.19704385  1
  Se  Se242  1  0.07327678  0.26239317  0.70825065  1
  Se  Se243  1  0.09407847  0.57210158  0.19285634  1
  Se  Se244  1  0.08034657  0.58721017  0.69706727  1
  Se  Se245  1  0.09278246  0.91248408  0.20038588  1
  Se  Se246  1  0.08710754  0.91797179  0.68519266  1
  Se  Se247  1  0.41580863  0.24405037  0.19548536  1
  Se  Se248  1  0.41640827  0.25311569  0.68783189  1
  Se  Se249  1  0.42227737  0.57390408  0.19175936  1
  Se  Se250  1  0.42986749  0.58150085  0.68397634  1
  Se  Se251  1  0.42234332  0.91101516  0.19726686  1
  Se  Se252  1  0.41234059  0.92778954  0.69064834  1
  Se  Se253  1  0.74656692  0.25503598  0.19380355  1
  Se  Se254  1  0.76479635  0.23721677  0.69800676  1
  Se  Se255  1  0.74602622  0.58842443  0.19795177  1
  Se  Se256  1  0.75005678  0.56888844  0.68272392  1
  Se  Se257  1  0.74477697  0.92446020  0.19563136  1
  Se  Se258  1  0.74188684  0.90730381  0.69949707  1
