# generated using pymatgen
data_In86Cu29Se144
_symmetry_space_group_name_H-M   'P 1'
_cell_length_a   17.58813353
_cell_length_b   17.58743672
_cell_length_c   23.44736726
_cell_angle_alpha   90.00967431
_cell_angle_beta   90.02034391
_cell_angle_gamma   89.95697772
_symmetry_Int_Tables_number   1
_chemical_formula_structural   In86Cu29Se144
_chemical_formula_sum   'In86 Cu29 Se144'
_cell_volume   7252.97585441
_cell_formula_units_Z   1
loop_
 _symmetry_equiv_pos_site_id
 _symmetry_equiv_pos_as_xyz
  1  'x, y, z'
loop_
 _atom_site_type_symbol
 _atom_site_label
 _atom_site_symmetry_multiplicity
 _atom_site_fract_x
 _atom_site_fract_y
 _atom_site_fract_z
 _atom_site_occupancy
  In  In0  1  -0.00730856  0.14545997  0.09944837  1
  In  In1  1  -0.01034867  0.15955234  0.63058138  1
  In  In2  1  0.01419985  0.50384621  0.12581195  1
  In  In3  1  0.02082650  0.51036549  0.62046489  1
  In  In4  1  -0.00147832  0.83446097  0.13329991  1
  In  In5  1  -0.00071984  0.82908800  0.62453537  1
  In  In6  1  0.34649360  0.17242315  0.11530607  1
  In  In7  1  0.34620335  0.16442357  0.62868532  1
  In  In8  1  0.32362083  0.48990293  0.12083436  1
  In  In9  1  0.32384506  0.48690694  0.62561492  1
  In  In10  1  0.33906189  0.82142432  0.12214310  1
  In  In11  1  0.33107362  0.83126639  0.61390461  1
  In  In12  1  0.66252395  0.16276854  0.12157768  1
  In  In13  1  0.66472080  0.17863163  0.62869536  1
  In  In14  1  0.66975292  0.51475403  0.12704034  1
  In  In15  1  0.65759504  0.50700818  0.62922717  1
  In  In16  1  0.67131283  0.83872006  0.13222929  1
  In  In17  1  0.65784425  0.82254249  0.61781590  1
  In  In18  1  0.15271450  -0.00413011  0.36988486  1
  In  In19  1  0.16051420  0.00896962  0.88024921  1
  In  In20  1  0.18183688  0.33638328  0.37047357  1
  In  In21  1  0.17242501  0.33414479  0.87689656  1
  In  In22  1  0.15891917  0.66975829  0.38578609  1
  In  In23  1  0.14913166  0.66025394  0.87607138  1
  In  In24  1  0.50783709  -0.01020760  0.37801952  1
  In  In25  1  0.48002226  0.00846026  0.89838147  1
  In  In26  1  0.48990049  0.34429070  0.38045419  1
  In  In27  1  0.49887673  0.33676756  0.87501081  1
  In  In28  1  0.50240805  0.66411229  0.37820932  1
  In  In29  1  0.50339568  0.65929501  0.87804806  1
  In  In30  1  0.81784530  -0.01066353  0.36365309  1
  In  In31  1  0.84861422  0.00099905  0.88025230  1
  In  In32  1  0.83961958  0.32813072  0.37500055  1
  In  In33  1  0.81888922  0.33480587  0.87704548  1
  In  In34  1  0.85108611  0.68556829  0.36938326  1
  In  In35  1  0.83372580  0.67055490  0.86617861  1
  In  In36  1  -0.00201491  0.15763298  0.36601897  1
  In  In37  1  0.00844093  0.15705002  0.88834251  1
  In  In38  1  0.00688202  0.51733020  0.37835642  1
  In  In39  1  0.00537735  0.51509623  0.87483143  1
  In  In40  1  -0.00399853  0.83046662  0.38108567  1
  In  In41  1  -0.00315557  0.82921657  0.86869317  1
  In  In42  1  0.33448384  0.18337317  0.36819076  1
  In  In43  1  0.32148047  0.17724977  0.88443222  1
  In  In44  1  0.33371649  0.49779914  0.38019547  1
  In  In45  1  0.33856509  0.49477793  0.87742846  1
  In  In46  1  0.33541341  0.82920080  0.38290356  1
  In  In47  1  0.33583243  0.84560904  0.87985093  1
  In  In48  1  0.66316501  0.14913629  0.37032521  1
  In  In49  1  0.65308833  0.17370083  0.88505188  1
  In  In50  1  0.65076342  0.50205368  0.37582070  1
  In  In51  1  0.66106061  0.49051083  0.86575326  1
  In  In52  1  0.66984844  0.83360141  0.37513915  1
  In  In53  1  0.65908608  0.82306156  0.86923063  1
  In  In54  1  0.15161431  -0.00148987  0.11953885  1
  In  In55  1  0.16123065  -0.01340806  0.62434915  1
  In  In56  1  0.17918756  0.34022509  0.12223104  1
  In  In57  1  0.17563613  0.35141589  0.62923597  1
  In  In58  1  0.16006731  0.65304791  0.12679294  1
  In  In59  1  0.15516330  0.65630260  0.61505328  1
  In  In60  1  0.51345884  0.01114331  0.11572964  1
  In  In61  1  0.49881169  -0.00052191  0.61740270  1
  In  In62  1  0.48911423  0.32769440  0.12042587  1
  In  In63  1  0.49760613  0.33532022  0.62832246  1
  In  In64  1  0.51232232  0.67238655  0.11952331  1
  In  In65  1  0.50763833  0.67203691  0.61979610  1
  In  In66  1  0.83550940  0.00716909  0.13224131  1
  In  In67  1  0.84797871  0.00098707  0.62771070  1
  In  In68  1  0.84536538  0.32433068  0.12124027  1
  In  In69  1  0.82843621  0.32219939  0.63059058  1
  In  In70  1  0.83389155  0.66392084  0.13705839  1
  In  In71  1  0.82821060  0.67258437  0.62550151  1
  In  In72  1  0.33028232  0.66235356  0.74863861  1
  In  In73  1  0.82658554  0.50766490  0.50779116  1
  In  In74  1  0.66181203  0.33142656  0.24218045  1
  In  In75  1  0.16884873  0.16781140  0.49101151  1
  In  In76  1  0.83477404  0.49596675  0.00271130  1
  In  In77  1  0.33574450  0.00274052  0.23900101  1
  In  In78  1  0.66555055  -0.00450514  0.75543281  1
  In  In79  1  0.17006959  0.83119526  0.00076428  1
  In  In80  1  0.00387801  0.33226725  0.24616776  1
  In  In81  1  0.33142766  0.66554515  0.25360455  1
  In  In82  1  0.32764503  0.00507052  0.75786617  1
  In  In83  1  0.83297594  0.83358795  -0.00328163  1
  In  In84  1  0.82678672  0.16225627  0.49946484  1
  In  In85  1  -0.00500888  0.33454398  0.74968037  1
  Cu  Cu86  1  0.50095640  0.16636635  0.24403951  1
  Cu  Cu87  1  0.33651467  0.65912860  0.00021146  1
  Cu  Cu88  1  0.00860355  0.33217910  0.00003412  1
  Cu  Cu89  1  0.83167386  0.16456055  0.75480532  1
  Cu  Cu90  1  0.33658234  0.00401615  0.49747564  1
  Cu  Cu91  1  0.83743307  0.83604880  0.25375059  1
  Cu  Cu92  1  0.66497042  -0.00610716  0.49684527  1
  Cu  Cu93  1  0.49048562  0.50353145  0.25395828  1
  Cu  Cu94  1  0.83239480  0.83176482  0.74842155  1
  Cu  Cu95  1  0.33769577  0.66340714  0.50084043  1
  Cu  Cu96  1  0.65271174  0.32961631  0.50202852  1
  Cu  Cu97  1  0.16224590  0.17316086  0.24349576  1
  Cu  Cu98  1  0.66852056  -0.00283106  0.00594089  1
  Cu  Cu99  1  0.50353147  0.49928228  0.75089557  1
  Cu  Cu100  1  0.66911739  0.66987461  0.49676971  1
  Cu  Cu101  1  0.15363294  0.82861720  0.74533585  1
  Cu  Cu102  1  0.66701871  0.66402665  -0.00273924  1
  Cu  Cu103  1  0.16342691  0.16883983  0.75795038  1
  Cu  Cu104  1  0.00488167  0.33986705  0.49951245  1
  Cu  Cu105  1  0.83325890  0.50465995  0.74656098  1
  Cu  Cu106  1  0.51541943  0.83694844  0.24817789  1
  Cu  Cu107  1  0.82985601  0.50315493  0.25580227  1
  Cu  Cu108  1  0.33652316  0.33883397  -0.00160825  1
  Cu  Cu109  1  -0.00071614  -0.00873854  0.49904321  1
  Cu  Cu110  1  0.65800986  0.33216163  -0.00089513  1
  Cu  Cu111  1  0.50239719  0.17764155  0.75333225  1
  Cu  Cu112  1  0.15917739  0.83515243  0.25476656  1
  Cu  Cu113  1  0.49832728  0.83564292  0.74678165  1
  Cu  Cu114  1  0.33799516  0.33218886  0.50126210  1
  Se  Se115  1  0.10003081  0.08567914  0.03985818  1
  Se  Se116  1  0.07594711  0.08202870  0.55496918  1
  Se  Se117  1  0.08651981  0.41759216  0.05475838  1
  Se  Se118  1  0.09143229  0.41685404  0.55260399  1
  Se  Se119  1  0.07667922  0.74633409  0.06102757  1
  Se  Se120  1  0.10430584  0.77116906  0.55977719  1
  Se  Se121  1  0.41508811  0.07554652  0.05121686  1
  Se  Se122  1  0.41765429  0.08721142  0.55151011  1
  Se  Se123  1  0.41937487  0.42196816  0.05276079  1
  Se  Se124  1  0.41761710  0.41735445  0.55665329  1
  Se  Se125  1  0.42008513  0.74457861  0.05055317  1
  Se  Se126  1  0.42147433  0.75076409  0.55075640  1
  Se  Se127  1  0.75248550  0.08073822  0.05742586  1
  Se  Se128  1  0.73939003  0.07345163  0.56388562  1
  Se  Se129  1  0.74067379  0.40707603  0.06285102  1
  Se  Se130  1  0.74100670  0.40421924  0.56064643  1
  Se  Se131  1  0.74854751  0.74018137  0.05914352  1
  Se  Se132  1  0.75242488  0.75221043  0.55043103  1
  Se  Se133  1  0.25498506  0.25325555  0.05177456  1
  Se  Se134  1  0.25388830  0.25125475  0.56022039  1
  Se  Se135  1  0.24865022  0.58430429  0.05517311  1
  Se  Se136  1  0.25578072  0.58129015  0.55655033  1
  Se  Se137  1  0.25870948  0.91995930  0.06206186  1
  Se  Se138  1  0.25091381  0.92374988  0.55081597  1
  Se  Se139  1  0.57871826  0.24753925  0.05533708  1
  Se  Se140  1  0.57482482  0.24515643  0.55769467  1
  Se  Se141  1  0.58532708  0.57909499  0.05058954  1
  Se  Se142  1  0.58741648  0.58480918  0.55095499  1
  Se  Se143  1  0.58872430  0.90878060  0.05693034  1
  Se  Se144  1  0.57976276  0.91311039  0.55191294  1
  Se  Se145  1  0.91649531  0.24953892  0.04367678  1
  Se  Se146  1  0.92435678  0.25602355  0.55549531  1
  Se  Se147  1  0.91994354  0.58982990  0.06112198  1
  Se  Se148  1  0.92599676  0.59481346  0.55823996  1
  Se  Se149  1  0.92000101  0.91990839  0.05989115  1
  Se  Se150  1  0.91432694  0.91383685  0.55503152  1
  Se  Se151  1  0.07330084  0.25701582  0.43352575  1
  Se  Se152  1  0.09331499  0.24942893  0.94684759  1
  Se  Se153  1  0.08789968  0.57926871  0.45569435  1
  Se  Se154  1  0.08368881  0.57991931  0.95384176  1
  Se  Se155  1  0.08808449  0.91389931  0.44647334  1
  Se  Se156  1  0.07297248  0.91675296  0.94256668  1
  Se  Se157  1  0.41722354  0.24732361  0.44603477  1
  Se  Se158  1  0.41891548  0.25272341  0.94558251  1
  Se  Se159  1  0.41989348  0.58068880  0.44568685  1
  Se  Se160  1  0.42088414  0.57770318  0.94629798  1
  Se  Se161  1  0.41901289  0.91595625  0.44711881  1
  Se  Se162  1  0.42520020  0.89765793  0.95634215  1
  Se  Se163  1  0.73731996  0.25620855  0.43994558  1
  Se  Se164  1  0.74732304  0.25066860  0.95000431  1
  Se  Se165  1  0.74712809  0.58909843  0.43480765  1
  Se  Se166  1  0.74812399  0.58425442  0.93729608  1
  Se  Se167  1  0.75409601  0.91530880  0.44601111  1
  Se  Se168  1  0.73909789  0.92117831  0.93622378  1
  Se  Se169  1  0.25835082  0.07683294  0.43070113  1
  Se  Se170  1  0.27802361  0.05419715  0.93465359  1
  Se  Se171  1  0.25045418  0.41332195  0.44910054  1
  Se  Se172  1  0.24913145  0.42069473  0.94708334  1
  Se  Se173  1  0.25254303  0.74813481  0.44980593  1
  Se  Se174  1  0.25654990  0.73874784  0.93742770  1
  Se  Se175  1  0.58246511  0.08149105  0.44719609  1
  Se  Se176  1  0.58279260  0.08268552  0.95455777  1
  Se  Se177  1  0.57776328  0.42061557  0.44979056  1
  Se  Se178  1  0.58330605  0.42084844  0.94404185  1
  Se  Se179  1  0.58367152  0.75262933  0.44339726  1
  Se  Se180  1  0.58317995  0.74840747  0.94545596  1
  Se  Se181  1  0.91895239  0.07484079  0.44017464  1
  Se  Se182  1  0.91262864  0.08691150  0.95370501  1
  Se  Se183  1  0.91734502  0.41682078  0.44390067  1
  Se  Se184  1  0.92554860  0.41006036  0.93808991  1
  Se  Se185  1  0.91879524  0.74797788  0.45296481  1
  Se  Se186  1  0.92329961  0.73824144  0.94274563  1
  Se  Se187  1  0.24981214  0.25345033  0.29434103  1
  Se  Se188  1  0.25137192  0.25161481  0.80441011  1
  Se  Se189  1  0.24137018  0.58046985  0.31379964  1
  Se  Se190  1  0.24312040  0.57675385  0.81153578  1
  Se  Se191  1  0.25217312  0.91206610  0.30688761  1
  Se  Se192  1  0.23442125  0.90616079  0.80812335  1
  Se  Se193  1  0.57459175  0.24835672  0.31001376  1
  Se  Se194  1  0.58842057  0.25610793  0.80700935  1
  Se  Se195  1  0.57883824  0.58595716  0.30205772  1
  Se  Se196  1  0.58471190  0.58683872  0.80246885  1
  Se  Se197  1  0.59328847  0.92226451  0.30355983  1
  Se  Se198  1  0.56415145  0.91889507  0.81439390  1
  Se  Se199  1  0.90589357  0.23989259  0.30029755  1
  Se  Se200  1  0.91315072  0.24472752  0.81543646  1
  Se  Se201  1  0.91846686  0.58399498  0.30548037  1
  Se  Se202  1  0.91746957  0.58352192  0.80185293  1
  Se  Se203  1  0.92345492  0.91773444  0.30775324  1
  Se  Se204  1  0.91279103  0.91568395  0.80364520  1
  Se  Se205  1  0.08588787  0.08433411  0.29656234  1
  Se  Se206  1  0.07910299  0.08411856  0.80656554  1
  Se  Se207  1  0.08617546  0.42195794  0.31059849  1
  Se  Se208  1  0.08619967  0.42154981  0.80812309  1
  Se  Se209  1  0.08314713  0.75029320  0.31145060  1
  Se  Se210  1  0.07706190  0.74295824  0.80137035  1
  Se  Se211  1  0.42242294  0.08620220  0.30742529  1
  Se  Se212  1  0.42423421  0.09292333  0.81244312  1
  Se  Se213  1  0.40988710  0.41677996  0.30463580  1
  Se  Se214  1  0.41795165  0.41806195  0.80322653  1
  Se  Se215  1  0.42638016  0.76175255  0.30561855  1
  Se  Se216  1  0.41774526  0.75685221  0.80886988  1
  Se  Se217  1  0.75727505  0.09220886  0.29995703  1
  Se  Se218  1  0.75102262  0.08709731  0.81701158  1
  Se  Se219  1  0.75099332  0.41747239  0.31105488  1
  Se  Se220  1  0.75406430  0.41650959  0.79872463  1
  Se  Se221  1  0.75119250  0.75146377  0.30440097  1
  Se  Se222  1  0.74561484  0.74935734  0.79906151  1
  Se  Se223  1  0.24258404  0.09213030  0.18301360  1
  Se  Se224  1  0.23864079  0.08977753  0.69047790  1
  Se  Se225  1  0.24400553  0.42440972  0.19853487  1
  Se  Se226  1  0.25474034  0.41577527  0.70670534  1
  Se  Se227  1  0.24013081  0.75735663  0.19312346  1
  Se  Se228  1  0.24645862  0.75861182  0.68973712  1
  Se  Se229  1  0.58682988  0.08167586  0.19635556  1
  Se  Se230  1  0.57466170  0.08692792  0.69465443  1
  Se  Se231  1  0.57151138  0.42735179  0.18879897  1
  Se  Se232  1  0.58621644  0.41394721  0.69684146  1
  Se  Se233  1  0.59134740  0.74543882  0.19593187  1
  Se  Se234  1  0.58216701  0.75085855  0.69673570  1
  Se  Se235  1  0.93521529  0.08559162  0.18909224  1
  Se  Se236  1  0.91714180  0.08040760  0.70572011  1
  Se  Se237  1  0.90709816  0.42586106  0.19134410  1
  Se  Se238  1  0.91271275  0.42625530  0.68327708  1
  Se  Se239  1  0.91859293  0.74930629  0.20131295  1
  Se  Se240  1  0.91630208  0.74839323  0.69519834  1
  Se  Se241  1  0.08276830  0.24549685  0.17755980  1
  Se  Se242  1  0.08818747  0.24496323  0.68869635  1
  Se  Se243  1  0.07702575  0.58746022  0.20196975  1
  Se  Se244  1  0.08914250  0.58633275  0.69794964  1
  Se  Se245  1  0.08255267  0.92090531  0.19857215  1
  Se  Se246  1  0.07369890  0.92008157  0.69692501  1
  Se  Se247  1  0.41375342  0.24975716  0.19603661  1
  Se  Se248  1  0.41358872  0.25411114  0.69964845  1
  Se  Se249  1  0.41934826  0.58364768  0.18643871  1
  Se  Se250  1  0.42464090  0.57840810  0.68752829  1
  Se  Se251  1  0.43040445  0.90915543  0.18668977  1
  Se  Se252  1  0.41436955  0.91582083  0.69100538  1
  Se  Se253  1  0.75878013  0.24256772  0.18995763  1
  Se  Se254  1  0.74739827  0.24855249  0.70432027  1
  Se  Se255  1  0.74464359  0.58707877  0.20503164  1
  Se  Se256  1  0.74774257  0.58680669  0.69362651  1
  Se  Se257  1  0.75546328  0.91997669  0.19920109  1
  Se  Se258  1  0.75149419  0.91185081  0.68798893  1
