# generated using pymatgen
data_In86Cu29Se144
_symmetry_space_group_name_H-M   'P 1'
_cell_length_a   17.57812755
_cell_length_b   17.57684019
_cell_length_c   23.43821542
_cell_angle_alpha   89.98893577
_cell_angle_beta   90.00426803
_cell_angle_gamma   90.02311259
_symmetry_Int_Tables_number   1
_chemical_formula_structural   In86Cu29Se144
_chemical_formula_sum   'In86 Cu29 Se144'
_cell_volume   7241.65636424
_cell_formula_units_Z   1
loop_
 _symmetry_equiv_pos_site_id
 _symmetry_equiv_pos_as_xyz
  1  'x, y, z'
loop_
 _atom_site_type_symbol
 _atom_site_label
 _atom_site_symmetry_multiplicity
 _atom_site_fract_x
 _atom_site_fract_y
 _atom_site_fract_z
 _atom_site_occupancy
  In  In0  1  0.00237296  0.16725540  0.12370104  1
  In  In1  1  0.01507396  0.16821312  0.61889566  1
  In  In2  1  0.00507199  0.47908403  0.12982211  1
  In  In3  1  0.00168046  0.48449613  0.62149854  1
  In  In4  1  0.02059100  0.83947867  0.13311771  1
  In  In5  1  -0.00999268  0.83986984  0.62189125  1
  In  In6  1  0.33103106  0.18750274  0.12880259  1
  In  In7  1  0.33478947  0.16721703  0.62678557  1
  In  In8  1  0.33473770  0.49544517  0.12420252  1
  In  In9  1  0.31875979  0.49051577  0.62002470  1
  In  In10  1  0.33498696  0.81395444  0.13035496  1
  In  In11  1  0.35221334  0.83166439  0.61805219  1
  In  In12  1  0.67330334  0.15753116  0.13093533  1
  In  In13  1  0.66468117  0.16690696  0.63024042  1
  In  In14  1  0.65848794  0.50885569  0.13060285  1
  In  In15  1  0.67011507  0.49492267  0.63313109  1
  In  In16  1  0.65614808  0.84220463  0.12548471  1
  In  In17  1  0.64458433  0.85340535  0.64293412  1
  In  In18  1  0.16212384  0.01866899  0.37726834  1
  In  In19  1  0.18137731  0.00246359  0.87243496  1
  In  In20  1  0.16199633  0.32492990  0.37372905  1
  In  In21  1  0.16563397  0.33008294  0.87515840  1
  In  In22  1  0.16546032  0.64902537  0.36700254  1
  In  In23  1  0.16236917  0.65704371  0.87822546  1
  In  In24  1  0.51057218  -0.00383726  0.38826930  1
  In  In25  1  0.49599047  -0.00357408  0.87377147  1
  In  In26  1  0.49354717  0.32551340  0.37299876  1
  In  In27  1  0.50676029  0.34115556  0.87326862  1
  In  In28  1  0.49725503  0.66933493  0.36851768  1
  In  In29  1  0.50730550  0.65848926  0.88241806  1
  In  In30  1  0.82613258  0.00299529  0.36855517  1
  In  In31  1  0.83264025  0.01758906  0.86848490  1
  In  In32  1  0.83750338  0.33713683  0.36863960  1
  In  In33  1  0.82540137  0.31600598  0.86274995  1
  In  In34  1  0.82733825  0.67896297  0.36907746  1
  In  In35  1  0.81909720  0.67529756  0.87386679  1
  In  In36  1  0.00509963  0.17649906  0.37136697  1
  In  In37  1  -0.01346917  0.17767660  0.88215837  1
  In  In38  1  0.01842504  0.48820140  0.37564275  1
  In  In39  1  0.01626039  0.49230738  0.88176904  1
  In  In40  1  -0.01337659  0.84233989  0.37180848  1
  In  In41  1  -0.00341812  0.83986402  0.87483750  1
  In  In42  1  0.32608868  0.17553185  0.38391654  1
  In  In43  1  0.32598750  0.16019294  0.87189716  1
  In  In44  1  0.30477827  0.47953679  0.34988896  1
  In  In45  1  0.34017136  0.49059419  0.88145625  1
  In  In46  1  0.34707625  0.83807229  0.37284133  1
  In  In47  1  0.33533918  0.85080519  0.87394012  1
  In  In48  1  0.65753182  0.16049655  0.37149025  1
  In  In49  1  0.67615409  0.17275771  0.86409427  1
  In  In50  1  0.65875394  0.49892356  0.36674304  1
  In  In51  1  0.65894255  0.48885439  0.87382115  1
  In  In52  1  0.65780181  0.83077533  0.36921765  1
  In  In53  1  0.66079950  0.82343898  0.86479352  1
  In  In54  1  0.15183550  -0.00442387  0.13028158  1
  In  In55  1  0.16077693  0.02963573  0.61806621  1
  In  In56  1  0.17083397  0.33411899  0.12306508  1
  In  In57  1  0.16895100  0.33157477  0.62520753  1
  In  In58  1  0.19765370  0.65696179  0.14207283  1
  In  In59  1  0.17888562  0.65711311  0.61650146  1
  In  In60  1  0.51364372  0.00239318  0.12438787  1
  In  In61  1  0.50210728  -0.00056923  0.62407385  1
  In  In62  1  0.48767317  0.34497368  0.13210507  1
  In  In63  1  0.51041013  0.31842553  0.63413962  1
  In  In64  1  0.49987102  0.66614413  0.12253858  1
  In  In65  1  0.50311019  0.67746299  0.62165573  1
  In  In66  1  0.82788965  0.00962118  0.12603172  1
  In  In67  1  0.82416189  -0.00093137  0.62662750  1
  In  In68  1  0.84390462  0.32010255  0.13048458  1
  In  In69  1  0.83994602  0.32033895  0.64346463  1
  In  In70  1  0.82603936  0.65688780  0.12730407  1
  In  In71  1  0.82668017  0.66440369  0.63119550  1
  In  In72  1  0.82599942  0.83989289  0.50619277  1
  In  In73  1  -0.00267927  0.00992312  0.74534374  1
  In  In74  1  0.33328535  0.00327423  0.25951330  1
  In  In75  1  0.83496646  0.83922637  -0.00459654  1
  In  In76  1  0.83534929  0.49089915  0.00459447  1
  In  In77  1  -0.00621168  0.66578250  0.24968672  1
  In  In78  1  0.17615289  0.83126576  0.00524056  1
  In  In79  1  0.33873582  0.66403545  0.74437272  1
  In  In80  1  0.49427102  0.49774773  0.49303200  1
  In  In81  1  -0.00110744  0.66100882  0.75560811  1
  In  In82  1  0.50084668  0.17170226  0.00251739  1
  In  In83  1  0.83766612  0.49632514  0.49402288  1
  In  In84  1  0.17009948  0.83731247  0.49054102  1
  In  In85  1  0.83419949  0.16514157  0.50624383  1
  Cu  Cu86  1  0.82326513  0.84025270  0.24649814  1
  Cu  Cu87  1  0.32807383  0.33686504  0.00125251  1
  Cu  Cu88  1  0.82802995  0.49836882  0.24949886  1
  Cu  Cu89  1  0.66002841  0.67149045  0.49633803  1
  Cu  Cu90  1  0.00621806  0.66304012  0.49732141  1
  Cu  Cu91  1  0.33583839  0.00302191  -0.00118509  1
  Cu  Cu92  1  0.49882421  0.50741056  0.24718374  1
  Cu  Cu93  1  0.33685862  0.65659719  0.49294346  1
  Cu  Cu94  1  0.16932648  0.84098649  0.74716788  1
  Cu  Cu95  1  0.33685772  0.00087527  0.50273386  1
  Cu  Cu96  1  0.50029771  0.50120752  0.75336057  1
  Cu  Cu97  1  0.83168080  0.49990680  0.75248690  1
  Cu  Cu98  1  0.66864442  0.00401538  0.00102805  1
  Cu  Cu99  1  0.66569311  0.33115709  -0.00082312  1
  Cu  Cu100  1  0.33084828  0.33082932  0.49711025  1
  Cu  Cu101  1  0.16643839  0.48949470  0.74999002  1
  Cu  Cu102  1  0.50088790  0.83322627  0.24928129  1
  Cu  Cu103  1  0.01022948  0.66222789  0.00349509  1
  Cu  Cu104  1  0.16415959  0.17232517  0.25006051  1
  Cu  Cu105  1  0.67296418  0.32683781  0.50758482  1
  Cu  Cu106  1  0.83506029  0.16768802  0.25058184  1
  Cu  Cu107  1  0.00271658  0.00614635  0.00234443  1
  Cu  Cu108  1  0.16801212  0.17296549  0.74964449  1
  Cu  Cu109  1  0.49866839  0.83561543  0.74931291  1
  Cu  Cu110  1  0.49499700  0.16214607  0.75141094  1
  Cu  Cu111  1  0.00363466  0.32613890  0.00193692  1
  Cu  Cu112  1  0.65955316  0.66746739  0.00127008  1
  Cu  Cu113  1  0.33842025  0.66313609  0.00414758  1
  Cu  Cu114  1  0.50353549  0.16963989  0.25269009  1
  Se  Se115  1  0.08963227  0.08426157  0.05555068  1
  Se  Se116  1  0.08374931  0.09389135  0.53863234  1
  Se  Se117  1  0.08497778  0.41412878  0.05164824  1
  Se  Se118  1  0.10029276  0.42616347  0.55582615  1
  Se  Se119  1  0.08843679  0.73954924  0.06558486  1
  Se  Se120  1  0.08041250  0.74774407  0.55885762  1
  Se  Se121  1  0.41005511  0.08325180  0.06449403  1
  Se  Se122  1  0.41784263  0.08477830  0.55755401  1
  Se  Se123  1  0.41820733  0.41718210  0.05091535  1
  Se  Se124  1  0.41625541  0.40521625  0.55975029  1
  Se  Se125  1  0.41930638  0.75293888  0.05255049  1
  Se  Se126  1  0.41839846  0.74200034  0.54502577  1
  Se  Se127  1  0.75172299  0.08906862  0.05121013  1
  Se  Se128  1  0.73551972  0.07336108  0.55518214  1
  Se  Se129  1  0.74290162  0.40750090  0.06594142  1
  Se  Se130  1  0.75472577  0.40948931  0.56297857  1
  Se  Se131  1  0.74695593  0.74626721  0.05647975  1
  Se  Se132  1  0.73937460  0.74381497  0.56176233  1
  Se  Se133  1  0.24743832  0.24756942  0.05018657  1
  Se  Se134  1  0.25171165  0.24815410  0.55610550  1
  Se  Se135  1  0.25091873  0.58305684  0.05588796  1
  Se  Se136  1  0.25094198  0.57423106  0.54359069  1
  Se  Se137  1  0.26080674  0.92486274  0.06582647  1
  Se  Se138  1  0.25173926  0.92086039  0.56170831  1
  Se  Se139  1  0.58772182  0.25735248  0.06690183  1
  Se  Se140  1  0.58442690  0.24532803  0.55573516  1
  Se  Se141  1  0.58032566  0.57965150  0.05301728  1
  Se  Se142  1  0.58954860  0.58165255  0.55677675  1
  Se  Se143  1  0.58188108  0.91916399  0.04823622  1
  Se  Se144  1  0.57723514  0.90741715  0.55654670  1
  Se  Se145  1  0.91500066  0.24465151  0.05197937  1
  Se  Se146  1  0.92270865  0.26318509  0.55941634  1
  Se  Se147  1  0.92726266  0.58499462  0.06251187  1
  Se  Se148  1  0.92154964  0.59051435  0.55982062  1
  Se  Se149  1  0.92800331  0.91871796  0.06150389  1
  Se  Se150  1  0.92459252  0.93675619  0.55257066  1
  Se  Se151  1  0.09323469  0.23686407  0.44748013  1
  Se  Se152  1  0.08699881  0.24436427  0.94621013  1
  Se  Se153  1  0.08825921  0.57938714  0.44596449  1
  Se  Se154  1  0.09269235  0.57575662  0.95368923  1
  Se  Se155  1  0.07095201  0.92665110  0.44128118  1
  Se  Se156  1  0.08255898  0.92181671  0.94399713  1
  Se  Se157  1  0.42139880  0.24834089  0.45047061  1
  Se  Se158  1  0.40961670  0.25651954  0.93995245  1
  Se  Se159  1  0.40426256  0.57487918  0.42609242  1
  Se  Se160  1  0.41879694  0.57921087  0.94794841  1
  Se  Se161  1  0.41752452  0.91427285  0.45069881  1
  Se  Se162  1  0.41923245  0.91724355  0.94992674  1
  Se  Se163  1  0.75031122  0.25470918  0.43991053  1
  Se  Se164  1  0.74704173  0.25013699  0.94328427  1
  Se  Se165  1  0.74246353  0.59100744  0.43933687  1
  Se  Se166  1  0.74528321  0.58540606  0.94573039  1
  Se  Se167  1  0.73903183  0.92185834  0.43953525  1
  Se  Se168  1  0.74377627  0.92502179  0.93506106  1
  Se  Se169  1  0.25151184  0.08276767  0.45089242  1
  Se  Se170  1  0.24880386  0.08450609  0.94927444  1
  Se  Se171  1  0.25080042  0.41177832  0.43940193  1
  Se  Se172  1  0.24396470  0.41792827  0.94551658  1
  Se  Se173  1  0.25640901  0.74027471  0.43446834  1
  Se  Se174  1  0.26174640  0.74226875  0.93805249  1
  Se  Se175  1  0.58134720  0.09435795  0.45084383  1
  Se  Se176  1  0.58844551  0.08450564  0.93907973  1
  Se  Se177  1  0.59471057  0.40636841  0.44388849  1
  Se  Se178  1  0.58067923  0.41738770  0.95139951  1
  Se  Se179  1  0.57662338  0.75032320  0.44098911  1
  Se  Se180  1  0.58419388  0.75517460  0.94489458  1
  Se  Se181  1  0.91683690  0.08251686  0.43596971  1
  Se  Se182  1  0.91408437  0.08130622  0.94762565  1
  Se  Se183  1  0.93172323  0.40210804  0.44465853  1
  Se  Se184  1  0.91955556  0.40340516  0.93963285  1
  Se  Se185  1  0.91953982  0.74450986  0.44570981  1
  Se  Se186  1  0.92792137  0.73798585  0.94318544  1
  Se  Se187  1  0.25362751  0.24787999  0.30441714  1
  Se  Se188  1  0.25272400  0.25293335  0.80496999  1
  Se  Se189  1  0.25290988  0.59230461  0.29055524  1
  Se  Se190  1  0.24655861  0.57660984  0.80607253  1
  Se  Se191  1  0.23972837  0.91449956  0.31645709  1
  Se  Se192  1  0.25563174  0.92236594  0.79777434  1
  Se  Se193  1  0.58725743  0.25575327  0.30398764  1
  Se  Se194  1  0.57664722  0.24854485  0.80467771  1
  Se  Se195  1  0.58397548  0.58980457  0.30039752  1
  Se  Se196  1  0.58464335  0.58282357  0.80669973  1
  Se  Se197  1  0.57633621  0.92151418  0.30513451  1
  Se  Se198  1  0.58196779  0.91908814  0.80369350  1
  Se  Se199  1  0.91931247  0.25330486  0.30102516  1
  Se  Se200  1  0.92219295  0.24615410  0.79880024  1
  Se  Se201  1  0.90941414  0.57375375  0.31473704  1
  Se  Se202  1  0.91030123  0.57300923  0.81947795  1
  Se  Se203  1  0.90924926  0.92081885  0.29903742  1
  Se  Se204  1  0.91011174  0.91389894  0.80450453  1
  Se  Se205  1  0.08035321  0.08706771  0.30068639  1
  Se  Se206  1  0.08851861  0.09050770  0.81125859  1
  Se  Se207  1  0.09007754  0.41248955  0.30079167  1
  Se  Se208  1  0.08012171  0.41087779  0.80381178  1
  Se  Se209  1  0.08014259  0.75442491  0.31301579  1
  Se  Se210  1  0.09460070  0.76014595  0.80872400  1
  Se  Se211  1  0.42497616  0.09169412  0.31756622  1
  Se  Se212  1  0.41218633  0.07818945  0.80559599  1
  Se  Se213  1  0.42449384  0.41940508  0.30391763  1
  Se  Se214  1  0.41587107  0.41699988  0.80420724  1
  Se  Se215  1  0.41263124  0.75090463  0.29836822  1
  Se  Se216  1  0.42049596  0.75337536  0.81099076  1
  Se  Se217  1  0.74534451  0.08646440  0.30041635  1
  Se  Se218  1  0.74916802  0.08459261  0.79459135  1
  Se  Se219  1  0.74576707  0.41451018  0.30347155  1
  Se  Se220  1  0.74735357  0.41524167  0.80457015  1
  Se  Se221  1  0.74322351  0.75236468  0.29807381  1
  Se  Se222  1  0.75465096  0.75386642  0.79725728  1
  Se  Se223  1  0.24698092  0.08930654  0.19191647  1
  Se  Se224  1  0.24728413  0.08522088  0.69621832  1
  Se  Se225  1  0.26503707  0.40160008  0.19162843  1
  Se  Se226  1  0.25451342  0.41009678  0.69839066  1
  Se  Se227  1  0.22468436  0.77972278  0.19706743  1
  Se  Se228  1  0.24555760  0.75666843  0.68677063  1
  Se  Se229  1  0.58359805  0.08237573  0.20040029  1
  Se  Se230  1  0.58069589  0.08135896  0.69690821  1
  Se  Se231  1  0.58234989  0.41871410  0.19788641  1
  Se  Se232  1  0.58226205  0.41562649  0.69886909  1
  Se  Se233  1  0.58223585  0.75066850  0.19235819  1
  Se  Se234  1  0.58033587  0.74370060  0.70126621  1
  Se  Se235  1  0.91727162  0.08559953  0.19342433  1
  Se  Se236  1  0.90939510  0.09866958  0.68413110  1
  Se  Se237  1  0.91362462  0.41363509  0.20027761  1
  Se  Se238  1  0.91935083  0.42105772  0.69966973  1
  Se  Se239  1  0.90646940  0.76007163  0.18669248  1
  Se  Se240  1  0.91398597  0.75584873  0.69569860  1
  Se  Se241  1  0.08329950  0.25324195  0.19162682  1
  Se  Se242  1  0.08232639  0.25151669  0.69511565  1
  Se  Se243  1  0.08652746  0.57622864  0.19281867  1
  Se  Se244  1  0.09241123  0.57953973  0.69163210  1
  Se  Se245  1  0.07859828  0.92599273  0.20926652  1
  Se  Se246  1  0.08983588  0.91728842  0.68487063  1
  Se  Se247  1  0.41732406  0.25348918  0.20305933  1
  Se  Se248  1  0.41337892  0.24930593  0.69987873  1
  Se  Se249  1  0.41426129  0.58645848  0.19121504  1
  Se  Se250  1  0.42466965  0.57166587  0.68260621  1
  Se  Se251  1  0.41984218  0.91712269  0.19065837  1
  Se  Se252  1  0.41535895  0.91626044  0.69413336  1
  Se  Se253  1  0.74892282  0.24964498  0.19747546  1
  Se  Se254  1  0.73395974  0.25803661  0.70060725  1
  Se  Se255  1  0.74515525  0.58632184  0.20172815  1
  Se  Se256  1  0.74731671  0.58345583  0.70134948  1
  Se  Se257  1  0.74266930  0.92438225  0.19111457  1
  Se  Se258  1  0.75923321  0.90874727  0.69643541  1
