# generated using pymatgen
data_In86Cu29Se144
_symmetry_space_group_name_H-M   'P 1'
_cell_length_a   17.57487481
_cell_length_b   17.57122992
_cell_length_c   23.42576533
_cell_angle_alpha   90.02930861
_cell_angle_beta   89.96914055
_cell_angle_gamma   89.98769014
_symmetry_Int_Tables_number   1
_chemical_formula_structural   In86Cu29Se144
_chemical_formula_sum   'In86 Cu29 Se144'
_cell_volume   7234.15917122
_cell_formula_units_Z   1
loop_
 _symmetry_equiv_pos_site_id
 _symmetry_equiv_pos_as_xyz
  1  'x, y, z'
loop_
 _atom_site_type_symbol
 _atom_site_label
 _atom_site_symmetry_multiplicity
 _atom_site_fract_x
 _atom_site_fract_y
 _atom_site_fract_z
 _atom_site_occupancy
  In  In0  1  -0.00979495  0.17829731  0.12371319  1
  In  In1  1  0.00688571  0.18340985  0.61238480  1
  In  In2  1  0.01040581  0.50113520  0.11832197  1
  In  In3  1  -0.00133263  0.50304163  0.61148142  1
  In  In4  1  0.00581109  0.79886812  0.13292043  1
  In  In5  1  0.00351389  0.81581061  0.62127937  1
  In  In6  1  0.33895134  0.15829398  0.13402533  1
  In  In7  1  0.32898170  0.17978886  0.61999659  1
  In  In8  1  0.31516807  0.51100648  0.14300695  1
  In  In9  1  0.33592708  0.50724808  0.61642314  1
  In  In10  1  0.32862041  0.84221450  0.13342305  1
  In  In11  1  0.31585754  0.81891689  0.61266266  1
  In  In12  1  0.68022152  0.18299296  0.11864633  1
  In  In13  1  0.67590103  0.16635101  0.62955440  1
  In  In14  1  0.66539720  0.48365618  0.12554612  1
  In  In15  1  0.66078023  0.48966505  0.62276733  1
  In  In16  1  0.66964887  0.83398838  0.12583313  1
  In  In17  1  0.66547913  0.84774951  0.62309988  1
  In  In18  1  0.17119615  -0.00931821  0.38100101  1
  In  In19  1  0.15455097  -0.00288143  0.87911999  1
  In  In20  1  0.16591672  0.33323029  0.37955463  1
  In  In21  1  0.16885628  0.35756583  0.87564717  1
  In  In22  1  0.16869315  0.66280308  0.37487362  1
  In  In23  1  0.16486537  0.66175278  0.87091895  1
  In  In24  1  0.48575746  -0.00810519  0.36811077  1
  In  In25  1  0.51305261  0.00285067  0.87380881  1
  In  In26  1  0.50558347  0.34431351  0.36892056  1
  In  In27  1  0.49430466  0.32008103  0.87874025  1
  In  In28  1  0.48541897  0.67714354  0.38195267  1
  In  In29  1  0.49308220  0.67920951  0.87268103  1
  In  In30  1  0.84390568  0.00781289  0.37572572  1
  In  In31  1  0.83132938  0.01651071  0.87513482  1
  In  In32  1  0.83310832  0.33963898  0.38043761  1
  In  In33  1  0.83511253  0.33428740  0.87003127  1
  In  In34  1  0.83355719  0.65326263  0.37715944  1
  In  In35  1  0.83926476  0.64856964  0.87527000  1
  In  In36  1  -0.00647026  0.18333353  0.39242332  1
  In  In37  1  -0.01450281  0.16682298  0.87515003  1
  In  In38  1  0.00056179  0.50169883  0.38787472  1
  In  In39  1  0.00122619  0.49887158  0.86870871  1
  In  In40  1  0.01199045  0.82888401  0.37749864  1
  In  In41  1  0.01653956  0.83203664  0.87658079  1
  In  In42  1  0.32565861  0.15799839  0.36684821  1
  In  In43  1  0.34137349  0.18998836  0.88435696  1
  In  In44  1  0.33134285  0.50509142  0.37297083  1
  In  In45  1  0.30947407  0.49769707  0.87677969  1
  In  In46  1  0.33368086  0.82751715  0.36989500  1
  In  In47  1  0.33214490  0.81621827  0.87245653  1
  In  In48  1  0.66981825  0.18127439  0.37137762  1
  In  In49  1  0.66948551  0.17160791  0.87273079  1
  In  In50  1  0.67373901  0.49148403  0.38237789  1
  In  In51  1  0.68793917  0.50002930  0.87474513  1
  In  In52  1  0.66165129  0.81857164  0.38028337  1
  In  In53  1  0.65450244  0.84272194  0.86999273  1
  In  In54  1  0.18280330  -0.00222647  0.12655328  1
  In  In55  1  0.16283915  -0.00104268  0.61664446  1
  In  In56  1  0.16571339  0.34657115  0.13027511  1
  In  In57  1  0.15445375  0.33438275  0.60801586  1
  In  In58  1  0.16476290  0.66340488  0.12393645  1
  In  In59  1  0.16384677  0.66511155  0.61646717  1
  In  In60  1  0.48533782  0.00241548  0.13016835  1
  In  In61  1  0.51175041  0.00282984  0.62328964  1
  In  In62  1  0.50736502  0.32757575  0.13494762  1
  In  In63  1  0.49868317  0.34794952  0.62653212  1
  In  In64  1  0.49192136  0.65925387  0.13114805  1
  In  In65  1  0.48644456  0.65701400  0.61790072  1
  In  In66  1  0.82698860  0.00535609  0.12517047  1
  In  In67  1  0.81735969  0.00362418  0.62592510  1
  In  In68  1  0.82471791  0.32502520  0.11860342  1
  In  In69  1  0.83557150  0.33375101  0.62128669  1
  In  In70  1  0.87290775  0.65364650  0.13492258  1
  In  In71  1  0.85290989  0.66165597  0.62402288  1
  In  In72  1  0.83174315  0.83212640  0.50402927  1
  In  In73  1  0.33737808  -0.00293193  0.75001514  1
  In  In74  1  -0.00829818  -0.00132621  0.75048557  1
  In  In75  1  0.49521553  0.83862442  0.00372242  1
  In  In76  1  0.66604228  0.65970732  0.25297531  1
  In  In77  1  0.66747875  0.66795421  0.75079001  1
  In  In78  1  0.16639362  0.16820592  0.00443937  1
  In  In79  1  0.00672155  -0.00114787  0.25603268  1
  In  In80  1  0.33158676  0.34098180  0.75204175  1
  In  In81  1  0.49246802  0.49137997  0.00602638  1
  In  In82  1  0.49735228  0.16522713  0.49553112  1
  In  In83  1  0.66506415  0.00079247  0.25202211  1
  In  In84  1  0.00175877  0.34060646  0.25989518  1
  In  In85  1  0.83572790  0.83260420  0.00698176  1
  Cu  Cu86  1  0.50065088  0.50334349  0.74658972  1
  Cu  Cu87  1  -0.00094218  -0.00680824  0.00186416  1
  Cu  Cu88  1  0.49544465  0.49915239  0.25310746  1
  Cu  Cu89  1  0.66805872  0.01447817  -0.00169717  1
  Cu  Cu90  1  -0.00222875  0.33804287  -0.00360432  1
  Cu  Cu91  1  0.83693938  0.49267928  0.25394975  1
  Cu  Cu92  1  0.16199072  0.17490024  0.74135659  1
  Cu  Cu93  1  0.33103314  0.66696701  0.49270621  1
  Cu  Cu94  1  0.50146352  0.16877596  0.25203264  1
  Cu  Cu95  1  0.67458844  0.66524260  0.00187385  1
  Cu  Cu96  1  0.67013260  0.33269674  -0.00315854  1
  Cu  Cu97  1  0.16089733  0.50410063  0.74213608  1
  Cu  Cu98  1  0.49472245  0.83276386  0.74665341  1
  Cu  Cu99  1  0.16717896  0.82029691  0.74658312  1
  Cu  Cu100  1  0.66025843  0.00077946  0.49958294  1
  Cu  Cu101  1  0.16983784  0.82893892  0.25457188  1
  Cu  Cu102  1  0.83201966  0.17327169  0.74830216  1
  Cu  Cu103  1  -0.00048998  0.00532336  0.50019571  1
  Cu  Cu104  1  0.16764539  0.16569656  0.25650057  1
  Cu  Cu105  1  0.32280136  0.66096403  0.00004726  1
  Cu  Cu106  1  0.66805788  0.33304174  0.50007765  1
  Cu  Cu107  1  0.00900819  0.65769879  -0.00193626  1
  Cu  Cu108  1  0.66234545  0.65853366  0.50239176  1
  Cu  Cu109  1  0.33137423  0.33723861  0.49603890  1
  Cu  Cu110  1  0.32970780  -0.00360889  0.49128542  1
  Cu  Cu111  1  0.83367109  0.83168170  0.74384584  1
  Cu  Cu112  1  0.51007715  0.16711761  0.75233794  1
  Cu  Cu113  1  0.84206069  0.49510675  0.74542091  1
  Cu  Cu114  1  0.33229805  0.00021730  0.00457886  1
  Se  Se115  1  0.07669903  0.07582965  0.06498752  1
  Se  Se116  1  0.08659844  0.08853320  0.55062437  1
  Se  Se117  1  0.08768047  0.41277115  0.04996723  1
  Se  Se118  1  0.08586841  0.42661093  0.54096566  1
  Se  Se119  1  0.08661875  0.74765822  0.04996489  1
  Se  Se120  1  0.09293228  0.75873902  0.54760609  1
  Se  Se121  1  0.41590743  0.08452208  0.05462271  1
  Se  Se122  1  0.40624094  0.07536569  0.55771580  1
  Se  Se123  1  0.40934693  0.41852605  0.07869633  1
  Se  Se124  1  0.41695977  0.41620748  0.55117041  1
  Se  Se125  1  0.40775802  0.74114265  0.05791798  1
  Se  Se126  1  0.41527817  0.74905284  0.54906884  1
  Se  Se127  1  0.75706916  0.08997118  0.05184012  1
  Se  Se128  1  0.74343025  0.08456272  0.55137788  1
  Se  Se129  1  0.75158626  0.41812424  0.05030683  1
  Se  Se130  1  0.75051332  0.41844079  0.55292162  1
  Se  Se131  1  0.75373563  0.73607324  0.06777266  1
  Se  Se132  1  0.74129611  0.74030757  0.56494973  1
  Se  Se133  1  0.25331166  0.25156628  0.06857328  1
  Se  Se134  1  0.24852593  0.25075972  0.54675190  1
  Se  Se135  1  0.24695927  0.57552449  0.05644604  1
  Se  Se136  1  0.24918424  0.58294559  0.54749841  1
  Se  Se137  1  0.25167265  0.91103598  0.05265527  1
  Se  Se138  1  0.24578342  0.91701612  0.54892008  1
  Se  Se139  1  0.58419204  0.25663438  0.05462062  1
  Se  Se140  1  0.58387648  0.25353019  0.56013308  1
  Se  Se141  1  0.58797801  0.58790065  0.06028803  1
  Se  Se142  1  0.57842777  0.57547820  0.55587203  1
  Se  Se143  1  0.59198229  0.92982373  0.05886069  1
  Se  Se144  1  0.57742420  0.91437840  0.54873751  1
  Se  Se145  1  0.91479581  0.25144011  0.04719718  1
  Se  Se146  1  0.89851330  0.23683111  0.55161041  1
  Se  Se147  1  0.91961205  0.57689582  0.04821876  1
  Se  Se148  1  0.91388298  0.58684310  0.54356316  1
  Se  Se149  1  0.92789144  0.91542853  0.07013102  1
  Se  Se150  1  0.92175502  0.92509267  0.56468819  1
  Se  Se151  1  0.08546538  0.25898931  0.45451116  1
  Se  Se152  1  0.08030375  0.25466207  0.93726273  1
  Se  Se153  1  0.08441225  0.59132254  0.44902158  1
  Se  Se154  1  0.08837110  0.57426259  0.94076103  1
  Se  Se155  1  0.08033576  0.91724431  0.44987062  1
  Se  Se156  1  0.08756561  0.91178288  0.95365232  1
  Se  Se157  1  0.41062666  0.25513333  0.43467814  1
  Se  Se158  1  0.42010937  0.25766344  0.96064442  1
  Se  Se159  1  0.41842729  0.57850112  0.44727907  1
  Se  Se160  1  0.41144031  0.58787943  0.94053185  1
  Se  Se161  1  0.41537608  0.91150832  0.44329913  1
  Se  Se162  1  0.40792911  0.92395516  0.93528735  1
  Se  Se163  1  0.75070203  0.24939700  0.44745545  1
  Se  Se164  1  0.75471536  0.25118974  0.94168931  1
  Se  Se165  1  0.75114864  0.57988323  0.45080170  1
  Se  Se166  1  0.75755257  0.57995546  0.95177557  1
  Se  Se167  1  0.74430490  0.92253184  0.43940012  1
  Se  Se168  1  0.74368249  0.92155162  0.94283106  1
  Se  Se169  1  0.24788529  0.08684037  0.44488649  1
  Se  Se170  1  0.25655707  0.07973704  0.93866275  1
  Se  Se171  1  0.24988424  0.42230633  0.44367531  1
  Se  Se172  1  0.27020087  0.39573570  0.94928038  1
  Se  Se173  1  0.24823994  0.75463226  0.44275413  1
  Se  Se174  1  0.24496047  0.74657916  0.94346819  1
  Se  Se175  1  0.58588774  0.07715750  0.43221505  1
  Se  Se176  1  0.58207409  0.09225816  0.94376307  1
  Se  Se177  1  0.58104135  0.41443743  0.44864890  1
  Se  Se178  1  0.58995552  0.41631031  0.93848476  1
  Se  Se179  1  0.57982583  0.74622955  0.45319078  1
  Se  Se180  1  0.59219868  0.74543144  0.94564803  1
  Se  Se181  1  0.91101785  0.08760587  0.45253300  1
  Se  Se182  1  0.91880766  0.08007434  0.95029938  1
  Se  Se183  1  0.93302012  0.39761828  0.44742544  1
  Se  Se184  1  0.91634150  0.41917462  0.93893145  1
  Se  Se185  1  0.91938214  0.74465072  0.44296992  1
  Se  Se186  1  0.92410862  0.74318837  0.94214016  1
  Se  Se187  1  0.24808156  0.25503926  0.30621066  1
  Se  Se188  1  0.24163796  0.24572845  0.80956159  1
  Se  Se189  1  0.26734598  0.60263013  0.30493667  1
  Se  Se190  1  0.24835346  0.58119434  0.79889955  1
  Se  Se191  1  0.24994807  0.91856028  0.30450284  1
  Se  Se192  1  0.23890393  0.90983321  0.80741972  1
  Se  Se193  1  0.58463111  0.25505151  0.30130040  1
  Se  Se194  1  0.58506379  0.25701470  0.80543138  1
  Se  Se195  1  0.57711309  0.57591510  0.31693256  1
  Se  Se196  1  0.57878174  0.57839843  0.81394431  1
  Se  Se197  1  0.57981418  0.90332753  0.30773033  1
  Se  Se198  1  0.57825445  0.91996603  0.79564096  1
  Se  Se199  1  0.91084461  0.24267197  0.30944620  1
  Se  Se200  1  0.92072454  0.25226181  0.80010815  1
  Se  Se201  1  0.91888171  0.57378949  0.30919212  1
  Se  Se202  1  0.92086834  0.58413259  0.79787050  1
  Se  Se203  1  0.91257577  0.90709927  0.31140910  1
  Se  Se204  1  0.90713897  0.90746516  0.81521932  1
  Se  Se205  1  0.08462468  0.09408766  0.32033310  1
  Se  Se206  1  0.08842015  0.09187723  0.80518339  1
  Se  Se207  1  0.09454362  0.43333830  0.31086999  1
  Se  Se208  1  0.08429600  0.41597276  0.79756712  1
  Se  Se209  1  0.08354544  0.74603954  0.30388727  1
  Se  Se210  1  0.07930600  0.74442559  0.80181264  1
  Se  Se211  1  0.41579115  0.08171572  0.29867271  1
  Se  Se212  1  0.41934503  0.09607016  0.81116317  1
  Se  Se213  1  0.40976740  0.41481095  0.30357151  1
  Se  Se214  1  0.42270215  0.42766455  0.81439175  1
  Se  Se215  1  0.42127962  0.75035354  0.30100502  1
  Se  Se216  1  0.41170801  0.74605656  0.79535577  1
  Se  Se217  1  0.75889186  0.09186558  0.30640955  1
  Se  Se218  1  0.74920360  0.08644346  0.80073152  1
  Se  Se219  1  0.74968676  0.41352929  0.30627929  1
  Se  Se220  1  0.75321074  0.41697106  0.79839609  1
  Se  Se221  1  0.75771157  0.75216869  0.31035572  1
  Se  Se222  1  0.75709554  0.75681293  0.81365356  1
  Se  Se223  1  0.24974134  0.08033284  0.20275738  1
  Se  Se224  1  0.24581128  0.08982260  0.69010062  1
  Se  Se225  1  0.24110090  0.41644520  0.20751730  1
  Se  Se226  1  0.24373841  0.42058238  0.68414007  1
  Se  Se227  1  0.24772481  0.74792755  0.19332448  1
  Se  Se228  1  0.25011992  0.74037882  0.69173696  1
  Se  Se229  1  0.58249707  0.09260176  0.18746591  1
  Se  Se230  1  0.58762479  0.08311536  0.69576157  1
  Se  Se231  1  0.58505907  0.41765633  0.20319069  1
  Se  Se232  1  0.58485198  0.41529218  0.70111768  1
  Se  Se233  1  0.57902319  0.75406594  0.19202203  1
  Se  Se234  1  0.57755867  0.75257136  0.68657997  1
  Se  Se235  1  0.91426566  0.08827832  0.19536644  1
  Se  Se236  1  0.91207920  0.09210762  0.68692459  1
  Se  Se237  1  0.91455128  0.41745970  0.18691709  1
  Se  Se238  1  0.92344818  0.41777532  0.68596645  1
  Se  Se239  1  0.90835988  0.75569904  0.20779803  1
  Se  Se240  1  0.92125002  0.74790425  0.69843184  1
  Se  Se241  1  0.08675135  0.24289113  0.19558424  1
  Se  Se242  1  0.08300805  0.25948563  0.68871563  1
  Se  Se243  1  0.06390443  0.59842578  0.18986020  1
  Se  Se244  1  0.07882624  0.58439169  0.68556266  1
  Se  Se245  1  0.09048178  0.90876056  0.19033682  1
  Se  Se246  1  0.08834442  0.91142144  0.69277263  1
  Se  Se247  1  0.41443958  0.25077790  0.20042652  1
  Se  Se248  1  0.42392923  0.24480128  0.69414993  1
  Se  Se249  1  0.41232036  0.58767968  0.20567885  1
  Se  Se250  1  0.41241201  0.58111581  0.69544514  1
  Se  Se251  1  0.42577908  0.90814339  0.19947482  1
  Se  Se252  1  0.41660897  0.90956177  0.68162273  1
  Se  Se253  1  0.75342077  0.25256800  0.19789298  1
  Se  Se254  1  0.74917911  0.25884829  0.69577312  1
  Se  Se255  1  0.75886063  0.57354138  0.18991577  1
  Se  Se256  1  0.75584936  0.57837274  0.68957532  1
  Se  Se257  1  0.76069114  0.90809206  0.19616084  1
  Se  Se258  1  0.74673598  0.91779832  0.69990709  1
