# generated using pymatgen
data_In86Cu29Se144
_symmetry_space_group_name_H-M   'P 1'
_cell_length_a   17.58402739
_cell_length_b   17.58307440
_cell_length_c   23.44997266
_cell_angle_alpha   90.00403722
_cell_angle_beta   89.98621106
_cell_angle_gamma   90.00070783
_symmetry_Int_Tables_number   1
_chemical_formula_structural   In86Cu29Se144
_chemical_formula_sum   'In86 Cu29 Se144'
_cell_volume   7250.29191007
_cell_formula_units_Z   1
loop_
 _symmetry_equiv_pos_site_id
 _symmetry_equiv_pos_as_xyz
  1  'x, y, z'
loop_
 _atom_site_type_symbol
 _atom_site_label
 _atom_site_symmetry_multiplicity
 _atom_site_fract_x
 _atom_site_fract_y
 _atom_site_fract_z
 _atom_site_occupancy
  In  In0  1  0.00763052  0.17553300  0.12047120  1
  In  In1  1  -0.00375983  0.17254812  0.62215219  1
  In  In2  1  -0.00529348  0.51184839  0.13019446  1
  In  In3  1  0.01485986  0.51269736  0.61673845  1
  In  In4  1  -0.00377473  0.82856193  0.12084683  1
  In  In5  1  -0.01484316  0.83186408  0.62509386  1
  In  In6  1  0.32587516  0.17540542  0.13120878  1
  In  In7  1  0.34833063  0.15435062  0.62905944  1
  In  In8  1  0.33161206  0.50795762  0.14032017  1
  In  In9  1  0.31448054  0.49204400  0.61571456  1
  In  In10  1  0.33251461  0.83573182  0.12480912  1
  In  In11  1  0.34390573  0.84125364  0.62577100  1
  In  In12  1  0.66902266  0.16513581  0.12967281  1
  In  In13  1  0.66000214  0.17453882  0.63251112  1
  In  In14  1  0.66784265  0.48794730  0.12678463  1
  In  In15  1  0.66256856  0.48698951  0.61924142  1
  In  In16  1  0.67632457  0.84268440  0.11931078  1
  In  In17  1  0.67973461  0.83376062  0.62676844  1
  In  In18  1  0.18409246  -0.00110295  0.36668313  1
  In  In19  1  0.16809678  -0.00338738  0.88150489  1
  In  In20  1  0.17126051  0.34345748  0.37545002  1
  In  In21  1  0.16028192  0.32283573  0.87487538  1
  In  In22  1  0.15391881  0.65847240  0.36145199  1
  In  In23  1  0.16902912  0.68098974  0.87294477  1
  In  In24  1  0.50036122  0.00245361  0.37123908  1
  In  In25  1  0.49247288  -0.00462371  0.87317929  1
  In  In26  1  0.48259923  0.31765554  0.36709603  1
  In  In27  1  0.49851441  0.33058778  0.86722734  1
  In  In28  1  0.49949802  0.67569233  0.37449678  1
  In  In29  1  0.50970278  0.66706216  0.87866012  1
  In  In30  1  0.81671556  0.00348933  0.37237092  1
  In  In31  1  0.82738964  0.00872939  0.88272869  1
  In  In32  1  0.84119391  0.34504257  0.36622572  1
  In  In33  1  0.83062255  0.33847401  0.88051527  1
  In  In34  1  0.84348853  0.64896501  0.38431314  1
  In  In35  1  0.83974794  0.65748001  0.88374061  1
  In  In36  1  -0.00862864  0.17726285  0.37065457  1
  In  In37  1  0.00200397  0.16324894  0.88673343  1
  In  In38  1  -0.00255909  0.49854459  0.37451268  1
  In  In39  1  -0.01213918  0.49419425  0.87123660  1
  In  In40  1  0.00499736  0.81484569  0.36696679  1
  In  In41  1  0.00880926  0.82334102  0.88094650  1
  In  In42  1  0.34277553  0.17519674  0.37570267  1
  In  In43  1  0.32807742  0.16254910  0.87291557  1
  In  In44  1  0.31747470  0.47782161  0.36827526  1
  In  In45  1  0.34177083  0.49934202  0.86985589  1
  In  In46  1  0.33250331  0.83833466  0.35775604  1
  In  In47  1  0.32241036  0.84314924  0.88417784  1
  In  In48  1  0.65326809  0.15633388  0.36887324  1
  In  In49  1  0.67518096  0.17286707  0.87069347  1
  In  In50  1  0.68540317  0.49877916  0.37671339  1
  In  In51  1  0.67843630  0.50010590  0.87409393  1
  In  In52  1  0.66489670  0.83955472  0.37447824  1
  In  In53  1  0.65879458  0.84057376  0.88490467  1
  In  In54  1  0.17480500  0.00845883  0.12122169  1
  In  In55  1  0.17754015  0.01134595  0.62336137  1
  In  In56  1  0.17446279  0.32672233  0.13133244  1
  In  In57  1  0.17386419  0.35345321  0.61928914  1
  In  In58  1  0.16107021  0.68038087  0.13925762  1
  In  In59  1  0.16047472  0.64737909  0.62559525  1
  In  In60  1  0.50758018  -0.00816418  0.13020770  1
  In  In61  1  0.48937020  0.01352240  0.63506293  1
  In  In62  1  0.49767639  0.34307412  0.14157787  1
  In  In63  1  0.50659086  0.31992018  0.62528622  1
  In  In64  1  0.47519586  0.67142355  0.13379132  1
  In  In65  1  0.50060536  0.66733633  0.62215752  1
  In  In66  1  0.82478743  -0.00319709  0.12107481  1
  In  In67  1  0.83296523  -0.01788802  0.62583932  1
  In  In68  1  0.83339410  0.33638940  0.12427415  1
  In  In69  1  0.82308888  0.33018402  0.62191330  1
  In  In70  1  0.84463790  0.67550287  0.11936281  1
  In  In71  1  0.84052890  0.67799935  0.61873244  1
  In  In72  1  0.50029785  0.16521213  0.00701183  1
  In  In73  1  0.17013475  0.17546238  0.49090691  1
  In  In74  1  0.00278126  -0.00622189  0.75694297  1
  In  In75  1  0.66805098  0.66429569  0.74852537  1
  In  In76  1  0.16530321  0.83267129  0.49327419  1
  In  In77  1  0.50194241  0.49549231  0.49660180  1
  In  In78  1  0.00185063  0.33628067  0.74763329  1
  In  In79  1  0.50529826  0.83437491  0.49361774  1
  In  In80  1  0.50411500  0.50514412  0.01055265  1
  In  In81  1  0.16400103  0.50134595  0.00251481  1
  In  In82  1  0.66839270  0.66877389  0.25302034  1
  In  In83  1  0.33150843  0.66784422  0.74677056  1
  In  In84  1  -0.00151049  -0.00067053  0.23840839  1
  In  In85  1  0.82786776  0.16995298  0.50163976  1
  Cu  Cu86  1  -0.00004775  0.66551963  0.00276542  1
  Cu  Cu87  1  0.33059476  0.67697237  0.00518745  1
  Cu  Cu88  1  0.49576084  0.16256585  0.24902441  1
  Cu  Cu89  1  -0.00312777  -0.00226997  0.00459499  1
  Cu  Cu90  1  0.32778083  0.33090716  0.00579169  1
  Cu  Cu91  1  0.50512276  0.16568387  0.75234610  1
  Cu  Cu92  1  0.83180828  0.49685803  0.75038670  1
  Cu  Cu93  1  0.83374374  0.16294152  0.75236316  1
  Cu  Cu94  1  0.66723942  0.00297708  0.00277295  1
  Cu  Cu95  1  0.83114577  0.82771584  0.75188182  1
  Cu  Cu96  1  -0.00020634  0.66327727  0.49456739  1
  Cu  Cu97  1  0.66218190  -0.00137446  0.49881289  1
  Cu  Cu98  1  0.49749359  0.84179869  0.75762045  1
  Cu  Cu99  1  0.83913695  0.50291816  0.24999999  1
  Cu  Cu100  1  0.32548440  0.66144877  0.49174028  1
  Cu  Cu101  1  0.82583460  0.17605123  0.24959917  1
  Cu  Cu102  1  0.17932400  0.17080118  0.74905520  1
  Cu  Cu103  1  0.66542679  0.32729347  0.49710821  1
  Cu  Cu104  1  0.33235484  -0.00253538  -0.00079802  1
  Cu  Cu105  1  0.50129847  0.83848683  0.24937645  1
  Cu  Cu106  1  0.16361087  0.49694757  0.25165689  1
  Cu  Cu107  1  0.16758911  0.83679691  0.75365435  1
  Cu  Cu108  1  0.83432145  0.83342700  0.24546966  1
  Cu  Cu109  1  0.66935216  0.67126572  0.00323396  1
  Cu  Cu110  1  0.66942744  0.33343326  0.00038517  1
  Cu  Cu111  1  0.16522086  0.16795143  0.25037709  1
  Cu  Cu112  1  -0.00314541  0.33294552  0.00147222  1
  Cu  Cu113  1  0.49757066  0.48713933  0.74181715  1
  Cu  Cu114  1  -0.00133106  -0.00614225  0.49849568  1
  Se  Se115  1  0.08260637  0.08314972  0.05427078  1
  Se  Se116  1  0.07631576  0.07863099  0.55450217  1
  Se  Se117  1  0.07765384  0.41097740  0.06401833  1
  Se  Se118  1  0.07997674  0.41486094  0.55055309  1
  Se  Se119  1  0.08629145  0.74535190  0.05641601  1
  Se  Se120  1  0.07754729  0.74559727  0.55816375  1
  Se  Se121  1  0.40825306  0.07613312  0.06438340  1
  Se  Se122  1  0.41859054  0.07574910  0.55223041  1
  Se  Se123  1  0.40722462  0.41334214  0.06319093  1
  Se  Se124  1  0.41550025  0.40758055  0.55951505  1
  Se  Se125  1  0.42126862  0.75640846  0.05375752  1
  Se  Se126  1  0.40609879  0.74129492  0.55191688  1
  Se  Se127  1  0.74816825  0.08950347  0.05462544  1
  Se  Se128  1  0.74408205  0.07517900  0.56262051  1
  Se  Se129  1  0.75196059  0.41945339  0.05198418  1
  Se  Se130  1  0.74840450  0.41216591  0.54814245  1
  Se  Se131  1  0.75623294  0.75508090  0.05275216  1
  Se  Se132  1  0.74722886  0.75133072  0.55374847  1
  Se  Se133  1  0.24415131  0.24490924  0.05415531  1
  Se  Se134  1  0.25469602  0.24611620  0.56596314  1
  Se  Se135  1  0.25471089  0.58863495  0.06281887  1
  Se  Se136  1  0.24193122  0.58239661  0.54688917  1
  Se  Se137  1  0.24844765  0.91526592  0.05381989  1
  Se  Se138  1  0.25717269  0.92141893  0.55387385  1
  Se  Se139  1  0.58361355  0.26459324  0.06316988  1
  Se  Se140  1  0.58598428  0.24194303  0.55107494  1
  Se  Se141  1  0.59072733  0.59785540  0.06932836  1
  Se  Se142  1  0.59146414  0.59099537  0.55536386  1
  Se  Se143  1  0.58268694  0.91760306  0.05261897  1
  Se  Se144  1  0.58477901  0.92071578  0.56404706  1
  Se  Se145  1  0.91336331  0.24969907  0.05481511  1
  Se  Se146  1  0.92497325  0.26339643  0.55185365  1
  Se  Se147  1  0.91529578  0.57961120  0.05169368  1
  Se  Se148  1  0.91706234  0.58538866  0.55357990  1
  Se  Se149  1  0.91229089  0.91441185  0.05580142  1
  Se  Se150  1  0.91297570  0.91144496  0.54895119  1
  Se  Se151  1  0.06969454  0.26271690  0.44120275  1
  Se  Se152  1  0.08508968  0.25024689  0.95195129  1
  Se  Se153  1  0.08542313  0.58307113  0.44118295  1
  Se  Se154  1  0.07748918  0.58832086  0.93743469  1
  Se  Se155  1  0.07767791  0.92439940  0.43147002  1
  Se  Se156  1  0.08107161  0.91677030  0.94802163  1
  Se  Se157  1  0.41874905  0.25008954  0.45124915  1
  Se  Se158  1  0.41321655  0.25664351  0.94499596  1
  Se  Se159  1  0.41156631  0.58453897  0.43595017  1
  Se  Se160  1  0.40884813  0.59141778  0.94636063  1
  Se  Se161  1  0.40738921  0.91721666  0.43759481  1
  Se  Se162  1  0.41960352  0.91509881  0.94872856  1
  Se  Se163  1  0.74475362  0.25120226  0.43167967  1
  Se  Se164  1  0.75126319  0.24890652  0.94703099  1
  Se  Se165  1  0.75243157  0.57912764  0.45256116  1
  Se  Se166  1  0.74632010  0.58184277  0.94999451  1
  Se  Se167  1  0.74804187  0.91794240  0.44655964  1
  Se  Se168  1  0.75090195  0.91792197  0.94979869  1
  Se  Se169  1  0.26011529  0.07563072  0.44306234  1
  Se  Se170  1  0.25075351  0.08447332  0.94711013  1
  Se  Se171  1  0.25323107  0.41067188  0.45211437  1
  Se  Se172  1  0.25648417  0.41374943  0.94146677  1
  Se  Se173  1  0.25360072  0.74616500  0.43036706  1
  Se  Se174  1  0.24327481  0.75386205  0.95058229  1
  Se  Se175  1  0.57865542  0.08104962  0.44626193  1
  Se  Se176  1  0.58761750  0.08203299  0.94050854  1
  Se  Se177  1  0.58827237  0.40658968  0.43388955  1
  Se  Se178  1  0.58495526  0.41329722  0.94176201  1
  Se  Se179  1  0.59924312  0.73821353  0.44464946  1
  Se  Se180  1  0.58053170  0.75017939  0.95151763  1
  Se  Se181  1  0.91933423  0.07802248  0.44021362  1
  Se  Se182  1  0.91463775  0.08424400  0.95242873  1
  Se  Se183  1  0.90080635  0.43059532  0.44219076  1
  Se  Se184  1  0.91586436  0.41926340  0.94892839  1
  Se  Se185  1  0.91981248  0.75128719  0.44311931  1
  Se  Se186  1  0.91669301  0.74985621  0.94869454  1
  Se  Se187  1  0.24564196  0.24730110  0.31046703  1
  Se  Se188  1  0.25473393  0.25650936  0.80596163  1
  Se  Se189  1  0.25184155  0.57871988  0.30286219  1
  Se  Se190  1  0.24337489  0.57924341  0.80857042  1
  Se  Se191  1  0.23911133  0.90967202  0.29166924  1
  Se  Se192  1  0.24891183  0.92014622  0.80685181  1
  Se  Se193  1  0.57994545  0.24748989  0.30108033  1
  Se  Se194  1  0.58851480  0.25218735  0.80291396  1
  Se  Se195  1  0.58361246  0.57881149  0.31487424  1
  Se  Se196  1  0.57343627  0.56980193  0.80487536  1
  Se  Se197  1  0.58594308  0.91979650  0.30333560  1
  Se  Se198  1  0.58775297  0.91984866  0.80796613  1
  Se  Se199  1  0.91705979  0.25608115  0.29664674  1
  Se  Se200  1  0.91695234  0.24238509  0.81090632  1
  Se  Se201  1  0.92148675  0.58756484  0.30265402  1
  Se  Se202  1  0.91142370  0.58332294  0.80358772  1
  Se  Se203  1  0.91178387  0.91654596  0.30837870  1
  Se  Se204  1  0.90937452  0.90727565  0.81523844  1
  Se  Se205  1  0.08224944  0.08712512  0.30840109  1
  Se  Se206  1  0.09179068  0.09424063  0.80813673  1
  Se  Se207  1  0.08021578  0.41430720  0.30544451  1
  Se  Se208  1  0.09244046  0.42484704  0.80845651  1
  Se  Se209  1  0.09421850  0.75749348  0.29302597  1
  Se  Se210  1  0.08145584  0.75106444  0.80030505  1
  Se  Se211  1  0.41159793  0.08234659  0.30488530  1
  Se  Se212  1  0.41759740  0.08560421  0.80612597  1
  Se  Se213  1  0.41999636  0.41931810  0.30284019  1
  Se  Se214  1  0.41264571  0.41132122  0.79963716  1
  Se  Se215  1  0.42134298  0.74897503  0.29924607  1
  Se  Se216  1  0.41943808  0.75377163  0.81354406  1
  Se  Se217  1  0.74586484  0.08529978  0.29834545  1
  Se  Se218  1  0.75024054  0.07900323  0.80426500  1
  Se  Se219  1  0.75079528  0.41930769  0.29707460  1
  Se  Se220  1  0.75065505  0.41203061  0.80364628  1
  Se  Se221  1  0.76221098  0.75407707  0.31302466  1
  Se  Se222  1  0.75101964  0.75077242  0.81552536  1
  Se  Se223  1  0.24947279  0.08444942  0.19868276  1
  Se  Se224  1  0.25740153  0.07910987  0.69971549  1
  Se  Se225  1  0.25021019  0.41420830  0.20028277  1
  Se  Se226  1  0.25048429  0.42098255  0.69774024  1
  Se  Se227  1  0.28248928  0.72540184  0.18954365  1
  Se  Se228  1  0.24159930  0.75840056  0.68511363  1
  Se  Se229  1  0.58376274  0.08297433  0.19626198  1
  Se  Se230  1  0.58872471  0.08066597  0.70006703  1
  Se  Se231  1  0.58796069  0.42258177  0.20360596  1
  Se  Se232  1  0.58812884  0.40766138  0.69334533  1
  Se  Se233  1  0.58202295  0.75806623  0.18845878  1
  Se  Se234  1  0.57267322  0.75932220  0.69479413  1
  Se  Se235  1  0.90587182  0.09546608  0.18729358  1
  Se  Se236  1  0.91440869  0.08437529  0.69186793  1
  Se  Se237  1  0.91861583  0.41730127  0.19404597  1
  Se  Se238  1  0.91154818  0.42167180  0.68565363  1
  Se  Se239  1  0.92037811  0.74967490  0.19699908  1
  Se  Se240  1  0.91675151  0.74670239  0.69958244  1
  Se  Se241  1  0.08142807  0.25143735  0.19808243  1
  Se  Se242  1  0.09362409  0.24421075  0.68857601  1
  Se  Se243  1  0.08279476  0.58499265  0.20004850  1
  Se  Se244  1  0.07805415  0.58250812  0.70092856  1
  Se  Se245  1  0.09264212  0.91032876  0.18504368  1
  Se  Se246  1  0.09006496  0.91336895  0.68619641  1
  Se  Se247  1  0.41269391  0.25135084  0.20035731  1
  Se  Se248  1  0.42018303  0.24673295  0.69765375  1
  Se  Se249  1  0.44435877  0.55929772  0.19937727  1
  Se  Se250  1  0.41989719  0.57403027  0.68602348  1
  Se  Se251  1  0.41391533  0.91916096  0.19633590  1
  Se  Se252  1  0.41244587  0.92080919  0.70237234  1
  Se  Se253  1  0.74448632  0.25921545  0.19403670  1
  Se  Se254  1  0.75418146  0.24935013  0.69841574  1
  Se  Se255  1  0.75867825  0.58383939  0.18859168  1
  Se  Se256  1  0.75394061  0.57539527  0.68600216  1
  Se  Se257  1  0.74909547  0.91892420  0.19762278  1
  Se  Se258  1  0.74938903  0.91613406  0.70288586  1
