# generated using pymatgen
data_In86Cu29Se144
_symmetry_space_group_name_H-M   'P 1'
_cell_length_a   17.59051473
_cell_length_b   17.58624533
_cell_length_c   23.44869163
_cell_angle_alpha   90.00650569
_cell_angle_beta   89.98418251
_cell_angle_gamma   90.00156010
_symmetry_Int_Tables_number   1
_chemical_formula_structural   In86Cu29Se144
_chemical_formula_sum   'In86 Cu29 Se144'
_cell_volume   7253.87839981
_cell_formula_units_Z   1
loop_
 _symmetry_equiv_pos_site_id
 _symmetry_equiv_pos_as_xyz
  1  'x, y, z'
loop_
 _atom_site_type_symbol
 _atom_site_label
 _atom_site_symmetry_multiplicity
 _atom_site_fract_x
 _atom_site_fract_y
 _atom_site_fract_z
 _atom_site_occupancy
  In  In0  1  -0.01063890  0.17765430  0.12858464  1
  In  In1  1  -0.01140490  0.17664358  0.63404419  1
  In  In2  1  0.00025039  0.47757773  0.11798302  1
  In  In3  1  -0.01574149  0.49550028  0.62965632  1
  In  In4  1  0.00953913  0.84507704  0.12044181  1
  In  In5  1  -0.00086359  0.84203557  0.62698138  1
  In  In6  1  0.34463346  0.16332989  0.13161140  1
  In  In7  1  0.34749719  0.17287463  0.62157949  1
  In  In8  1  0.32379986  0.48611793  0.11801849  1
  In  In9  1  0.34442181  0.48942508  0.63189258  1
  In  In10  1  0.32857740  0.84318715  0.12957560  1
  In  In11  1  0.32657452  0.82785095  0.62688770  1
  In  In12  1  0.67553275  0.17187114  0.12184526  1
  In  In13  1  0.67170067  0.17440411  0.61833054  1
  In  In14  1  0.65119195  0.49552138  0.11919914  1
  In  In15  1  0.65821355  0.49134146  0.62037119  1
  In  In16  1  0.67062021  0.82663993  0.12314527  1
  In  In17  1  0.66685214  0.82742578  0.60941031  1
  In  In18  1  0.17418599  0.00212400  0.35742626  1
  In  In19  1  0.15004438  0.00831182  0.87954511  1
  In  In20  1  0.16145542  0.32384018  0.36385330  1
  In  In21  1  0.17494628  0.33868319  0.87144429  1
  In  In22  1  0.16716276  0.67516571  0.37437211  1
  In  In23  1  0.17376681  0.65525113  0.88490594  1
  In  In24  1  0.48234089  0.01471608  0.39280248  1
  In  In25  1  0.51474878  0.01470322  0.88226605  1
  In  In26  1  0.49873382  0.33072305  0.37153404  1
  In  In27  1  0.50339554  0.33483703  0.87759713  1
  In  In28  1  0.51334306  0.66233673  0.39266203  1
  In  In29  1  0.48425809  0.66668673  0.87141031  1
  In  In30  1  0.84101910  0.00201846  0.37621302  1
  In  In31  1  0.83601754  -0.00957965  0.88395568  1
  In  In32  1  0.82838756  0.32934300  0.37686739  1
  In  In33  1  0.82312359  0.32935528  0.86497921  1
  In  In34  1  0.81863168  0.67345241  0.38903092  1
  In  In35  1  0.84692761  0.66747656  0.87284780  1
  In  In36  1  -0.00388261  0.15941542  0.36779646  1
  In  In37  1  -0.00767252  0.16107353  0.86960154  1
  In  In38  1  -0.00848436  0.48140325  0.37314419  1
  In  In39  1  0.00862482  0.50022004  0.87270870  1
  In  In40  1  -0.00849951  0.83835816  0.37046469  1
  In  In41  1  -0.00657939  0.84359659  0.88193014  1
  In  In42  1  0.34215797  0.16710848  0.36425521  1
  In  In43  1  0.33643737  0.18316459  0.87646745  1
  In  In44  1  0.34816520  0.50352072  0.37730645  1
  In  In45  1  0.33769938  0.49761168  0.87660565  1
  In  In46  1  0.34318075  0.86322930  0.37227577  1
  In  In47  1  0.33420515  0.82004129  0.87713095  1
  In  In48  1  0.65084252  0.18257225  0.37836600  1
  In  In49  1  0.65773056  0.17339542  0.88772377  1
  In  In50  1  0.67576634  0.48916154  0.38432825  1
  In  In51  1  0.67091387  0.47768618  0.87071369  1
  In  In52  1  0.66483822  0.83737127  0.38605978  1
  In  In53  1  0.68181533  0.84148095  0.87482565  1
  In  In54  1  0.17089569  -0.01022030  0.13136402  1
  In  In55  1  0.16049028  -0.01112268  0.62746338  1
  In  In56  1  0.15979870  0.33969400  0.12555318  1
  In  In57  1  0.16443964  0.33636814  0.63449083  1
  In  In58  1  0.16548309  0.66252990  0.11560130  1
  In  In59  1  0.17179836  0.68039419  0.63022701  1
  In  In60  1  0.48743359  0.00270641  0.13168074  1
  In  In61  1  0.50184644  0.01783099  0.60900451  1
  In  In62  1  0.49914161  0.32997398  0.12760118  1
  In  In63  1  0.50060647  0.33348807  0.62436632  1
  In  In64  1  0.51269069  0.66115884  0.12508359  1
  In  In65  1  0.49531034  0.65576582  0.61937209  1
  In  In66  1  0.84547697  0.01991183  0.11398693  1
  In  In67  1  0.83619208  0.00304743  0.61939848  1
  In  In68  1  0.84650449  0.31756985  0.13064898  1
  In  In69  1  0.83019553  0.33081078  0.62767887  1
  In  In70  1  0.82068640  0.67039015  0.12202270  1
  In  In71  1  0.81747191  0.65516683  0.60684425  1
  In  In72  1  0.16904129  0.16519454  0.49248217  1
  In  In73  1  0.67015693  0.66143149  0.26094934  1
  In  In74  1  0.33571404  0.66584875  0.25087829  1
  In  In75  1  0.66218934  0.65768404  0.73597698  1
  In  In76  1  0.83386814  0.50064148  -0.00652751  1
  In  In77  1  0.49569368  0.83402794  0.00230898  1
  In  In78  1  0.16908597  0.49968047  0.50099648  1
  In  In79  1  0.32807372  0.00411405  0.74675277  1
  In  In80  1  0.66485095  0.00456534  0.24976331  1
  In  In81  1  -0.00521099  0.66148817  0.25573008  1
  In  In82  1  0.17105192  0.83634316  0.49926673  1
  In  In83  1  0.67190359  0.00308438  0.74998630  1
  In  In84  1  0.16335471  0.17120273  0.00157950  1
  In  In85  1  0.00267166  0.66458681  0.75077440  1
  Cu  Cu86  1  0.49764845  0.48862848  0.24958969  1
  Cu  Cu87  1  0.34238782  0.33419816  -0.00041499  1
  Cu  Cu88  1  0.84033111  0.84475748  0.24656851  1
  Cu  Cu89  1  0.66498307  0.66986659  -0.00237659  1
  Cu  Cu90  1  0.00136655  -0.00253015  0.00246854  1
  Cu  Cu91  1  0.00161461  0.00553444  0.49840724  1
  Cu  Cu92  1  -0.00516607  0.66175565  0.49680608  1
  Cu  Cu93  1  0.49789339  0.49675627  0.74911213  1
  Cu  Cu94  1  0.16382053  0.16820892  0.75551581  1
  Cu  Cu95  1  0.17660793  0.50329641  0.75522279  1
  Cu  Cu96  1  0.49362558  0.83957352  0.74789316  1
  Cu  Cu97  1  0.33879658  0.33569158  0.49711803  1
  Cu  Cu98  1  0.33216392  0.66082936  -0.00034428  1
  Cu  Cu99  1  -0.00222134  0.67219786  -0.00139392  1
  Cu  Cu100  1  0.66945877  0.33284718  0.00066928  1
  Cu  Cu101  1  0.83838851  0.83088218  0.74921150  1
  Cu  Cu102  1  0.16371058  0.49538006  0.24624971  1
  Cu  Cu103  1  0.17066401  0.16562244  0.24107962  1
  Cu  Cu104  1  0.82990356  0.48854195  0.25261676  1
  Cu  Cu105  1  0.49743544  0.83450062  0.26026450  1
  Cu  Cu106  1  0.33208363  0.00187095  0.00703418  1
  Cu  Cu107  1  0.65957790  0.32750484  0.49963586  1
  Cu  Cu108  1  0.16503661  0.83452271  0.75522245  1
  Cu  Cu109  1  0.83199507  0.17128576  0.25024376  1
  Cu  Cu110  1  0.50209682  0.17795943  0.75183841  1
  Cu  Cu111  1  0.67389610  0.00473912  0.49571729  1
  Cu  Cu112  1  0.34043451  0.66702823  0.50343917  1
  Cu  Cu113  1  -0.01608228  0.33176648  0.50303960  1
  Cu  Cu114  1  0.83204350  0.16368799  0.74831968  1
  Se  Se115  1  0.07940320  0.07913162  0.06424321  1
  Se  Se116  1  0.07993572  0.08319695  0.56124676  1
  Se  Se117  1  0.08850161  0.41295340  0.04639075  1
  Se  Se118  1  0.07552647  0.40892960  0.55730957  1
  Se  Se119  1  0.08281754  0.75206838  0.05293314  1
  Se  Se120  1  0.07593568  0.74275732  0.55572612  1
  Se  Se121  1  0.41867052  0.08486635  0.05479751  1
  Se  Se122  1  0.40476611  0.08638177  0.54531628  1
  Se  Se123  1  0.42428540  0.41815652  0.05480669  1
  Se  Se124  1  0.41920764  0.41839668  0.55326036  1
  Se  Se125  1  0.40875012  0.74065667  0.06440917  1
  Se  Se126  1  0.41653806  0.75382635  0.55908286  1
  Se  Se127  1  0.74392314  0.08152643  0.05090021  1
  Se  Se128  1  0.75380498  0.08728745  0.55288047  1
  Se  Se129  1  0.75106663  0.41326834  0.06090717  1
  Se  Se130  1  0.74459243  0.40722121  0.55568797  1
  Se  Se131  1  0.75023131  0.75296302  0.04731937  1
  Se  Se132  1  0.77519335  0.77086456  0.54947632  1
  Se  Se133  1  0.25952753  0.25485149  0.06046240  1
  Se  Se134  1  0.25067801  0.26140483  0.55642574  1
  Se  Se135  1  0.24737222  0.57599125  0.05063352  1
  Se  Se136  1  0.25587073  0.59047949  0.56309893  1
  Se  Se137  1  0.24833816  0.91464102  0.05358381  1
  Se  Se138  1  0.26077731  0.92935220  0.55654638  1
  Se  Se139  1  0.58554444  0.25312280  0.05656647  1
  Se  Se140  1  0.57446041  0.24479183  0.55341810  1
  Se  Se141  1  0.58150597  0.58399705  0.04681974  1
  Se  Se142  1  0.60391576  0.60088764  0.55880606  1
  Se  Se143  1  0.58284843  0.92047868  0.06508472  1
  Se  Se144  1  0.58838320  0.92600196  0.55146208  1
  Se  Se145  1  0.91668527  0.24923393  0.04983109  1
  Se  Se146  1  0.90791321  0.24273320  0.55597456  1
  Se  Se147  1  0.92096320  0.58897699  0.06082170  1
  Se  Se148  1  0.91790356  0.57531302  0.55130585  1
  Se  Se149  1  0.91365230  0.91473271  0.05399148  1
  Se  Se150  1  0.92212650  0.91867156  0.55242523  1
  Se  Se151  1  0.07137572  0.25894592  0.44229156  1
  Se  Se152  1  0.07906802  0.25385559  0.93451712  1
  Se  Se153  1  0.07738322  0.58572531  0.43670780  1
  Se  Se154  1  0.07795567  0.58189763  0.94891814  1
  Se  Se155  1  0.08254140  0.92665197  0.43738721  1
  Se  Se156  1  0.08718407  0.91478577  0.95063183  1
  Se  Se157  1  0.41334577  0.24814397  0.44085183  1
  Se  Se158  1  0.42540328  0.24779063  0.94915496  1
  Se  Se159  1  0.42184913  0.57785531  0.45411898  1
  Se  Se160  1  0.42002776  0.58189771  0.94730475  1
  Se  Se161  1  0.43451335  0.89916142  0.45129203  1
  Se  Se162  1  0.40995344  0.92655739  0.93867461  1
  Se  Se163  1  0.74786530  0.24687588  0.44740713  1
  Se  Se164  1  0.75546749  0.25391925  0.94609155  1
  Se  Se165  1  0.74187161  0.58428400  0.45224530  1
  Se  Se166  1  0.74148849  0.59064398  0.93321362  1
  Se  Se167  1  0.75830124  0.92046517  0.44531247  1
  Se  Se168  1  0.74092361  0.92297733  0.95209502  1
  Se  Se169  1  0.25662942  0.07392714  0.43515344  1
  Se  Se170  1  0.25743794  0.08133454  0.94083957  1
  Se  Se171  1  0.25158428  0.40814084  0.43652194  1
  Se  Se172  1  0.25513679  0.41402475  0.94591705  1
  Se  Se173  1  0.26474629  0.74641156  0.44025694  1
  Se  Se174  1  0.25008136  0.74973784  0.95041682  1
  Se  Se175  1  0.58459072  0.08853223  0.44889485  1
  Se  Se176  1  0.59187319  0.08098324  0.95882296  1
  Se  Se177  1  0.57832783  0.41207746  0.44486786  1
  Se  Se178  1  0.58620368  0.41778498  0.94839138  1
  Se  Se179  1  0.59515770  0.74814158  0.45547838  1
  Se  Se180  1  0.58523102  0.74943563  0.93523205  1
  Se  Se181  1  0.91815079  0.08985860  0.44634392  1
  Se  Se182  1  0.92135702  0.08029337  0.94598152  1
  Se  Se183  1  0.90575186  0.41806247  0.44847740  1
  Se  Se184  1  0.91981689  0.40948981  0.93457488  1
  Se  Se185  1  0.92132356  0.75224950  0.44313664  1
  Se  Se186  1  0.91161093  0.75354244  0.94719356  1
  Se  Se187  1  0.25146959  0.24699379  0.29915643  1
  Se  Se188  1  0.25337752  0.25122513  0.80175585  1
  Se  Se189  1  0.24089620  0.57403774  0.30976088  1
  Se  Se190  1  0.25672837  0.58745758  0.80879301  1
  Se  Se191  1  0.24394977  0.89907724  0.29878499  1
  Se  Se192  1  0.24469596  0.91721531  0.81474154  1
  Se  Se193  1  0.57780418  0.25005715  0.29951779  1
  Se  Se194  1  0.58893351  0.25164769  0.80904730  1
  Se  Se195  1  0.57419071  0.57023314  0.31232243  1
  Se  Se196  1  0.57854551  0.57826639  0.80900707  1
  Se  Se197  1  0.57949620  0.91728479  0.31538485  1
  Se  Se198  1  0.57610489  0.91242132  0.80920814  1
  Se  Se199  1  0.91621073  0.25322213  0.30587318  1
  Se  Se200  1  0.91547584  0.24833199  0.80094748  1
  Se  Se201  1  0.89821882  0.57754231  0.31472730  1
  Se  Se202  1  0.90863201  0.56950101  0.80239824  1
  Se  Se203  1  0.92163560  0.92816415  0.29975348  1
  Se  Se204  1  0.91383560  0.91681644  0.80581372  1
  Se  Se205  1  0.08496190  0.08692994  0.29754384  1
  Se  Se206  1  0.07879155  0.07981921  0.80020889  1
  Se  Se207  1  0.07876682  0.41393820  0.30052673  1
  Se  Se208  1  0.08884365  0.41905472  0.80243261  1
  Se  Se209  1  0.08882193  0.75953140  0.30377592  1
  Se  Se210  1  0.08690342  0.75265422  0.81645982  1
  Se  Se211  1  0.41373138  0.06569413  0.30458085  1
  Se  Se212  1  0.42442527  0.08917429  0.80806157  1
  Se  Se213  1  0.40910986  0.41351828  0.30384928  1
  Se  Se214  1  0.41837549  0.41369889  0.80695430  1
  Se  Se215  1  0.42549759  0.74572753  0.31852743  1
  Se  Se216  1  0.41299691  0.75241054  0.79849696  1
  Se  Se217  1  0.75216967  0.09342576  0.31269057  1
  Se  Se218  1  0.75503266  0.08921134  0.81583755  1
  Se  Se219  1  0.74328859  0.40974320  0.30591165  1
  Se  Se220  1  0.75043262  0.41572376  0.79334693  1
  Se  Se221  1  0.75916693  0.76560145  0.30780773  1
  Se  Se222  1  0.75317176  0.74802150  0.80229423  1
  Se  Se223  1  0.25538209  0.07841851  0.19389936  1
  Se  Se224  1  0.24026241  0.09536742  0.68590686  1
  Se  Se225  1  0.25040655  0.41264616  0.19640120  1
  Se  Se226  1  0.25396649  0.41552167  0.69942237  1
  Se  Se227  1  0.24083170  0.74879706  0.19101852  1
  Se  Se228  1  0.25191587  0.75284773  0.70482158  1
  Se  Se229  1  0.57696787  0.09514361  0.19083981  1
  Se  Se230  1  0.57710292  0.09100321  0.69236969  1
  Se  Se231  1  0.58699200  0.41343153  0.19624078  1
  Se  Se232  1  0.58239369  0.41452966  0.69596270  1
  Se  Se233  1  0.57909746  0.75567870  0.20006619  1
  Se  Se234  1  0.57587403  0.76164299  0.68741619  1
  Se  Se235  1  0.91493357  0.08630729  0.19756807  1
  Se  Se236  1  0.91399076  0.07737351  0.69610975  1
  Se  Se237  1  0.91834971  0.41457278  0.19683737  1
  Se  Se238  1  0.92680326  0.39740286  0.69645019  1
  Se  Se239  1  0.91078857  0.75167545  0.18977321  1
  Se  Se240  1  0.91071896  0.74661377  0.68619207  1
  Se  Se241  1  0.08355008  0.25134788  0.19419960  1
  Se  Se242  1  0.08128798  0.25134121  0.69987855  1
  Se  Se243  1  0.08255116  0.57639921  0.18882018  1
  Se  Se244  1  0.09447487  0.57520558  0.68852454  1
  Se  Se245  1  0.07668784  0.92013155  0.19879637  1
  Se  Se246  1  0.08021843  0.91543575  0.70213196  1
  Se  Se247  1  0.40803715  0.26152272  0.19811403  1
  Se  Se248  1  0.41531247  0.25540701  0.69714556  1
  Se  Se249  1  0.42269916  0.57466182  0.18896039  1
  Se  Se250  1  0.41706593  0.58547291  0.69754354  1
  Se  Se251  1  0.41615775  0.91255492  0.20191187  1
  Se  Se252  1  0.42350664  0.92294851  0.68472237  1
  Se  Se253  1  0.74754566  0.25341616  0.19766229  1
  Se  Se254  1  0.74591459  0.24603493  0.69683274  1
  Se  Se255  1  0.75277385  0.57248788  0.19229808  1
  Se  Se256  1  0.76151821  0.56841978  0.68804350  1
  Se  Se257  1  0.75542815  0.91812482  0.18632991  1
  Se  Se258  1  0.75341768  0.90690105  0.68878336  1
