# generated using pymatgen
data_In86Cu29Se144
_symmetry_space_group_name_H-M   'P 1'
_cell_length_a   17.59363645
_cell_length_b   17.59010810
_cell_length_c   23.43964864
_cell_angle_alpha   89.98827407
_cell_angle_beta   90.00181384
_cell_angle_gamma   89.99342837
_symmetry_Int_Tables_number   1
_chemical_formula_structural   In86Cu29Se144
_chemical_formula_sum   'In86 Cu29 Se144'
_cell_volume   7253.96084893
_cell_formula_units_Z   1
loop_
 _symmetry_equiv_pos_site_id
 _symmetry_equiv_pos_as_xyz
  1  'x, y, z'
loop_
 _atom_site_type_symbol
 _atom_site_label
 _atom_site_symmetry_multiplicity
 _atom_site_fract_x
 _atom_site_fract_y
 _atom_site_fract_z
 _atom_site_occupancy
  In  In0  1  0.01716953  0.17513559  0.12174981  1
  In  In1  1  -0.00325780  0.16238982  0.62726173  1
  In  In2  1  -0.01074717  0.49070806  0.11624141  1
  In  In3  1  0.00770509  0.48592312  0.63365208  1
  In  In4  1  -0.00644139  0.84080772  0.12343088  1
  In  In5  1  -0.00647875  0.83388078  0.63319743  1
  In  In6  1  0.33186167  0.17128716  0.12148802  1
  In  In7  1  0.32900742  0.16871079  0.61916659  1
  In  In8  1  0.32476694  0.48248812  0.10455677  1
  In  In9  1  0.33583603  0.51427655  0.61624553  1
  In  In10  1  0.33188949  0.82049195  0.13038350  1
  In  In11  1  0.31507278  0.80926648  0.60431663  1
  In  In12  1  0.65990778  0.16427062  0.13042165  1
  In  In13  1  0.67487919  0.17358468  0.61280921  1
  In  In14  1  0.66981045  0.50611372  0.11670855  1
  In  In15  1  0.65420593  0.49532163  0.62369934  1
  In  In16  1  0.68452731  0.82123580  0.14245277  1
  In  In17  1  0.67601606  0.85003924  0.60326064  1
  In  In18  1  0.16413668  0.00010802  0.38575400  1
  In  In19  1  0.16372882  0.01320330  0.87666001  1
  In  In20  1  0.16450539  0.33254681  0.37836276  1
  In  In21  1  0.15755975  0.34359243  0.88017296  1
  In  In22  1  0.17560782  0.65833819  0.39718926  1
  In  In23  1  0.15731827  0.65692280  0.86644890  1
  In  In24  1  0.52900577  -0.01857472  0.39700361  1
  In  In25  1  0.50626575  0.00574738  0.87313375  1
  In  In26  1  0.50293002  0.33335711  0.38163325  1
  In  In27  1  0.50425422  0.33080070  0.88109605  1
  In  In28  1  0.50898700  0.65548767  0.38050878  1
  In  In29  1  0.48610983  0.66721964  0.86558727  1
  In  In30  1  0.83350091  -0.00410662  0.38073840  1
  In  In31  1  0.83248185  -0.01225989  0.87127853  1
  In  In32  1  0.83290438  0.31704752  0.37553121  1
  In  In33  1  0.84471068  0.34232298  0.85933557  1
  In  In34  1  0.83117574  0.68293645  0.37702625  1
  In  In35  1  0.83896074  0.66639572  0.87710783  1
  In  In36  1  -0.00036178  0.16706975  0.37927440  1
  In  In37  1  0.00372917  0.17895455  0.86079894  1
  In  In38  1  0.01143867  0.49689239  0.37700009  1
  In  In39  1  -0.00073439  0.50120870  0.87268142  1
  In  In40  1  -0.00564489  0.83836834  0.38857502  1
  In  In41  1  -0.01375936  0.82190570  0.85606621  1
  In  In42  1  0.33705837  0.16445261  0.38098091  1
  In  In43  1  0.32244954  0.18752524  0.89532945  1
  In  In44  1  0.33627977  0.49862600  0.38537711  1
  In  In45  1  0.32289581  0.50405800  0.88216219  1
  In  In46  1  0.33416665  0.82130641  0.39353430  1
  In  In47  1  0.34232541  0.82458165  0.86402672  1
  In  In48  1  0.68645174  0.14592291  0.39505864  1
  In  In49  1  0.64866758  0.16646825  0.87825777  1
  In  In50  1  0.65414001  0.50079934  0.37190947  1
  In  In51  1  0.67972201  0.49781210  0.88065821  1
  In  In52  1  0.67884102  0.82900167  0.37395900  1
  In  In53  1  0.67055285  0.84661570  0.87074804  1
  In  In54  1  0.15555868  0.00662661  0.12565175  1
  In  In55  1  0.15074745  -0.00855098  0.61936986  1
  In  In56  1  0.15177392  0.31983032  0.11337434  1
  In  In57  1  0.15839850  0.32697613  0.62203078  1
  In  In58  1  0.17894551  0.65721344  0.12522113  1
  In  In59  1  0.16193395  0.66176377  0.62733726  1
  In  In60  1  0.50840399  0.01173450  0.12787721  1
  In  In61  1  0.50463613  -0.00019083  0.61119092  1
  In  In62  1  0.49372686  0.32681832  0.11092942  1
  In  In63  1  0.50033901  0.33956196  0.62296905  1
  In  In64  1  0.50971635  0.66831816  0.12459725  1
  In  In65  1  0.49295087  0.66236162  0.61214296  1
  In  In66  1  0.83756615  -0.01336747  0.12552912  1
  In  In67  1  0.83771192  0.01166851  0.62138625  1
  In  In68  1  0.83157945  0.34878749  0.12504500  1
  In  In69  1  0.84536372  0.30564334  0.64629814  1
  In  In70  1  0.82883623  0.66270594  0.11927100  1
  In  In71  1  0.83985864  0.68539244  0.62918812  1
  In  In72  1  0.83160658  0.49459837  0.50977481  1
  In  In73  1  0.50626812  0.83780053  -0.00449786  1
  In  In74  1  0.67075622  0.00745932  0.73794468  1
  In  In75  1  -0.00652379  0.00325438  0.25976120  1
  In  In76  1  0.33643016  0.00213346  0.24904503  1
  In  In77  1  0.34124060  0.65896028  0.25939465  1
  In  In78  1  0.66785997  0.67063707  0.74202447  1
  In  In79  1  0.33359488  0.33305817  0.25130264  1
  In  In80  1  0.32701722  0.34150378  0.75802824  1
  In  In81  1  0.83310730  0.16867821  -0.00865183  1
  In  In82  1  0.33849446  -0.00253747  0.74531326  1
  In  In83  1  0.66640573  0.33339705  0.24949115  1
  In  In84  1  -0.00190411  0.66767800  0.25424040  1
  In  In85  1  0.16471693  0.83455002  0.00297138  1
  Cu  Cu86  1  0.33455838  0.00688961  0.00276771  1
  Cu  Cu87  1  0.16668434  0.50075022  0.75175118  1
  Cu  Cu88  1  0.83966850  0.16156217  0.25654807  1
  Cu  Cu89  1  0.16019719  0.49252011  0.25131974  1
  Cu  Cu90  1  0.51127204  0.83871835  0.25699576  1
  Cu  Cu91  1  0.15663333  0.16499549  0.74661686  1
  Cu  Cu92  1  0.49838797  0.82995876  0.73391418  1
  Cu  Cu93  1  0.66862008  0.33741883  0.00013480  1
  Cu  Cu94  1  0.66924822  -0.00228826  -0.00044941  1
  Cu  Cu95  1  0.50177796  0.50151500  0.74364003  1
  Cu  Cu96  1  0.66815202  0.67109534  0.00039135  1
  Cu  Cu97  1  -0.00039004  -0.00033495  -0.00050189  1
  Cu  Cu98  1  0.83466681  0.50333519  0.75281032  1
  Cu  Cu99  1  -0.00224035  0.32851804  0.50636122  1
  Cu  Cu100  1  -0.00366985  0.33674857  -0.00929139  1
  Cu  Cu101  1  0.50228739  0.50580758  0.24283387  1
  Cu  Cu102  1  0.66932573  0.66499009  0.50130745  1
  Cu  Cu103  1  0.32977778  0.66034698  -0.00593863  1
  Cu  Cu104  1  0.16932686  0.83231941  0.74073063  1
  Cu  Cu105  1  0.16164038  0.83468635  0.26603470  1
  Cu  Cu106  1  0.00228882  0.66411725  -0.00721628  1
  Cu  Cu107  1  0.66557551  0.33448941  0.50186416  1
  Cu  Cu108  1  0.49314252  0.17042923  0.75605955  1
  Cu  Cu109  1  0.32656053  0.33951530  0.50367317  1
  Cu  Cu110  1  0.33333368  0.00815298  0.50179753  1
  Cu  Cu111  1  0.50693872  0.16150997  0.25798024  1
  Cu  Cu112  1  0.83356341  0.50341026  0.24352877  1
  Cu  Cu113  1  0.00084885  0.66984014  0.50634542  1
  Cu  Cu114  1  0.00189926  0.00374338  0.50401337  1
  Se  Se115  1  0.08426126  0.08462707  0.04899322  1
  Se  Se116  1  0.08489451  0.09136732  0.55403070  1
  Se  Se117  1  0.08047259  0.41670864  0.04846594  1
  Se  Se118  1  0.08173506  0.41686224  0.55316424  1
  Se  Se119  1  0.07684848  0.73903647  0.06263854  1
  Se  Se120  1  0.07896571  0.75356408  0.56330816  1
  Se  Se121  1  0.41888233  0.08394912  0.05911237  1
  Se  Se122  1  0.41813989  0.09209427  0.55258524  1
  Se  Se123  1  0.43437978  0.42801085  0.04661740  1
  Se  Se124  1  0.41561302  0.41994922  0.55439008  1
  Se  Se125  1  0.40964607  0.74501158  0.05212998  1
  Se  Se126  1  0.43206104  0.76458030  0.54819833  1
  Se  Se127  1  0.74977907  0.08018873  0.05903635  1
  Se  Se128  1  0.73196737  0.06407482  0.55475453  1
  Se  Se129  1  0.75433868  0.42200388  0.04966652  1
  Se  Se130  1  0.74854725  0.40065399  0.56947191  1
  Se  Se131  1  0.74810264  0.75539120  0.05539382  1
  Se  Se132  1  0.75665651  0.74725364  0.55039454  1
  Se  Se133  1  0.26410077  0.26605749  0.05594060  1
  Se  Se134  1  0.24471382  0.25064799  0.55227969  1
  Se  Se135  1  0.24302587  0.57906762  0.04585559  1
  Se  Se136  1  0.24187701  0.58658456  0.55254530  1
  Se  Se137  1  0.25969677  0.92288373  0.06475192  1
  Se  Se138  1  0.25034842  0.92437507  0.55473709  1
  Se  Se139  1  0.59361439  0.24754352  0.05438221  1
  Se  Se140  1  0.57757174  0.25290420  0.55333009  1
  Se  Se141  1  0.58181924  0.58771249  0.05014384  1
  Se  Se142  1  0.58432800  0.57888158  0.54959067  1
  Se  Se143  1  0.59279121  0.91754489  0.06371460  1
  Se  Se144  1  0.58419033  0.92335098  0.53828655  1
  Se  Se145  1  0.91907509  0.25768778  0.05650504  1
  Se  Se146  1  0.91179106  0.24677419  0.55795986  1
  Se  Se147  1  0.91695599  0.58570160  0.05107871  1
  Se  Se148  1  0.92310197  0.58582846  0.56670716  1
  Se  Se149  1  0.91519294  0.91409063  0.04800876  1
  Se  Se150  1  0.92058068  0.92025451  0.55930750  1
  Se  Se151  1  0.08206593  0.25003273  0.44803023  1
  Se  Se152  1  0.07818292  0.24754439  0.94184543  1
  Se  Se153  1  0.07697880  0.57916107  0.45402023  1
  Se  Se154  1  0.08652361  0.57880987  0.94388605  1
  Se  Se155  1  0.08468506  0.91543518  0.45391439  1
  Se  Se156  1  0.07747572  0.91724077  0.93752912  1
  Se  Se157  1  0.40984721  0.25926653  0.44652054  1
  Se  Se158  1  0.43816006  0.23519706  0.94929682  1
  Se  Se159  1  0.40450628  0.59923875  0.44494734  1
  Se  Se160  1  0.42040844  0.58468723  0.94211571  1
  Se  Se161  1  0.41308028  0.92153157  0.44873497  1
  Se  Se162  1  0.40590561  0.92398778  0.93858560  1
  Se  Se163  1  0.75528591  0.25050784  0.45447730  1
  Se  Se164  1  0.74473971  0.26099482  0.93390978  1
  Se  Se165  1  0.74862707  0.58131529  0.44094669  1
  Se  Se166  1  0.75438759  0.58882516  0.94754832  1
  Se  Se167  1  0.74825403  0.91626827  0.44734786  1
  Se  Se168  1  0.75184298  0.91432514  0.94749930  1
  Se  Se169  1  0.24709158  0.08878929  0.44883215  1
  Se  Se170  1  0.24553591  0.08526134  0.95131952  1
  Se  Se171  1  0.24345220  0.41911332  0.44679111  1
  Se  Se172  1  0.26719162  0.39466802  0.94174493  1
  Se  Se173  1  0.23792352  0.75852418  0.46065536  1
  Se  Se174  1  0.25280177  0.74812347  0.93714829  1
  Se  Se175  1  0.55912881  0.11160849  0.44128612  1
  Se  Se176  1  0.57939511  0.07884159  0.95186096  1
  Se  Se177  1  0.58490921  0.41974229  0.44819763  1
  Se  Se178  1  0.58674416  0.42104400  0.94516625  1
  Se  Se179  1  0.59080015  0.74650845  0.44215598  1
  Se  Se180  1  0.59014152  0.74410986  0.93262889  1
  Se  Se181  1  0.91791014  0.08194778  0.44611389  1
  Se  Se182  1  0.92468050  0.07879025  0.93448657  1
  Se  Se183  1  0.91895481  0.40895784  0.44325930  1
  Se  Se184  1  0.91090547  0.41934002  0.93988723  1
  Se  Se185  1  0.91346165  0.74998416  0.45405382  1
  Se  Se186  1  0.92308427  0.75411125  0.94277256  1
  Se  Se187  1  0.24672202  0.24083265  0.30880859  1
  Se  Se188  1  0.23822016  0.24181435  0.80931995  1
  Se  Se189  1  0.23894867  0.57350489  0.31213128  1
  Se  Se190  1  0.25453654  0.58217758  0.80311108  1
  Se  Se191  1  0.25241577  0.91199276  0.31648392  1
  Se  Se192  1  0.24316811  0.91176868  0.80814582  1
  Se  Se193  1  0.58826384  0.24342010  0.31619751  1
  Se  Se194  1  0.58053133  0.25355518  0.80432344  1
  Se  Se195  1  0.58390869  0.58668939  0.29868440  1
  Se  Se196  1  0.58283354  0.58071370  0.80606092  1
  Se  Se197  1  0.59346310  0.92104665  0.30938048  1
  Se  Se198  1  0.57250499  0.91206422  0.79787626  1
  Se  Se199  1  0.92251121  0.24862000  0.30460047  1
  Se  Se200  1  0.90440946  0.24008023  0.79512640  1
  Se  Se201  1  0.90894030  0.57531288  0.31383953  1
  Se  Se202  1  0.91812084  0.58722216  0.80415554  1
  Se  Se203  1  0.90838670  0.90085292  0.30815595  1
  Se  Se204  1  0.91772391  0.92372401  0.79661826  1
  Se  Se205  1  0.09498774  0.08863286  0.30915986  1
  Se  Se206  1  0.07920930  0.07782946  0.80084875  1
  Se  Se207  1  0.07998153  0.40881414  0.30478714  1
  Se  Se208  1  0.08167755  0.41642646  0.80301818  1
  Se  Se209  1  0.08741555  0.74802726  0.32298957  1
  Se  Se210  1  0.08831209  0.74932411  0.79794733  1
  Se  Se211  1  0.42726960  0.07935876  0.31538721  1
  Se  Se212  1  0.40981993  0.09294072  0.81478527  1
  Se  Se213  1  0.42648492  0.42694774  0.30742558  1
  Se  Se214  1  0.42547782  0.42779080  0.81176727  1
  Se  Se215  1  0.42481167  0.75987873  0.31300839  1
  Se  Se216  1  0.41608468  0.74719721  0.78826454  1
  Se  Se217  1  0.75488679  0.08184951  0.30964825  1
  Se  Se218  1  0.74627420  0.08767582  0.81396534  1
  Se  Se219  1  0.75832581  0.42286107  0.30995954  1
  Se  Se220  1  0.74510573  0.42070049  0.80014963  1
  Se  Se221  1  0.74859110  0.74261878  0.29991409  1
  Se  Se222  1  0.75454867  0.75732229  0.80647060  1
  Se  Se223  1  0.24214104  0.09174352  0.19291916  1
  Se  Se224  1  0.24168032  0.08638491  0.68978378  1
  Se  Se225  1  0.24612528  0.42216074  0.18964345  1
  Se  Se226  1  0.24519578  0.42357699  0.68730561  1
  Se  Se227  1  0.23919403  0.75200508  0.20448474  1
  Se  Se228  1  0.25319011  0.74583118  0.69251814  1
  Se  Se229  1  0.59108209  0.07904981  0.20483039  1
  Se  Se230  1  0.56596119  0.09188583  0.69018710  1
  Se  Se231  1  0.57683318  0.41764803  0.18501941  1
  Se  Se232  1  0.58338252  0.41135076  0.69828721  1
  Se  Se233  1  0.58156658  0.74778948  0.19985545  1
  Se  Se234  1  0.58727143  0.75954859  0.67529378  1
  Se  Se235  1  0.91709058  0.09147705  0.18643277  1
  Se  Se236  1  0.90709669  0.09094715  0.69764555  1
  Se  Se237  1  0.91993015  0.41696033  0.19778741  1
  Se  Se238  1  0.91504678  0.41382784  0.70140110  1
  Se  Se239  1  0.91069595  0.75496580  0.19135585  1
  Se  Se240  1  0.92001920  0.74902440  0.70630212  1
  Se  Se241  1  0.08590473  0.25431285  0.19758401  1
  Se  Se242  1  0.07692678  0.25319465  0.69563871  1
  Se  Se243  1  0.08545683  0.57715271  0.19046621  1
  Se  Se244  1  0.07970662  0.58179820  0.69920237  1
  Se  Se245  1  0.08808695  0.90906079  0.19840232  1
  Se  Se246  1  0.08077767  0.92010803  0.69945711  1
  Se  Se247  1  0.43046165  0.24200322  0.19522640  1
  Se  Se248  1  0.41213967  0.24946795  0.69495862  1
  Se  Se249  1  0.41324977  0.57608131  0.18277436  1
  Se  Se250  1  0.42063370  0.58566419  0.69080458  1
  Se  Se251  1  0.42774449  0.90608048  0.19041349  1
  Se  Se252  1  0.41640193  0.91058161  0.67661741  1
  Se  Se253  1  0.76275339  0.24307743  0.19228456  1
  Se  Se254  1  0.73183818  0.24444425  0.69848300  1
  Se  Se255  1  0.74768975  0.58346593  0.19193310  1
  Se  Se256  1  0.75756565  0.57604411  0.68494108  1
  Se  Se257  1  0.74658976  0.93008829  0.19904757  1
  Se  Se258  1  0.75727354  0.90807576  0.68761938  1
