# generated using pymatgen
data_In86Cu29Se144
_symmetry_space_group_name_H-M   'P 1'
_cell_length_a   17.57157489
_cell_length_b   17.57937920
_cell_length_c   23.43481352
_cell_angle_alpha   89.96774602
_cell_angle_beta   90.01730939
_cell_angle_gamma   90.01944496
_symmetry_Int_Tables_number   1
_chemical_formula_structural   In86Cu29Se144
_chemical_formula_sum   'In86 Cu29 Se144'
_cell_volume   7238.95055919
_cell_formula_units_Z   1
loop_
 _symmetry_equiv_pos_site_id
 _symmetry_equiv_pos_as_xyz
  1  'x, y, z'
loop_
 _atom_site_type_symbol
 _atom_site_label
 _atom_site_symmetry_multiplicity
 _atom_site_fract_x
 _atom_site_fract_y
 _atom_site_fract_z
 _atom_site_occupancy
  In  In0  1  0.00318418  0.15809995  0.13327576  1
  In  In1  1  -0.00257378  0.18526943  0.60982237  1
  In  In2  1  -0.01085029  0.50522004  0.13036623  1
  In  In3  1  -0.00644902  0.50522376  0.62655218  1
  In  In4  1  -0.00368939  0.83539184  0.12738304  1
  In  In5  1  0.00450853  0.81977523  0.62543701  1
  In  In6  1  0.33380455  0.16720737  0.12290172  1
  In  In7  1  0.34107932  0.16991604  0.60203000  1
  In  In8  1  0.34917656  0.50681831  0.12253326  1
  In  In9  1  0.34246943  0.50392062  0.62841507  1
  In  In10  1  0.33791717  0.82446594  0.12636858  1
  In  In11  1  0.32223154  0.83817674  0.62446052  1
  In  In12  1  0.67474237  0.18066158  0.12520011  1
  In  In13  1  0.66663533  0.17063451  0.62349758  1
  In  In14  1  0.66725813  0.49466221  0.11757391  1
  In  In15  1  0.68211651  0.48215821  0.64230558  1
  In  In16  1  0.66246463  0.82860640  0.10954112  1
  In  In17  1  0.66598512  0.83238253  0.64165876  1
  In  In18  1  0.15575360  0.01233070  0.38789491  1
  In  In19  1  0.17842225  0.00705148  0.87502218  1
  In  In20  1  0.15598926  0.32992261  0.38213071  1
  In  In21  1  0.15079002  0.33156706  0.87286086  1
  In  In22  1  0.16903802  0.67340399  0.36699603  1
  In  In23  1  0.15947811  0.66214492  0.86664939  1
  In  In24  1  0.50889025  0.01050360  0.37259652  1
  In  In25  1  0.52892227  -0.01934345  0.90009339  1
  In  In26  1  0.49957567  0.32146945  0.37798441  1
  In  In27  1  0.51206666  0.32156812  0.88015365  1
  In  In28  1  0.49062044  0.67449086  0.36797969  1
  In  In29  1  0.49998103  0.66435911  0.87716334  1
  In  In30  1  0.84773201  0.00060517  0.37126459  1
  In  In31  1  0.81260772  -0.00170608  0.87695778  1
  In  In32  1  0.83664507  0.33513706  0.38032597  1
  In  In33  1  0.83939285  0.34471063  0.86734431  1
  In  In34  1  0.83592003  0.65002984  0.37613875  1
  In  In35  1  0.83539484  0.66530111  0.87923938  1
  In  In36  1  -0.00175083  0.17087653  0.38156192  1
  In  In37  1  -0.00707154  0.18072017  0.87393157  1
  In  In38  1  -0.00777725  0.48778663  0.36298577  1
  In  In39  1  -0.00669026  0.49704018  0.87344430  1
  In  In40  1  0.00615272  0.84321180  0.36433258  1
  In  In41  1  -0.00261802  0.81665664  0.88019768  1
  In  In42  1  0.32766488  0.16947351  0.39723797  1
  In  In43  1  0.33846643  0.16548354  0.87618083  1
  In  In44  1  0.32457969  0.50860991  0.37047049  1
  In  In45  1  0.33283295  0.51304945  0.87261887  1
  In  In46  1  0.33375259  0.81932743  0.36978687  1
  In  In47  1  0.34474793  0.83766132  0.87695610  1
  In  In48  1  0.66544964  0.18611051  0.39266621  1
  In  In49  1  0.66017090  0.16082411  0.86400168  1
  In  In50  1  0.68684743  0.49651019  0.38267176  1
  In  In51  1  0.66686696  0.49813716  0.87411362  1
  In  In52  1  0.65635271  0.83440538  0.37342211  1
  In  In53  1  0.67254031  0.82939311  0.88015908  1
  In  In54  1  0.15178359  0.00109664  0.12687474  1
  In  In55  1  0.18237565  0.00640807  0.60724173  1
  In  In56  1  0.16659627  0.31928518  0.12930858  1
  In  In57  1  0.16055169  0.31892686  0.61629929  1
  In  In58  1  0.16078164  0.67139564  0.13083662  1
  In  In59  1  0.16183419  0.66957339  0.62775190  1
  In  In60  1  0.50581666  0.00178146  0.11166406  1
  In  In61  1  0.50667055  0.00864728  0.62679962  1
  In  In62  1  0.50982040  0.34629105  0.11826017  1
  In  In63  1  0.50766561  0.32779487  0.62199060  1
  In  In64  1  0.50206379  0.66617559  0.11886237  1
  In  In65  1  0.49990065  0.66794184  0.63929430  1
  In  In66  1  0.84189661  0.00584447  0.12386744  1
  In  In67  1  0.81782765  0.00196095  0.63053802  1
  In  In68  1  0.82728094  0.34045976  0.13234823  1
  In  In69  1  0.82852076  0.33830584  0.61932391  1
  In  In70  1  0.84672100  0.66651412  0.10902657  1
  In  In71  1  0.83734092  0.65940933  0.63460889  1
  In  In72  1  0.16066480  0.49210595  0.49373087  1
  In  In73  1  -0.00256996  -0.00406228  0.74316623  1
  In  In74  1  0.82989096  0.16490410  -0.00131175  1
  In  In75  1  0.67186617  0.00399913  0.24874079  1
  In  In76  1  0.33274903  -0.00116886  0.25375952  1
  In  In77  1  0.33222669  0.33883183  0.25553932  1
  In  In78  1  0.16694446  0.83618046  0.00748229  1
  In  In79  1  0.49303094  0.83779097  0.49666965  1
  In  In80  1  0.33885463  0.00186522  0.74364049  1
  In  In81  1  0.33155488  0.33474306  0.74155798  1
  In  In82  1  0.16490032  0.49626671  -0.00631727  1
  In  In83  1  0.83796639  0.83555258  0.50150546  1
  In  In84  1  0.66798829  0.66218964  0.24065655  1
  In  In85  1  0.50822135  0.49290675  0.50692897  1
  Cu  Cu86  1  0.00312139  0.66540741  0.50090968  1
  Cu  Cu87  1  0.49828695  0.50101408  0.75361588  1
  Cu  Cu88  1  0.33446061  0.33087461  0.00354990  1
  Cu  Cu89  1  0.66842481  0.33353699  -0.00262377  1
  Cu  Cu90  1  0.66979968  0.66130959  0.50766038  1
  Cu  Cu91  1  0.15534032  0.16575604  0.25847000  1
  Cu  Cu92  1  0.16516833  0.82598682  0.74541159  1
  Cu  Cu93  1  0.33524331  0.66854337  -0.00192141  1
  Cu  Cu94  1  0.50545135  0.15980574  0.75250561  1
  Cu  Cu95  1  0.51007096  0.50428880  0.24374015  1
  Cu  Cu96  1  0.32996588  0.66586985  0.49765903  1
  Cu  Cu97  1  0.16176252  0.83605442  0.24869512  1
  Cu  Cu98  1  0.15802414  0.50263741  0.74927166  1
  Cu  Cu99  1  0.83032557  0.82395837  0.24440785  1
  Cu  Cu100  1  0.00153701  0.00006635  0.49906634  1
  Cu  Cu101  1  0.83254782  0.82977516  0.75562834  1
  Cu  Cu102  1  0.66624534  0.65923203  -0.00539465  1
  Cu  Cu103  1  0.66645712  0.00459590  0.50095795  1
  Cu  Cu104  1  0.00199570  0.00074120  0.00499859  1
  Cu  Cu105  1  0.83884606  0.49404019  0.25165688  1
  Cu  Cu106  1  0.16741715  0.50430576  0.25083951  1
  Cu  Cu107  1  0.15913493  0.16883036  0.74147871  1
  Cu  Cu108  1  0.33517585  0.01238886  -0.00075570  1
  Cu  Cu109  1  0.83112615  0.50421178  0.75180306  1
  Cu  Cu110  1  0.00103985  0.32786927  0.00024926  1
  Cu  Cu111  1  0.83675609  0.17251840  0.25529290  1
  Cu  Cu112  1  0.50376712  0.17538577  0.25348274  1
  Cu  Cu113  1  0.50438611  0.82860058  0.76265114  1
  Cu  Cu114  1  0.83183067  0.17764201  0.74705187  1
  Se  Se115  1  0.08336215  0.08902405  0.05416918  1
  Se  Se116  1  0.07994339  0.08623729  0.55438656  1
  Se  Se117  1  0.08173091  0.40862267  0.06085143  1
  Se  Se118  1  0.06817918  0.40989157  0.55565730  1
  Se  Se119  1  0.07232524  0.74084933  0.05542474  1
  Se  Se120  1  0.08816783  0.74923244  0.55099823  1
  Se  Se121  1  0.42068215  0.09351352  0.05254103  1
  Se  Se122  1  0.40729003  0.05524727  0.55557333  1
  Se  Se123  1  0.41757562  0.41963624  0.05029575  1
  Se  Se124  1  0.40591820  0.40648232  0.55866446  1
  Se  Se125  1  0.41850138  0.75237084  0.05127981  1
  Se  Se126  1  0.41341843  0.74028708  0.55979875  1
  Se  Se127  1  0.73919969  0.07586481  0.05860688  1
  Se  Se128  1  0.75089567  0.08448660  0.55481911  1
  Se  Se129  1  0.75552752  0.41239512  0.05173089  1
  Se  Se130  1  0.74212371  0.42397069  0.55431802  1
  Se  Se131  1  0.74970019  0.74324682  0.04800699  1
  Se  Se132  1  0.74548209  0.75045446  0.56403921  1
  Se  Se133  1  0.24902918  0.24875765  0.05465100  1
  Se  Se134  1  0.24852588  0.25292091  0.54513111  1
  Se  Se135  1  0.25135411  0.59010172  0.05761382  1
  Se  Se136  1  0.25229452  0.58232357  0.55644208  1
  Se  Se137  1  0.25933244  0.93058944  0.06362178  1
  Se  Se138  1  0.24846641  0.90484083  0.54547768  1
  Se  Se139  1  0.58667275  0.25238130  0.05415980  1
  Se  Se140  1  0.57148783  0.23513725  0.55277839  1
  Se  Se141  1  0.58271263  0.57968957  0.05245061  1
  Se  Se142  1  0.58844655  0.58725596  0.56978185  1
  Se  Se143  1  0.58367181  0.91716785  0.04455503  1
  Se  Se144  1  0.59442700  0.91410173  0.55890261  1
  Se  Se145  1  0.91927805  0.25062937  0.06280681  1
  Se  Se146  1  0.89236301  0.24441581  0.54533448  1
  Se  Se147  1  0.91479140  0.56484453  0.04768183  1
  Se  Se148  1  0.91540689  0.59027535  0.55572598  1
  Se  Se149  1  0.91710888  0.91725242  0.05508903  1
  Se  Se150  1  0.92358581  0.92499116  0.56602518  1
  Se  Se151  1  0.08906462  0.24117451  0.45228695  1
  Se  Se152  1  0.08398435  0.24440939  0.94765638  1
  Se  Se153  1  0.07762149  0.58811127  0.43433349  1
  Se  Se154  1  0.07354873  0.59217175  0.94282813  1
  Se  Se155  1  0.07813129  0.91059059  0.44639432  1
  Se  Se156  1  0.08177525  0.92426298  0.93943958  1
  Se  Se157  1  0.42286646  0.25037157  0.45353742  1
  Se  Se158  1  0.41650943  0.24985683  0.94587332  1
  Se  Se159  1  0.41651807  0.58543072  0.44357916  1
  Se  Se160  1  0.41655887  0.58048224  0.94777050  1
  Se  Se161  1  0.41010119  0.92431642  0.43106990  1
  Se  Se162  1  0.41368561  0.91844512  0.95246450  1
  Se  Se163  1  0.77272780  0.24285406  0.45556050  1
  Se  Se164  1  0.74775188  0.25583056  0.93423978  1
  Se  Se165  1  0.75716579  0.58316100  0.45530530  1
  Se  Se166  1  0.75236506  0.57572766  0.94446999  1
  Se  Se167  1  0.74310773  0.92200347  0.43912102  1
  Se  Se168  1  0.74113073  0.92132995  0.95164786  1
  Se  Se169  1  0.25169469  0.07408377  0.45638791  1
  Se  Se170  1  0.24839919  0.09215334  0.94718607  1
  Se  Se171  1  0.26357292  0.40854339  0.43942800  1
  Se  Se172  1  0.25788410  0.40540671  0.93546670  1
  Se  Se173  1  0.24847954  0.74787532  0.44310675  1
  Se  Se174  1  0.24971895  0.74605262  0.93949521  1
  Se  Se175  1  0.58204220  0.08727285  0.44839332  1
  Se  Se176  1  0.57753547  0.10461313  0.94432062  1
  Se  Se177  1  0.59470337  0.40669179  0.44344623  1
  Se  Se178  1  0.58289584  0.41761438  0.94572755  1
  Se  Se179  1  0.58821919  0.73720270  0.44541030  1
  Se  Se180  1  0.58226902  0.74709868  0.94597986  1
  Se  Se181  1  0.91486831  0.08080032  0.44778845  1
  Se  Se182  1  0.92246314  0.07483787  0.93816447  1
  Se  Se183  1  0.91371406  0.43064432  0.44349992  1
  Se  Se184  1  0.91944280  0.41186013  0.94633607  1
  Se  Se185  1  0.92313145  0.74640987  0.43796714  1
  Se  Se186  1  0.90589025  0.75579665  0.95074198  1
  Se  Se187  1  0.24759595  0.24059001  0.31295503  1
  Se  Se188  1  0.24278925  0.24425210  0.80450465  1
  Se  Se189  1  0.25367148  0.59120170  0.29713511  1
  Se  Se190  1  0.24688557  0.58308041  0.79964746  1
  Se  Se191  1  0.23758272  0.91495853  0.31348767  1
  Se  Se192  1  0.24501571  0.90931415  0.80406602  1
  Se  Se193  1  0.59117595  0.25164320  0.30835653  1
  Se  Se194  1  0.58469919  0.25488888  0.79772737  1
  Se  Se195  1  0.58591976  0.57816757  0.31371246  1
  Se  Se196  1  0.58221935  0.58293760  0.80694729  1
  Se  Se197  1  0.57255331  0.91143016  0.30060666  1
  Se  Se198  1  0.58749428  0.91651630  0.81164586  1
  Se  Se199  1  0.92049646  0.25428590  0.30948723  1
  Se  Se200  1  0.91978353  0.25751784  0.79865110  1
  Se  Se201  1  0.91933802  0.58654501  0.29878447  1
  Se  Se202  1  0.91663979  0.58563071  0.80538315  1
  Se  Se203  1  0.91062085  0.91273735  0.29651220  1
  Se  Se204  1  0.91328221  0.91372079  0.81344937  1
  Se  Se205  1  0.07449584  0.08012008  0.31076862  1
  Se  Se206  1  0.08593157  0.08751789  0.80591006  1
  Se  Se207  1  0.09270174  0.41307270  0.30348234  1
  Se  Se208  1  0.07753498  0.41687753  0.80234304  1
  Se  Se209  1  0.07804481  0.74770586  0.29860173  1
  Se  Se210  1  0.07829581  0.75080059  0.80143321  1
  Se  Se211  1  0.41669882  0.10029306  0.31084044  1
  Se  Se212  1  0.42735812  0.07819949  0.81283503  1
  Se  Se213  1  0.43006479  0.42900647  0.31047157  1
  Se  Se214  1  0.41814607  0.41560969  0.81092861  1
  Se  Se215  1  0.41854444  0.75445263  0.29502372  1
  Se  Se216  1  0.41298998  0.74658779  0.80781173  1
  Se  Se217  1  0.75235414  0.09330299  0.31513998  1
  Se  Se218  1  0.75521127  0.08680185  0.79938008  1
  Se  Se219  1  0.75343138  0.41465258  0.30617514  1
  Se  Se220  1  0.74592944  0.41684427  0.80046256  1
  Se  Se221  1  0.75268642  0.75198344  0.31103974  1
  Se  Se222  1  0.74989085  0.74578296  0.80873380  1
  Se  Se223  1  0.23993221  0.09164292  0.19577441  1
  Se  Se224  1  0.24916059  0.09594926  0.68559309  1
  Se  Se225  1  0.24790969  0.42642237  0.18756412  1
  Se  Se226  1  0.23506827  0.42367159  0.68493099  1
  Se  Se227  1  0.24725869  0.75457587  0.19588878  1
  Se  Se228  1  0.25436597  0.74609583  0.69464009  1
  Se  Se229  1  0.57748354  0.09318446  0.19028218  1
  Se  Se230  1  0.59211738  0.08175250  0.69741405  1
  Se  Se231  1  0.59116884  0.41655301  0.19472275  1
  Se  Se232  1  0.57327531  0.41355152  0.69732584  1
  Se  Se233  1  0.57910127  0.76032881  0.18980034  1
  Se  Se234  1  0.58709003  0.74496665  0.70794194  1
  Se  Se235  1  0.91283844  0.08255475  0.20176221  1
  Se  Se236  1  0.91245430  0.09485564  0.68752209  1
  Se  Se237  1  0.92357475  0.40919117  0.19984975  1
  Se  Se238  1  0.90890110  0.42059378  0.69219698  1
  Se  Se239  1  0.91407481  0.74305069  0.19011555  1
  Se  Se240  1  0.91718518  0.75225021  0.69851164  1
  Se  Se241  1  0.07825508  0.25051902  0.20124244  1
  Se  Se242  1  0.07427960  0.25292744  0.69153735  1
  Se  Se243  1  0.08092863  0.58279699  0.19603289  1
  Se  Se244  1  0.07688046  0.58792594  0.69509283  1
  Se  Se245  1  0.07604202  0.91959621  0.19821326  1
  Se  Se246  1  0.09790937  0.91602462  0.68388383  1
  Se  Se247  1  0.42223062  0.25307054  0.19166841  1
  Se  Se248  1  0.41928244  0.23337652  0.69016579  1
  Se  Se249  1  0.42366220  0.58857119  0.19554299  1
  Se  Se250  1  0.41147530  0.58477927  0.70407078  1
  Se  Se251  1  0.42403410  0.92019214  0.18751468  1
  Se  Se252  1  0.43031378  0.90305020  0.69165737  1
  Se  Se253  1  0.75006976  0.25297374  0.20234671  1
  Se  Se254  1  0.74649801  0.25684920  0.69188089  1
  Se  Se255  1  0.76294286  0.57406224  0.18637727  1
  Se  Se256  1  0.74347390  0.58975989  0.70288084  1
  Se  Se257  1  0.75224766  0.90740230  0.18571720  1
  Se  Se258  1  0.75006149  0.91834478  0.70621846  1
