# generated using pymatgen
data_In86Cu29Se144
_symmetry_space_group_name_H-M   'P 1'
_cell_length_a   17.58930823
_cell_length_b   17.58770091
_cell_length_c   23.44526232
_cell_angle_alpha   90.02684620
_cell_angle_beta   89.98549606
_cell_angle_gamma   90.00992180
_symmetry_Int_Tables_number   1
_chemical_formula_structural   In86Cu29Se144
_chemical_formula_sum   'In86 Cu29 Se144'
_cell_volume   7252.91953047
_cell_formula_units_Z   1
loop_
 _symmetry_equiv_pos_site_id
 _symmetry_equiv_pos_as_xyz
  1  'x, y, z'
loop_
 _atom_site_type_symbol
 _atom_site_label
 _atom_site_symmetry_multiplicity
 _atom_site_fract_x
 _atom_site_fract_y
 _atom_site_fract_z
 _atom_site_occupancy
  In  In0  1  -0.01402774  0.17089952  0.12900796  1
  In  In1  1  0.01413934  0.16738807  0.62017456  1
  In  In2  1  0.00165212  0.51320529  0.11376964  1
  In  In3  1  -0.01371042  0.50290097  0.62850556  1
  In  In4  1  0.00889956  0.82032604  0.13202378  1
  In  In5  1  0.00323583  0.83379384  0.61285090  1
  In  In6  1  0.33216985  0.17022536  0.13346626  1
  In  In7  1  0.33945711  0.18334037  0.61139289  1
  In  In8  1  0.33157460  0.49040877  0.11830222  1
  In  In9  1  0.33400632  0.48578976  0.62248500  1
  In  In10  1  0.33072069  0.84180529  0.12955782  1
  In  In11  1  0.32710778  0.84405748  0.61942512  1
  In  In12  1  0.67337306  0.16282645  0.13313875  1
  In  In13  1  0.65299182  0.16549503  0.62136312  1
  In  In14  1  0.66490123  0.49805333  0.12248561  1
  In  In15  1  0.67290739  0.50646491  0.61731589  1
  In  In16  1  0.67144150  0.82748472  0.13751054  1
  In  In17  1  0.67663183  0.82493491  0.62923956  1
  In  In18  1  0.16567003  -0.00049632  0.36838504  1
  In  In19  1  0.15972787  -0.00185125  0.87769335  1
  In  In20  1  0.17388193  0.32172247  0.37650209  1
  In  In21  1  0.17694414  0.34377281  0.86326117  1
  In  In22  1  0.15954198  0.68085138  0.37766931  1
  In  In23  1  0.15982533  0.66798164  0.88788083  1
  In  In24  1  0.51356355  0.01486829  0.37135710  1
  In  In25  1  0.50649297  -0.01179957  0.87233110  1
  In  In26  1  0.50056170  0.32902060  0.37455164  1
  In  In27  1  0.49716813  0.34737347  0.87425235  1
  In  In28  1  0.50358841  0.64924468  0.37606664  1
  In  In29  1  0.50362203  0.65171003  0.87603114  1
  In  In30  1  0.81931854  -0.01681764  0.37089949  1
  In  In31  1  0.83110936  0.00819182  0.87627746  1
  In  In32  1  0.83191862  0.35274420  0.37535806  1
  In  In33  1  0.83792474  0.32727977  0.87883632  1
  In  In34  1  0.83466838  0.67009212  0.36885593  1
  In  In35  1  0.82353228  0.66358903  0.88019143  1
  In  In36  1  0.01708670  0.16600726  0.37519592  1
  In  In37  1  -0.01334172  0.16313623  0.87640291  1
  In  In38  1  -0.01393710  0.50379520  0.37352098  1
  In  In39  1  0.01204341  0.49100179  0.88722141  1
  In  In40  1  -0.00649284  0.83275382  0.37162891  1
  In  In41  1  0.00699281  0.83467890  0.87989364  1
  In  In42  1  0.33933543  0.16826600  0.37323665  1
  In  In43  1  0.32082654  0.17465509  0.87448328  1
  In  In44  1  0.34776294  0.49224485  0.37800228  1
  In  In45  1  0.33523408  0.48828346  0.88657736  1
  In  In46  1  0.31645711  0.83694013  0.37762750  1
  In  In47  1  0.33020692  0.82604057  0.87671034  1
  In  In48  1  0.65281240  0.15544346  0.37403644  1
  In  In49  1  0.67750416  0.16830604  0.87413552  1
  In  In50  1  0.66919737  0.50069021  0.36752788  1
  In  In51  1  0.66421421  0.51084548  0.88902650  1
  In  In52  1  0.68176628  0.84284509  0.37013573  1
  In  In53  1  0.66857156  0.82891834  0.86830785  1
  In  In54  1  0.17095838  -0.00848290  0.13525198  1
  In  In55  1  0.16041766  0.00007527  0.61465614  1
  In  In56  1  0.17279340  0.34755516  0.12562194  1
  In  In57  1  0.17529525  0.32905670  0.63285201  1
  In  In58  1  0.15171195  0.65901790  0.11621285  1
  In  In59  1  0.15882593  0.68078020  0.62441674  1
  In  In60  1  0.50122549  -0.00077002  0.13758796  1
  In  In61  1  0.49826383  0.01260570  0.62164268  1
  In  In62  1  0.49142832  0.34779529  0.12879645  1
  In  In63  1  0.48860489  0.32818855  0.61227333  1
  In  In64  1  0.51388335  0.65580198  0.12741715  1
  In  In65  1  0.52046299  0.66945674  0.62123101  1
  In  In66  1  0.82760531  0.00758018  0.13570868  1
  In  In67  1  0.83327540  -0.01399844  0.62042327  1
  In  In68  1  0.82823510  0.32489179  0.12118640  1
  In  In69  1  0.82771291  0.34990537  0.62406541  1
  In  In70  1  0.83337857  0.65715863  0.12472554  1
  In  In71  1  0.82989117  0.65465368  0.61677291  1
  In  In72  1  0.50407432  0.17268190  -0.00439915  1
  In  In73  1  0.33503000  0.66122841  0.75135855  1
  In  In74  1  0.66427630  0.33651292  0.74884462  1
  In  In75  1  0.00313252  0.33665068  0.24874958  1
  In  In76  1  0.49725497  0.82609304  0.00051601  1
  In  In77  1  0.83777797  0.82367546  0.01012393  1
  In  In78  1  0.33094547  0.66666761  0.25674488  1
  In  In79  1  0.50049961  0.83508679  0.49896603  1
  In  In80  1  0.16695903  0.49847041  0.49577043  1
  In  In81  1  0.15887130  0.17685189  0.01075076  1
  In  In82  1  -0.00188320  0.66769340  0.75542429  1
  In  In83  1  0.83148321  0.16587035  0.49802620  1
  In  In84  1  0.33428881  0.00614710  0.74799986  1
  In  In85  1  -0.00059701  0.00126010  0.74278798  1
  Cu  Cu86  1  0.49576154  0.16928724  0.74145446  1
  Cu  Cu87  1  -0.00137053  -0.00462134  0.00102855  1
  Cu  Cu88  1  0.00064577  -0.00348304  0.49232372  1
  Cu  Cu89  1  0.50500664  0.49432360  0.25163170  1
  Cu  Cu90  1  0.66233963  0.33969659  0.49546469  1
  Cu  Cu91  1  0.67039492  0.33271591  0.00098132  1
  Cu  Cu92  1  0.32641064  0.66435590  0.00185847  1
  Cu  Cu93  1  0.50318526  0.49933758  0.75126524  1
  Cu  Cu94  1  -0.00318525  0.33182037  0.00123756  1
  Cu  Cu95  1  0.50288758  0.16962291  0.25149980  1
  Cu  Cu96  1  0.00126892  0.33973978  0.49704334  1
  Cu  Cu97  1  0.82967318  0.50181148  0.74936984  1
  Cu  Cu98  1  0.67354932  -0.00492341  0.00857990  1
  Cu  Cu99  1  0.15974222  0.83277247  0.25230064  1
  Cu  Cu100  1  0.17488207  0.16350449  0.25249987  1
  Cu  Cu101  1  0.32865374  0.00362399  0.01032404  1
  Cu  Cu102  1  0.82993044  0.16531570  0.75317880  1
  Cu  Cu103  1  0.16518702  0.49624523  0.75559586  1
  Cu  Cu104  1  0.32570554  0.00666640  0.49478960  1
  Cu  Cu105  1  0.16888650  0.50387146  0.24562604  1
  Cu  Cu106  1  0.33031578  0.66414784  0.49511230  1
  Cu  Cu107  1  0.83027277  0.50272731  0.24630707  1
  Cu  Cu108  1  0.83292814  0.82982338  0.74802745  1
  Cu  Cu109  1  0.49965473  0.83407020  0.25364359  1
  Cu  Cu110  1  0.83413975  0.83349772  0.24918399  1
  Cu  Cu111  1  0.51258647  0.83153732  0.74710504  1
  Cu  Cu112  1  0.67368979  0.66351026  0.49399201  1
  Cu  Cu113  1  0.83398697  0.16707781  0.25486799  1
  Cu  Cu114  1  0.16853753  0.17469717  0.74360543  1
  Se  Se115  1  0.07522740  0.07633197  0.06540674  1
  Se  Se116  1  0.08146164  0.08366317  0.54462093  1
  Se  Se117  1  0.08049131  0.41323896  0.05562248  1
  Se  Se118  1  0.07959287  0.41488571  0.56348991  1
  Se  Se119  1  0.08565674  0.75804567  0.05157390  1
  Se  Se120  1  0.08632796  0.75092363  0.54700855  1
  Se  Se121  1  0.41800895  0.08124208  0.06155866  1
  Se  Se122  1  0.41296799  0.08365206  0.55018095  1
  Se  Se123  1  0.42438133  0.42216593  0.04941306  1
  Se  Se124  1  0.42061027  0.42536490  0.54771577  1
  Se  Se125  1  0.40833748  0.74009858  0.06510844  1
  Se  Se126  1  0.41019392  0.74222777  0.56030445  1
  Se  Se127  1  0.75264803  0.08430115  0.05858355  1
  Se  Se128  1  0.74335172  0.07655776  0.55806549  1
  Se  Se129  1  0.75300317  0.41606779  0.05482850  1
  Se  Se130  1  0.75074713  0.42043219  0.54705448  1
  Se  Se131  1  0.73385227  0.74036754  0.05942699  1
  Se  Se132  1  0.75033107  0.74700938  0.55301108  1
  Se  Se133  1  0.26344211  0.26131427  0.05837609  1
  Se  Se134  1  0.23191992  0.24487964  0.55376095  1
  Se  Se135  1  0.24649548  0.57861833  0.05574352  1
  Se  Se136  1  0.25231794  0.58972843  0.56245089  1
  Se  Se137  1  0.24593477  0.91568495  0.05727876  1
  Se  Se138  1  0.24601051  0.91826452  0.54695367  1
  Se  Se139  1  0.59036718  0.25398352  0.06304633  1
  Se  Se140  1  0.58433449  0.25201708  0.54913962  1
  Se  Se141  1  0.57583997  0.57220991  0.05199933  1
  Se  Se142  1  0.58594864  0.58343084  0.54672029  1
  Se  Se143  1  0.58607135  0.91756594  0.06290789  1
  Se  Se144  1  0.58823183  0.91741930  0.56415789  1
  Se  Se145  1  0.91394060  0.24487032  0.05112666  1
  Se  Se146  1  0.91999419  0.25905611  0.55900826  1
  Se  Se147  1  0.90989335  0.58613686  0.04710374  1
  Se  Se148  1  0.92814373  0.58805252  0.55233387  1
  Se  Se149  1  0.91990144  0.92222793  0.06746433  1
  Se  Se150  1  0.91676417  0.91569713  0.54691764  1
  Se  Se151  1  0.08474702  0.25323693  0.44876315  1
  Se  Se152  1  0.07707103  0.25463103  0.93731807  1
  Se  Se153  1  0.07387215  0.58946558  0.44153051  1
  Se  Se154  1  0.08191257  0.58321315  0.95420712  1
  Se  Se155  1  0.08429499  0.91509064  0.43711995  1
  Se  Se156  1  0.08679039  0.91607191  0.95094653  1
  Se  Se157  1  0.42475700  0.24264825  0.44418109  1
  Se  Se158  1  0.40680190  0.25974585  0.94150064  1
  Se  Se159  1  0.41820665  0.58011912  0.45009643  1
  Se  Se160  1  0.41263753  0.58596434  0.94679596  1
  Se  Se161  1  0.41084351  0.92449703  0.43815204  1
  Se  Se162  1  0.40695391  0.92648272  0.94524055  1
  Se  Se163  1  0.74494027  0.25767601  0.43677421  1
  Se  Se164  1  0.75187761  0.24616893  0.94808483  1
  Se  Se165  1  0.75386943  0.58121481  0.43709777  1
  Se  Se166  1  0.75942731  0.57918769  0.95550195  1
  Se  Se167  1  0.74838079  0.91459153  0.45165028  1
  Se  Se168  1  0.74856017  0.91452328  0.94450545  1
  Se  Se169  1  0.24550039  0.08667834  0.43677379  1
  Se  Se170  1  0.24988310  0.08186871  0.94785383  1
  Se  Se171  1  0.26192633  0.40470835  0.44609839  1
  Se  Se172  1  0.23668552  0.41502890  0.94706673  1
  Se  Se173  1  0.24538626  0.75207752  0.45078489  1
  Se  Se174  1  0.24923833  0.75440010  0.95006635  1
  Se  Se175  1  0.58450767  0.08068145  0.45338578  1
  Se  Se176  1  0.59351567  0.07080922  0.94378446  1
  Se  Se177  1  0.58353913  0.42187883  0.43773434  1
  Se  Se178  1  0.58468816  0.41275964  0.94731136  1
  Se  Se179  1  0.58911828  0.74526903  0.43738879  1
  Se  Se180  1  0.59190506  0.74150516  0.94213577  1
  Se  Se181  1  0.91986305  0.07935405  0.43434685  1
  Se  Se182  1  0.91463314  0.07970190  0.95022018  1
  Se  Se183  1  0.91476441  0.42356642  0.45002681  1
  Se  Se184  1  0.91340244  0.41501346  0.94797539  1
  Se  Se185  1  0.90178042  0.76155343  0.43998182  1
  Se  Se186  1  0.92560033  0.74214954  0.94259503  1
  Se  Se187  1  0.25627078  0.25201793  0.30158359  1
  Se  Se188  1  0.25586401  0.25413898  0.79630391  1
  Se  Se189  1  0.24257152  0.57551845  0.31762037  1
  Se  Se190  1  0.24276092  0.57973210  0.81541155  1
  Se  Se191  1  0.24992121  0.91540650  0.29896043  1
  Se  Se192  1  0.24593267  0.91418145  0.80772438  1
  Se  Se193  1  0.58830584  0.25121090  0.30445761  1
  Se  Se194  1  0.57413661  0.24424939  0.80925518  1
  Se  Se195  1  0.58581639  0.58554646  0.29826657  1
  Se  Se196  1  0.58957212  0.57731295  0.80541996  1
  Se  Se197  1  0.58445977  0.91702995  0.30635278  1
  Se  Se198  1  0.59205989  0.91858458  0.80028368  1
  Se  Se199  1  0.91485777  0.24964244  0.31401164  1
  Se  Se200  1  0.91504412  0.24805520  0.80340826  1
  Se  Se201  1  0.91648733  0.58480887  0.29793513  1
  Se  Se202  1  0.91251536  0.57403083  0.81389842  1
  Se  Se203  1  0.91573918  0.91971865  0.30108830  1
  Se  Se204  1  0.91316807  0.91076008  0.80862630  1
  Se  Se205  1  0.08262869  0.08345518  0.29827068  1
  Se  Se206  1  0.09075893  0.09260046  0.80524912  1
  Se  Se207  1  0.09228618  0.42389584  0.31224375  1
  Se  Se208  1  0.07405597  0.41522468  0.80347252  1
  Se  Se209  1  0.07636006  0.74660246  0.30160983  1
  Se  Se210  1  0.09558211  0.75799345  0.80793700  1
  Se  Se211  1  0.41925861  0.08302002  0.30261745  1
  Se  Se212  1  0.42481429  0.09281789  0.81300605  1
  Se  Se213  1  0.41803726  0.41218434  0.30233883  1
  Se  Se214  1  0.41280763  0.42317946  0.80353818  1
  Se  Se215  1  0.42160600  0.75606046  0.31730303  1
  Se  Se216  1  0.42963938  0.75601492  0.80871637  1
  Se  Se217  1  0.74953115  0.08405293  0.30797978  1
  Se  Se218  1  0.74673799  0.07911924  0.80201512  1
  Se  Se219  1  0.74973762  0.41488891  0.29691088  1
  Se  Se220  1  0.75176547  0.42170118  0.81283921  1
  Se  Se221  1  0.74713315  0.74918907  0.29926313  1
  Se  Se222  1  0.75403490  0.74452995  0.80329117  1
  Se  Se223  1  0.25664705  0.07848303  0.19864754  1
  Se  Se224  1  0.24490665  0.08975808  0.68386247  1
  Se  Se225  1  0.25631302  0.41954109  0.19928032  1
  Se  Se226  1  0.25263717  0.41916903  0.70017507  1
  Se  Se227  1  0.24108389  0.74975209  0.19191723  1
  Se  Se228  1  0.24942779  0.75900584  0.69494197  1
  Se  Se229  1  0.58750595  0.08265605  0.20122489  1
  Se  Se230  1  0.58211064  0.08274476  0.69705133  1
  Se  Se231  1  0.58881578  0.41307458  0.19618432  1
  Se  Se232  1  0.57733727  0.42123179  0.68420870  1
  Se  Se233  1  0.57816228  0.74783042  0.19964117  1
  Se  Se234  1  0.59385871  0.74220411  0.69933574  1
  Se  Se235  1  0.91904916  0.08471983  0.20307769  1
  Se  Se236  1  0.90822166  0.09236534  0.68499457  1
  Se  Se237  1  0.91415735  0.42261340  0.18610729  1
  Se  Se238  1  0.91316749  0.41557648  0.69988085  1
  Se  Se239  1  0.91048955  0.74660595  0.19313065  1
  Se  Se240  1  0.91522009  0.75416504  0.68731545  1
  Se  Se241  1  0.09502361  0.24412905  0.18967660  1
  Se  Se242  1  0.07653174  0.25427212  0.69614715  1
  Se  Se243  1  0.08038699  0.58112324  0.19405929  1
  Se  Se244  1  0.09149220  0.57898403  0.69368664  1
  Se  Se245  1  0.07631175  0.91730279  0.19985147  1
  Se  Se246  1  0.09141316  0.90821001  0.68993548  1
  Se  Se247  1  0.42072695  0.25254088  0.19634530  1
  Se  Se248  1  0.41402092  0.25477886  0.69127162  1
  Se  Se249  1  0.41811950  0.57648487  0.19497050  1
  Se  Se250  1  0.42718844  0.57984162  0.68702082  1
  Se  Se251  1  0.41401526  0.91582752  0.20191138  1
  Se  Se252  1  0.42611461  0.90934756  0.69118442  1
  Se  Se253  1  0.75393275  0.25136181  0.19996243  1
  Se  Se254  1  0.75318971  0.24446321  0.68815713  1
  Se  Se255  1  0.74360896  0.58407301  0.19384042  1
  Se  Se256  1  0.74912608  0.58386166  0.69363777  1
  Se  Se257  1  0.74633230  0.92043966  0.20187291  1
  Se  Se258  1  0.75194736  0.91772128  0.69732911  1
