# generated using pymatgen
data_In86Cu29Se144
_symmetry_space_group_name_H-M   'P 1'
_cell_length_a   17.58282514
_cell_length_b   17.58029977
_cell_length_c   23.44393401
_cell_angle_alpha   90.00951205
_cell_angle_beta   90.04203678
_cell_angle_gamma   89.99411920
_symmetry_Int_Tables_number   1
_chemical_formula_structural   In86Cu29Se144
_chemical_formula_sum   'In86 Cu29 Se144'
_cell_volume   7246.78369470
_cell_formula_units_Z   1
loop_
 _symmetry_equiv_pos_site_id
 _symmetry_equiv_pos_as_xyz
  1  'x, y, z'
loop_
 _atom_site_type_symbol
 _atom_site_label
 _atom_site_symmetry_multiplicity
 _atom_site_fract_x
 _atom_site_fract_y
 _atom_site_fract_z
 _atom_site_occupancy
  In  In0  1  -0.00975679  0.15608077  0.11240473  1
  In  In1  1  -0.00949265  0.15109928  0.65318574  1
  In  In2  1  0.00358466  0.51322765  0.12235712  1
  In  In3  1  -0.00019442  0.51922337  0.64414244  1
  In  In4  1  0.00348082  0.83135284  0.11952851  1
  In  In5  1  -0.00648330  0.83998626  0.63131234  1
  In  In6  1  0.33345786  0.16442124  0.12260053  1
  In  In7  1  0.33752317  0.14952028  0.62331362  1
  In  In8  1  0.31525316  0.49970490  0.13433792  1
  In  In9  1  0.33625601  0.51104776  0.62343876  1
  In  In10  1  0.34049369  0.84489005  0.11644333  1
  In  In11  1  0.32892533  0.82286703  0.61051218  1
  In  In12  1  0.66543362  0.16781824  0.11014767  1
  In  In13  1  0.66443257  0.17013809  0.63893031  1
  In  In14  1  0.66826956  0.49299185  0.11719360  1
  In  In15  1  0.66218761  0.49556379  0.63655587  1
  In  In16  1  0.66682063  0.83599257  0.11339557  1
  In  In17  1  0.66517654  0.82930150  0.62832218  1
  In  In18  1  0.16111194  -0.01423893  0.36479979  1
  In  In19  1  0.15902366  0.00660563  0.88142934  1
  In  In20  1  0.17489203  0.31819605  0.37515146  1
  In  In21  1  0.14849227  0.33254862  0.87546691  1
  In  In22  1  0.17326264  0.68970124  0.37503339  1
  In  In23  1  0.18030712  0.67608512  0.85173206  1
  In  In24  1  0.49804670  0.00601364  0.38025443  1
  In  In25  1  0.51266585  -0.01525543  0.87506992  1
  In  In26  1  0.48406706  0.33817262  0.37558948  1
  In  In27  1  0.50159314  0.31738652  0.87808361  1
  In  In28  1  0.49919617  0.66688867  0.37987175  1
  In  In29  1  0.51545674  0.69914695  0.84795740  1
  In  In30  1  0.83256368  -0.01437326  0.37276994  1
  In  In31  1  0.83342626  -0.00063676  0.87290642  1
  In  In32  1  0.83217228  0.34032678  0.37316339  1
  In  In33  1  0.83660734  0.33023844  0.87280957  1
  In  In34  1  0.84835094  0.67096634  0.37585606  1
  In  In35  1  0.83664582  0.66687658  0.87751824  1
  In  In36  1  0.01744271  0.16359998  0.37399332  1
  In  In37  1  -0.00583463  0.16697804  0.87647478  1
  In  In38  1  -0.01491422  0.50714030  0.37587048  1
  In  In39  1  0.00365244  0.49052919  0.86654117  1
  In  In40  1  0.00361324  0.83711465  0.37526352  1
  In  In41  1  0.00415683  0.82759865  0.87314917  1
  In  In42  1  0.33939392  0.17052186  0.36819647  1
  In  In43  1  0.33934391  0.15865093  0.88840261  1
  In  In44  1  0.33980161  0.49450847  0.36845456  1
  In  In45  1  0.32133114  0.51722052  0.87539277  1
  In  In46  1  0.32159359  0.83982956  0.38400885  1
  In  In47  1  0.33266609  0.83165014  0.87273838  1
  In  In48  1  0.66601665  0.14828775  0.37676954  1
  In  In49  1  0.67178505  0.16377404  0.86708153  1
  In  In50  1  0.65969651  0.50046761  0.37575244  1
  In  In51  1  0.68190193  0.51210370  0.86982269  1
  In  In52  1  0.66968560  0.83332164  0.38631717  1
  In  In53  1  0.66590035  0.84000192  0.86677581  1
  In  In54  1  0.16662529  -0.00363240  0.11930698  1
  In  In55  1  0.16333006  -0.01837106  0.63259975  1
  In  In56  1  0.17879873  0.33540915  0.12618282  1
  In  In57  1  0.15684511  0.32189411  0.62899934  1
  In  In58  1  0.15538523  0.65951942  0.12257036  1
  In  In59  1  0.15466058  0.69108370  0.64500297  1
  In  In60  1  0.49360201  -0.00435766  0.11889842  1
  In  In61  1  0.50462888  0.00227565  0.61952259  1
  In  In62  1  0.49952825  0.32468921  0.12387364  1
  In  In63  1  0.51155748  0.32907562  0.62861845  1
  In  In64  1  0.48671154  0.67659536  0.12127829  1
  In  In65  1  0.47935132  0.69396092  0.65306076  1
  In  In66  1  0.84043631  0.00552520  0.11503189  1
  In  In67  1  0.85020480  -0.00930235  0.64517774  1
  In  In68  1  0.83169751  0.33339580  0.10968110  1
  In  In69  1  0.83533268  0.32917209  0.64274520  1
  In  In70  1  0.84406706  0.68097488  0.11075945  1
  In  In71  1  0.82244688  0.67905723  0.63563167  1
  In  In72  1  0.83377341  0.15520884  0.50993653  1
  In  In73  1  0.49798276  0.50574743  -0.00141266  1
  In  In74  1  0.33179689  -0.00879682  0.75104549  1
  In  In75  1  0.82426841  0.51109079  0.51930190  1
  In  In76  1  0.66678098  -0.00473847  0.24025893  1
  In  In77  1  0.65982844  0.33165837  0.24215837  1
  In  In78  1  0.16382542  0.50007301  0.00023632  1
  In  In79  1  0.50031157  0.50765724  0.49844831  1
  In  In80  1  0.01121721  0.33600766  0.24509899  1
  In  In81  1  0.32515066  0.66614466  0.25219864  1
  In  In82  1  0.16579340  0.51170794  0.50497078  1
  In  In83  1  0.66598215  0.66322440  0.25565622  1
  In  In84  1  0.16961323  0.15748675  0.50381787  1
  In  In85  1  0.33142848  0.33840669  0.75460556  1
  Cu  Cu86  1  0.50384422  0.49557711  0.75608648  1
  Cu  Cu87  1  0.00481285  0.68517873  0.50263834  1
  Cu  Cu88  1  0.83444049  0.49361179  0.75555375  1
  Cu  Cu89  1  0.17011337  0.15409939  0.24561735  1
  Cu  Cu90  1  0.50302259  0.16262422  0.75070941  1
  Cu  Cu91  1  0.66764089  -0.00542101  0.50658972  1
  Cu  Cu92  1  0.00346137  0.66621444  -0.00716565  1
  Cu  Cu93  1  0.66635431  0.00080550  -0.00865644  1
  Cu  Cu94  1  0.84567115  0.16440209  0.24211987  1
  Cu  Cu95  1  -0.00786428  0.33794536  0.51218825  1
  Cu  Cu96  1  0.49940938  0.83453616  0.24916506  1
  Cu  Cu97  1  0.16519538  0.83508693  0.24641708  1
  Cu  Cu98  1  -0.00276252  -0.00635665  -0.00605284  1
  Cu  Cu99  1  -0.00542458  0.32783679  -0.00729209  1
  Cu  Cu100  1  0.66411714  0.31487424  0.50645768  1
  Cu  Cu101  1  0.00169510  -0.00290987  0.50635805  1
  Cu  Cu102  1  0.33047624  0.00168934  -0.00167866  1
  Cu  Cu103  1  0.84893359  0.82824271  0.24648678  1
  Cu  Cu104  1  0.33687190  0.67749156  -0.00756212  1
  Cu  Cu105  1  0.66496025  0.67537105  -0.01140739  1
  Cu  Cu106  1  0.83648377  0.51184187  0.24254122  1
  Cu  Cu107  1  0.83492273  0.83010144  0.75688515  1
  Cu  Cu108  1  0.33390498  0.33214454  0.00241568  1
  Cu  Cu109  1  0.34095642  0.32896227  0.49526423  1
  Cu  Cu110  1  0.16311211  0.16931356  0.75922362  1
  Cu  Cu111  1  0.33768967  -0.00327708  0.49784906  1
  Cu  Cu112  1  0.49332752  0.16898197  0.24943080  1
  Cu  Cu113  1  0.67129885  0.33571940  -0.00952768  1
  Cu  Cu114  1  0.66482783  0.66896578  0.50901338  1
  Se  Se115  1  0.08072214  0.07607709  0.04899975  1
  Se  Se116  1  0.07251514  0.08325332  0.56855824  1
  Se  Se117  1  0.07371537  0.40554234  0.05831842  1
  Se  Se118  1  0.07523714  0.42024642  0.56641779  1
  Se  Se119  1  0.08660365  0.74580857  0.05022661  1
  Se  Se120  1  0.08450053  0.76234671  0.56277460  1
  Se  Se121  1  0.41686767  0.08403860  0.05144507  1
  Se  Se122  1  0.41979219  0.08318715  0.54817148  1
  Se  Se123  1  0.40576651  0.41946987  0.06214895  1
  Se  Se124  1  0.41550727  0.40933823  0.55970253  1
  Se  Se125  1  0.42117212  0.75970759  0.04602028  1
  Se  Se126  1  0.42900889  0.74210148  0.55728503  1
  Se  Se127  1  0.74997627  0.08198982  0.04808045  1
  Se  Se128  1  0.74476944  0.07111576  0.57156235  1
  Se  Se129  1  0.75150981  0.42205980  0.04421362  1
  Se  Se130  1  0.74242694  0.40050736  0.56482254  1
  Se  Se131  1  0.75030714  0.75542127  0.04560083  1
  Se  Se132  1  0.75379583  0.75314412  0.55518231  1
  Se  Se133  1  0.24890204  0.24931347  0.05412953  1
  Se  Se134  1  0.26075159  0.25502243  0.56016934  1
  Se  Se135  1  0.26284050  0.59275036  0.05383793  1
  Se  Se136  1  0.24686773  0.60273205  0.56729676  1
  Se  Se137  1  0.24763358  0.91380657  0.04755381  1
  Se  Se138  1  0.24934955  0.92366485  0.55426063  1
  Se  Se139  1  0.58485349  0.25974150  0.04841699  1
  Se  Se140  1  0.57984466  0.23546778  0.55960118  1
  Se  Se141  1  0.59006345  0.59891444  0.05729646  1
  Se  Se142  1  0.58656449  0.58688617  0.56672332  1
  Se  Se143  1  0.58275283  0.92113576  0.04989292  1
  Se  Se144  1  0.58294457  0.90888438  0.55562893  1
  Se  Se145  1  0.91047161  0.24356014  0.04518444  1
  Se  Se146  1  0.92319021  0.24682973  0.57023801  1
  Se  Se147  1  0.92028403  0.58340297  0.04840911  1
  Se  Se148  1  0.92734433  0.60100058  0.56396651  1
  Se  Se149  1  0.91595878  0.91133787  0.05092535  1
  Se  Se150  1  0.91116910  0.92125194  0.55869475  1
  Se  Se151  1  0.07597434  0.25975577  0.45202921  1
  Se  Se152  1  0.08471510  0.24347954  0.94858210  1
  Se  Se153  1  0.07267620  0.59565718  0.44127796  1
  Se  Se154  1  0.08660797  0.58888882  0.93273222  1
  Se  Se155  1  0.08484857  0.92112315  0.44651581  1
  Se  Se156  1  0.08425776  0.91031817  0.94516833  1
  Se  Se157  1  0.42159373  0.24190695  0.44492336  1
  Se  Se158  1  0.42046906  0.24795182  0.95361758  1
  Se  Se159  1  0.39831573  0.59083866  0.44370407  1
  Se  Se160  1  0.41943401  0.59825908  0.93400372  1
  Se  Se161  1  0.42215915  0.91278953  0.44519240  1
  Se  Se162  1  0.41064589  0.92030870  0.94006745  1
  Se  Se163  1  0.74955241  0.24921554  0.44126894  1
  Se  Se164  1  0.75050397  0.24732808  0.93987190  1
  Se  Se165  1  0.74309737  0.59067502  0.44272052  1
  Se  Se166  1  0.75235462  0.58525726  0.94920288  1
  Se  Se167  1  0.75510980  0.91759961  0.45128611  1
  Se  Se168  1  0.74901581  0.91509866  0.94048185  1
  Se  Se169  1  0.25463298  0.07523596  0.43548138  1
  Se  Se170  1  0.24272332  0.08713088  0.95150781  1
  Se  Se171  1  0.25376384  0.41170441  0.44441118  1
  Se  Se172  1  0.25601248  0.40943483  0.94010342  1
  Se  Se173  1  0.24866667  0.75300996  0.45415643  1
  Se  Se174  1  0.24385541  0.74660478  0.93741417  1
  Se  Se175  1  0.58629608  0.07903867  0.45251272  1
  Se  Se176  1  0.58447505  0.08451946  0.93694805  1
  Se  Se177  1  0.59114048  0.40348092  0.44576251  1
  Se  Se178  1  0.58704437  0.41896051  0.93582636  1
  Se  Se179  1  0.58298546  0.74671536  0.44797181  1
  Se  Se180  1  0.57946054  0.75695635  0.93734963  1
  Se  Se181  1  0.92677287  0.07809945  0.44043540  1
  Se  Se182  1  0.91348391  0.08152078  0.94520623  1
  Se  Se183  1  0.91188190  0.41663385  0.45251492  1
  Se  Se184  1  0.91911090  0.41907661  0.94112493  1
  Se  Se185  1  0.91586597  0.75982309  0.44700640  1
  Se  Se186  1  0.91757237  0.75233116  0.94577551  1
  Se  Se187  1  0.24893056  0.24365377  0.29853459  1
  Se  Se188  1  0.25112250  0.24178463  0.81648455  1
  Se  Se189  1  0.23581246  0.57756268  0.31372841  1
  Se  Se190  1  0.25260930  0.57584780  0.79075546  1
  Se  Se191  1  0.25651645  0.91122030  0.30015763  1
  Se  Se192  1  0.23339667  0.91269667  0.80982685  1
  Se  Se193  1  0.58065195  0.24070096  0.31092249  1
  Se  Se194  1  0.58318128  0.25018437  0.80211131  1
  Se  Se195  1  0.56637091  0.57138559  0.30543291  1
  Se  Se196  1  0.58700661  0.58396510  0.80354054  1
  Se  Se197  1  0.58385815  0.91046771  0.30943818  1
  Se  Se198  1  0.56954637  0.90270425  0.79610862  1
  Se  Se199  1  0.91558621  0.24694947  0.30783080  1
  Se  Se200  1  0.93842168  0.26867789  0.80711819  1
  Se  Se201  1  0.91931316  0.59064690  0.29917530  1
  Se  Se202  1  0.91569177  0.58092448  0.80706513  1
  Se  Se203  1  0.92210972  0.91806821  0.30202982  1
  Se  Se204  1  0.91980356  0.91529925  0.80689052  1
  Se  Se205  1  0.08163335  0.07783805  0.29957276  1
  Se  Se206  1  0.07871756  0.08290931  0.80752423  1
  Se  Se207  1  0.08459942  0.41896431  0.32050275  1
  Se  Se208  1  0.10486100  0.42745360  0.80036624  1
  Se  Se209  1  0.08307944  0.75363613  0.30237392  1
  Se  Se210  1  0.06787070  0.73632422  0.79920898  1
  Se  Se211  1  0.41914897  0.07821611  0.30362600  1
  Se  Se212  1  0.41935469  0.08615391  0.81003881  1
  Se  Se213  1  0.41346507  0.41068897  0.29794705  1
  Se  Se214  1  0.42221740  0.42305136  0.81931125  1
  Se  Se215  1  0.42061279  0.75572318  0.30964735  1
  Se  Se216  1  0.39704512  0.74684903  0.79509434  1
  Se  Se217  1  0.76102512  0.08708208  0.30137083  1
  Se  Se218  1  0.75588792  0.08090874  0.79943973  1
  Se  Se219  1  0.75402120  0.42972325  0.30067088  1
  Se  Se220  1  0.74704966  0.41131512  0.80550121  1
  Se  Se221  1  0.75860346  0.76042117  0.30761040  1
  Se  Se222  1  0.75091332  0.74485514  0.80721603  1
  Se  Se223  1  0.25339388  0.07535748  0.18941269  1
  Se  Se224  1  0.23924220  0.08994588  0.69539317  1
  Se  Se225  1  0.23690978  0.41972152  0.20385498  1
  Se  Se226  1  0.24683766  0.41800782  0.68487906  1
  Se  Se227  1  0.24576063  0.75629260  0.18465069  1
  Se  Se228  1  0.25788170  0.76790101  0.69821182  1
  Se  Se229  1  0.57870092  0.09492968  0.18783990  1
  Se  Se230  1  0.58126672  0.07473074  0.69793360  1
  Se  Se231  1  0.57153628  0.42898213  0.18888427  1
  Se  Se232  1  0.58357252  0.40739827  0.70441969  1
  Se  Se233  1  0.58097802  0.75622287  0.19060562  1
  Se  Se234  1  0.60603363  0.73062225  0.69852617  1
  Se  Se235  1  0.92306040  0.07578533  0.19143662  1
  Se  Se236  1  0.87788351  0.10506313  0.71366238  1
  Se  Se237  1  0.90844856  0.41865253  0.18700737  1
  Se  Se238  1  0.92411497  0.41806815  0.70126268  1
  Se  Se239  1  0.92545528  0.74284099  0.19082681  1
  Se  Se240  1  0.91889257  0.74873203  0.70081496  1
  Se  Se241  1  0.08843695  0.23620081  0.18480686  1
  Se  Se242  1  0.07858485  0.24901197  0.70402271  1
  Se  Se243  1  0.09690357  0.56741387  0.19554429  1
  Se  Se244  1  0.09546106  0.58671032  0.70887361  1
  Se  Se245  1  0.08305661  0.91565402  0.19027096  1
  Se  Se246  1  0.05853189  0.93878857  0.70026048  1
  Se  Se247  1  0.41253960  0.25157985  0.19390049  1
  Se  Se248  1  0.41606366  0.24032174  0.69393398  1
  Se  Se249  1  0.42069116  0.58013761  0.19121037  1
  Se  Se250  1  0.42043954  0.57388408  0.70014086  1
  Se  Se251  1  0.41837013  0.91717362  0.19436606  1
  Se  Se252  1  0.41753852  0.91215287  0.68317890  1
  Se  Se253  1  0.75796593  0.24324041  0.18663707  1
  Se  Se254  1  0.74613858  0.25235297  0.70652055  1
  Se  Se255  1  0.75222808  0.58610286  0.18306376  1
  Se  Se256  1  0.75556102  0.57582433  0.69727937  1
  Se  Se257  1  0.76272526  0.90440000  0.18717064  1
  Se  Se258  1  0.75076428  0.90914932  0.69958883  1
