# generated using pymatgen
data_In86Cu29Se144
_symmetry_space_group_name_H-M   'P 1'
_cell_length_a   17.58334271
_cell_length_b   17.58679573
_cell_length_c   23.44662392
_cell_angle_alpha   89.97855626
_cell_angle_beta   89.98748308
_cell_angle_gamma   90.02256698
_symmetry_Int_Tables_number   1
_chemical_formula_structural   In86Cu29Se144
_chemical_formula_sum   'In86 Cu29 Se144'
_cell_volume   7250.50744744
_cell_formula_units_Z   1
loop_
 _symmetry_equiv_pos_site_id
 _symmetry_equiv_pos_as_xyz
  1  'x, y, z'
loop_
 _atom_site_type_symbol
 _atom_site_label
 _atom_site_symmetry_multiplicity
 _atom_site_fract_x
 _atom_site_fract_y
 _atom_site_fract_z
 _atom_site_occupancy
  In  In0  1  0.00805344  0.16993773  0.12959114  1
  In  In1  1  -0.01262467  0.16774543  0.62340401  1
  In  In2  1  -0.00529689  0.50414645  0.12900813  1
  In  In3  1  0.00487247  0.51268959  0.61711947  1
  In  In4  1  -0.01256445  0.81825524  0.11308424  1
  In  In5  1  -0.00723240  0.82697150  0.63151974  1
  In  In6  1  0.33214351  0.15858824  0.13322631  1
  In  In7  1  0.33785896  0.15431971  0.62352190  1
  In  In8  1  0.34133410  0.50775412  0.11834360  1
  In  In9  1  0.33108966  0.50337754  0.62051455  1
  In  In10  1  0.34163073  0.83966020  0.11706407  1
  In  In11  1  0.33232201  0.84911723  0.63103794  1
  In  In12  1  0.67292797  0.16833495  0.13049664  1
  In  In13  1  0.68042991  0.18334070  0.60924474  1
  In  In14  1  0.67006309  0.50109917  0.12846684  1
  In  In15  1  0.66638092  0.49948808  0.60981248  1
  In  In16  1  0.64949547  0.81996330  0.11479156  1
  In  In17  1  0.68844104  0.82691883  0.62559704  1
  In  In18  1  0.16231892  -0.01594691  0.37633275  1
  In  In19  1  0.13926439  -0.03611183  0.84577899  1
  In  In20  1  0.16562337  0.35375614  0.37446972  1
  In  In21  1  0.17236484  0.33660780  0.87820118  1
  In  In22  1  0.16028650  0.67790108  0.37886752  1
  In  In23  1  0.15159793  0.67882979  0.88569448  1
  In  In24  1  0.50282516  0.01231176  0.36712020  1
  In  In25  1  0.49310657  -0.00080437  0.87227330  1
  In  In26  1  0.52316445  0.33057633  0.39096734  1
  In  In27  1  0.51324832  0.32966211  0.87366454  1
  In  In28  1  0.49996048  0.65827018  0.37416959  1
  In  In29  1  0.50330312  0.66475687  0.88563596  1
  In  In30  1  0.83110586  -0.00130509  0.38784996  1
  In  In31  1  0.83943699  -0.02583786  0.86991372  1
  In  In32  1  0.82902001  0.33562776  0.37616203  1
  In  In33  1  0.83074514  0.34984148  0.87400794  1
  In  In34  1  0.83192234  0.66283773  0.37520365  1
  In  In35  1  0.83863610  0.66254416  0.87488579  1
  In  In36  1  -0.01961485  0.17078619  0.38035129  1
  In  In37  1  0.01258796  0.16274339  0.87382532  1
  In  In38  1  -0.00161996  0.50589849  0.37126281  1
  In  In39  1  -0.01296492  0.51148694  0.88123198  1
  In  In40  1  0.00452926  0.82704443  0.37901654  1
  In  In41  1  0.00059620  0.82089562  0.87073960  1
  In  In42  1  0.35361486  0.16693553  0.37260069  1
  In  In43  1  0.34205862  0.14888463  0.87431943  1
  In  In44  1  0.33371907  0.50220047  0.38240233  1
  In  In45  1  0.32892926  0.50563847  0.88443396  1
  In  In46  1  0.32370216  0.82846716  0.37121120  1
  In  In47  1  0.32672262  0.84012085  0.87945090  1
  In  In48  1  0.65550191  0.18372124  0.39473783  1
  In  In49  1  0.65615262  0.17355936  0.86824559  1
  In  In50  1  0.67367790  0.50307961  0.37780943  1
  In  In51  1  0.67350612  0.49630321  0.87800856  1
  In  In52  1  0.67903823  0.83499136  0.37746646  1
  In  In53  1  0.67791296  0.82444680  0.88944301  1
  In  In54  1  0.17680759  -0.00465777  0.12299081  1
  In  In55  1  0.16916619  -0.01767902  0.63442918  1
  In  In56  1  0.15186255  0.33802987  0.13284231  1
  In  In57  1  0.15732308  0.34458995  0.62126978  1
  In  In58  1  0.15646092  0.65717404  0.11826205  1
  In  In59  1  0.15765031  0.66823791  0.62708944  1
  In  In60  1  0.50662526  -0.02745930  0.13823192  1
  In  In61  1  0.49057030  0.00361822  0.62227847  1
  In  In62  1  0.49976565  0.34448908  0.12890956  1
  In  In63  1  0.52117429  0.34857443  0.60461398  1
  In  In64  1  0.51421183  0.67433695  0.12606905  1
  In  In65  1  0.51751371  0.65763345  0.61479519  1
  In  In66  1  0.83897403  -0.00530892  0.11867688  1
  In  In67  1  0.84143973  0.00208879  0.62567874  1
  In  In68  1  0.81849414  0.34526519  0.13749150  1
  In  In69  1  0.82095259  0.33329055  0.60967693  1
  In  In70  1  0.83218078  0.66609351  0.12882058  1
  In  In71  1  0.84458725  0.68061565  0.60275995  1
  In  In72  1  0.49797987  0.83339145  0.50084876  1
  In  In73  1  -0.00656503  0.33155046  0.74505278  1
  In  In74  1  0.49704056  0.16430233  -0.00064277  1
  In  In75  1  0.00098892  0.00156572  0.24876057  1
  In  In76  1  0.32790459  0.67014112  0.74764488  1
  In  In77  1  0.66623775  0.00329909  0.74766206  1
  In  In78  1  0.33707254  0.67233573  0.24531821  1
  In  In79  1  0.67029019  -0.00075939  0.25064452  1
  In  In80  1  0.33744225  0.33422574  0.25356845  1
  In  In81  1  0.83409934  0.16590928  0.00573607  1
  In  In82  1  0.17338532  0.16472952  0.00212644  1
  In  In83  1  0.33886734  0.32802078  0.75171493  1
  In  In84  1  0.16691704  0.16642774  0.50509828  1
  In  In85  1  0.67592268  0.66419442  0.74856287  1
  Cu  Cu86  1  0.17275206  0.15528224  0.74552123  1
  Cu  Cu87  1  0.32887868  -0.00128958  0.50089574  1
  Cu  Cu88  1  0.16439959  0.16897277  0.25270557  1
  Cu  Cu89  1  0.82843702  0.49804414  0.74691459  1
  Cu  Cu90  1  0.00172293  -0.01094972  -0.00813301  1
  Cu  Cu91  1  -0.00116689  -0.01123182  0.50454704  1
  Cu  Cu92  1  0.15667040  0.50333185  0.75107626  1
  Cu  Cu93  1  0.50545698  0.17423263  0.74369550  1
  Cu  Cu94  1  -0.00133727  0.66625643  0.49669942  1
  Cu  Cu95  1  0.33094109  0.33988151  0.00308651  1
  Cu  Cu96  1  -0.00175619  0.66487846  0.00056636  1
  Cu  Cu97  1  0.67047227  0.66042606  0.00459425  1
  Cu  Cu98  1  -0.00298757  0.34593253  0.00679313  1
  Cu  Cu99  1  0.82674636  0.17338131  0.25782268  1
  Cu  Cu100  1  0.16277502  0.50755230  0.24900291  1
  Cu  Cu101  1  0.66889434  0.34244913  0.00132620  1
  Cu  Cu102  1  0.82806608  0.16969150  0.74361387  1
  Cu  Cu103  1  0.50155401  0.83364272  0.75222515  1
  Cu  Cu104  1  0.33641909  0.66413576  0.00214476  1
  Cu  Cu105  1  0.33103698  -0.00555363  -0.00338814  1
  Cu  Cu106  1  0.00020474  0.34220506  0.49761677  1
  Cu  Cu107  1  0.50575768  0.49389396  0.74420920  1
  Cu  Cu108  1  0.16202364  0.82975846  0.24939239  1
  Cu  Cu109  1  0.33395709  0.33671212  0.49418279  1
  Cu  Cu110  1  0.83280628  0.50236219  0.25445967  1
  Cu  Cu111  1  0.67073727  -0.00150320  0.50128115  1
  Cu  Cu112  1  0.32167972  0.67382776  0.50314093  1
  Cu  Cu113  1  0.51482874  0.49484675  0.25578010  1
  Cu  Cu114  1  0.83473460  0.82823664  0.25019033  1
  Se  Se115  1  0.07380384  0.07297356  0.05634198  1
  Se  Se116  1  0.07878977  0.07343407  0.56340417  1
  Se  Se117  1  0.08458827  0.42407668  0.05972548  1
  Se  Se118  1  0.08577827  0.42557825  0.54831811  1
  Se  Se119  1  0.08678591  0.75019272  0.04850489  1
  Se  Se120  1  0.07595956  0.74934608  0.55709421  1
  Se  Se121  1  0.40813671  0.07472494  0.05920928  1
  Se  Se122  1  0.41740147  0.08359042  0.54650407  1
  Se  Se123  1  0.42170413  0.41765481  0.05335299  1
  Se  Se124  1  0.41214324  0.42068734  0.55210859  1
  Se  Se125  1  0.42054197  0.74486949  0.05688283  1
  Se  Se126  1  0.40841525  0.74510244  0.56592565  1
  Se  Se127  1  0.73740360  0.07425281  0.05740085  1
  Se  Se128  1  0.75669666  0.07990112  0.55479563  1
  Se  Se129  1  0.75438708  0.42121452  0.05586504  1
  Se  Se130  1  0.74326293  0.41389175  0.53986091  1
  Se  Se131  1  0.75210478  0.74821175  0.05611593  1
  Se  Se132  1  0.72295059  0.72703583  0.55146014  1
  Se  Se133  1  0.25635461  0.25873722  0.06605121  1
  Se  Se134  1  0.25870839  0.26038080  0.56209645  1
  Se  Se135  1  0.24930335  0.58112543  0.05234848  1
  Se  Se136  1  0.24313646  0.58735829  0.55825486  1
  Se  Se137  1  0.24621395  0.91107117  0.04908446  1
  Se  Se138  1  0.24800711  0.91481613  0.55428822  1
  Se  Se139  1  0.58978435  0.25639805  0.05829426  1
  Se  Se140  1  0.57566518  0.23917366  0.54479419  1
  Se  Se141  1  0.58430813  0.57999545  0.05825717  1
  Se  Se142  1  0.56865783  0.56517065  0.53974830  1
  Se  Se143  1  0.57995616  0.92069880  0.05335314  1
  Se  Se144  1  0.59220000  0.91883302  0.56447789  1
  Se  Se145  1  0.92069450  0.25956804  0.06578767  1
  Se  Se146  1  0.92123440  0.25521913  0.55103263  1
  Se  Se147  1  0.91438843  0.58461235  0.05711120  1
  Se  Se148  1  0.91405451  0.57670013  0.54398646  1
  Se  Se149  1  0.91384848  0.91233374  0.04681841  1
  Se  Se150  1  0.91225793  0.90866703  0.55772708  1
  Se  Se151  1  0.08147885  0.25644095  0.44067466  1
  Se  Se152  1  0.07535566  0.26022464  0.94874264  1
  Se  Se153  1  0.08394522  0.58447355  0.44277881  1
  Se  Se154  1  0.08276114  0.57851878  0.94918136  1
  Se  Se155  1  0.08427813  0.90969507  0.45074781  1
  Se  Se156  1  0.08655339  0.90771824  0.93916938  1
  Se  Se157  1  0.41990068  0.25214064  0.44691010  1
  Se  Se158  1  0.40563907  0.25807215  0.93953649  1
  Se  Se159  1  0.40768720  0.59614638  0.44745356  1
  Se  Se160  1  0.42086551  0.57863061  0.95109770  1
  Se  Se161  1  0.41055751  0.92165887  0.43788015  1
  Se  Se162  1  0.42130043  0.91489235  0.94557480  1
  Se  Se163  1  0.77151836  0.23622144  0.44685771  1
  Se  Se164  1  0.74415821  0.25554140  0.94162479  1
  Se  Se165  1  0.76985842  0.56790606  0.44685579  1
  Se  Se166  1  0.75258804  0.58343473  0.94413722  1
  Se  Se167  1  0.75400037  0.90899394  0.45503879  1
  Se  Se168  1  0.75032153  0.92584985  0.94759941  1
  Se  Se169  1  0.25212959  0.08055737  0.43818044  1
  Se  Se170  1  0.24677379  0.07021894  0.93623878  1
  Se  Se171  1  0.24611445  0.42331399  0.45038516  1
  Se  Se172  1  0.24435110  0.41994509  0.95037292  1
  Se  Se173  1  0.24394086  0.75927231  0.44839894  1
  Se  Se174  1  0.25489516  0.74666246  0.94628468  1
  Se  Se175  1  0.58236411  0.07496660  0.44749036  1
  Se  Se176  1  0.59037158  0.07836602  0.93928623  1
  Se  Se177  1  0.57068673  0.44581463  0.44889402  1
  Se  Se178  1  0.58180014  0.41850266  0.94507138  1
  Se  Se179  1  0.58757418  0.74558357  0.44143203  1
  Se  Se180  1  0.58590923  0.74705401  0.95308975  1
  Se  Se181  1  0.92016162  0.07865657  0.45363047  1
  Se  Se182  1  0.92293289  0.07960005  0.93945825  1
  Se  Se183  1  0.91826483  0.42035504  0.44006597  1
  Se  Se184  1  0.91117666  0.42054207  0.94932536  1
  Se  Se185  1  0.91358858  0.75029208  0.44443409  1
  Se  Se186  1  0.91617849  0.74815075  0.94502754  1
  Se  Se187  1  0.24360250  0.24695593  0.31505419  1
  Se  Se188  1  0.24414040  0.23661076  0.81039443  1
  Se  Se189  1  0.24789721  0.58326969  0.30850476  1
  Se  Se190  1  0.24269103  0.57842667  0.80991224  1
  Se  Se191  1  0.24488968  0.91413493  0.30117746  1
  Se  Se192  1  0.26774127  0.92623216  0.80233698  1
  Se  Se193  1  0.58184410  0.24667125  0.31265554  1
  Se  Se194  1  0.58827834  0.25954088  0.79418812  1
  Se  Se195  1  0.59102663  0.58602871  0.30630924  1
  Se  Se196  1  0.57797086  0.57886575  0.80748766  1
  Se  Se197  1  0.58037048  0.90778957  0.30991185  1
  Se  Se198  1  0.58752525  0.90712623  0.81254304  1
  Se  Se199  1  0.91671138  0.25555837  0.30456654  1
  Se  Se200  1  0.90810057  0.24359012  0.81206117  1
  Se  Se201  1  0.91828360  0.58965216  0.30138546  1
  Se  Se202  1  0.91318086  0.57970978  0.80054430  1
  Se  Se203  1  0.90983544  0.91493017  0.31017371  1
  Se  Se204  1  0.93914735  0.92306556  0.80162103  1
  Se  Se205  1  0.08440394  0.09082579  0.31586895  1
  Se  Se206  1  0.07884289  0.08270332  0.79681956  1
  Se  Se207  1  0.08098607  0.42067172  0.30031356  1
  Se  Se208  1  0.08138888  0.41760490  0.81074675  1
  Se  Se209  1  0.07837803  0.74832651  0.30249498  1
  Se  Se210  1  0.08661503  0.74175940  0.80162956  1
  Se  Se211  1  0.40816398  0.07623013  0.29822732  1
  Se  Se212  1  0.42691361  0.08725170  0.79728886  1
  Se  Se213  1  0.42645044  0.42138924  0.31556744  1
  Se  Se214  1  0.42230405  0.42553535  0.81020055  1
  Se  Se215  1  0.42655140  0.75871735  0.30750498  1
  Se  Se216  1  0.42443399  0.75036624  0.81113069  1
  Se  Se217  1  0.75368399  0.08662917  0.31669489  1
  Se  Se218  1  0.75805171  0.08929462  0.81174280  1
  Se  Se219  1  0.74807407  0.41702947  0.30501918  1
  Se  Se220  1  0.74428723  0.41640214  0.79976368  1
  Se  Se221  1  0.75062465  0.74898922  0.30538197  1
  Se  Se222  1  0.75991340  0.75943754  0.80768474  1
  Se  Se223  1  0.24113323  0.08222719  0.19883493  1
  Se  Se224  1  0.25696890  0.07467632  0.69342449  1
  Se  Se225  1  0.24961844  0.42792302  0.19240277  1
  Se  Se226  1  0.24313763  0.42254385  0.69672100  1
  Se  Se227  1  0.24134079  0.75380042  0.18464006  1
  Se  Se228  1  0.23838050  0.76428509  0.69420023  1
  Se  Se229  1  0.57525271  0.08761250  0.19214616  1
  Se  Se230  1  0.58486834  0.09381905  0.68248549  1
  Se  Se231  1  0.59182558  0.41145214  0.19837872  1
  Se  Se232  1  0.59008614  0.41940901  0.68668051  1
  Se  Se233  1  0.58713450  0.75397183  0.20006099  1
  Se  Se234  1  0.57916018  0.75519588  0.69013371  1
  Se  Se235  1  0.90376278  0.09371653  0.19323148  1
  Se  Se236  1  0.91684018  0.08620738  0.69851999  1
  Se  Se237  1  0.91624447  0.41847384  0.19959678  1
  Se  Se238  1  0.90973466  0.42230792  0.68274504  1
  Se  Se239  1  0.92075366  0.74866840  0.19635170  1
  Se  Se240  1  0.90351554  0.73866157  0.69149171  1
  Se  Se241  1  0.07806883  0.25273881  0.20444067  1
  Se  Se242  1  0.09364845  0.24203864  0.68972133  1
  Se  Se243  1  0.07835404  0.58983512  0.19718034  1
  Se  Se244  1  0.07552856  0.58592640  0.69749790  1
  Se  Se245  1  0.08239397  0.90833151  0.18573806  1
  Se  Se246  1  0.06978175  0.91866215  0.69822163  1
  Se  Se247  1  0.42656165  0.24284572  0.19454812  1
  Se  Se248  1  0.42598240  0.25262040  0.68151196  1
  Se  Se249  1  0.43016478  0.57302748  0.19561274  1
  Se  Se250  1  0.42665672  0.58088498  0.69018336  1
  Se  Se251  1  0.40003568  0.91689692  0.19965014  1
  Se  Se252  1  0.42331587  0.92131973  0.69972135  1
  Se  Se253  1  0.74190512  0.25346520  0.20342405  1
  Se  Se254  1  0.75114360  0.25623258  0.69018199  1
  Se  Se255  1  0.74928671  0.58513872  0.19885522  1
  Se  Se256  1  0.75707642  0.57864499  0.68083912  1
  Se  Se257  1  0.75835954  0.90985099  0.18888093  1
  Se  Se258  1  0.76371020  0.91048523  0.69898110  1
