# generated using pymatgen
data_In86Cu29Se144
_symmetry_space_group_name_H-M   'P 1'
_cell_length_a   17.57768662
_cell_length_b   17.57840653
_cell_length_c   23.43115442
_cell_angle_alpha   90.01241158
_cell_angle_beta   90.00294321
_cell_angle_gamma   89.99973579
_symmetry_Int_Tables_number   1
_chemical_formula_structural   In86Cu29Se144
_chemical_formula_sum   'In86 Cu29 Se144'
_cell_volume   7239.93883081
_cell_formula_units_Z   1
loop_
 _symmetry_equiv_pos_site_id
 _symmetry_equiv_pos_as_xyz
  1  'x, y, z'
loop_
 _atom_site_type_symbol
 _atom_site_label
 _atom_site_symmetry_multiplicity
 _atom_site_fract_x
 _atom_site_fract_y
 _atom_site_fract_z
 _atom_site_occupancy
  In  In0  1  -0.01972018  0.18231089  0.15345295  1
  In  In1  1  0.01453350  0.16362520  0.62457403  1
  In  In2  1  0.00218042  0.48005956  0.12872758  1
  In  In3  1  -0.01052750  0.50479936  0.62335042  1
  In  In4  1  0.00744074  0.83897339  0.13409065  1
  In  In5  1  0.00675641  0.83808330  0.61443037  1
  In  In6  1  0.34024444  0.15891325  0.12983843  1
  In  In7  1  0.33741021  0.17224335  0.61793901  1
  In  In8  1  0.33593048  0.50036970  0.12582926  1
  In  In9  1  0.34164227  0.49593614  0.63514101  1
  In  In10  1  0.33904314  0.83316087  0.13589654  1
  In  In11  1  0.33532956  0.83640366  0.61913676  1
  In  In12  1  0.66205809  0.17559237  0.12571530  1
  In  In13  1  0.64407003  0.16975090  0.61794516  1
  In  In14  1  0.65225303  0.50848639  0.14639854  1
  In  In15  1  0.67317892  0.49844032  0.62423721  1
  In  In16  1  0.65091844  0.82570776  0.12784366  1
  In  In17  1  0.66697106  0.83451656  0.62242150  1
  In  In18  1  0.17755032  0.00804075  0.38691182  1
  In  In19  1  0.16921882  -0.01113198  0.87437574  1
  In  In20  1  0.16995500  0.32575734  0.37368567  1
  In  In21  1  0.18114399  0.34044827  0.86663799  1
  In  In22  1  0.18261531  0.66398307  0.37648271  1
  In  In23  1  0.16872588  0.65347920  0.87624026  1
  In  In24  1  0.47652621  0.01429747  0.40168746  1
  In  In25  1  0.50623428  0.00894512  0.86957128  1
  In  In26  1  0.49627189  0.33046983  0.35835618  1
  In  In27  1  0.48725444  0.34765053  0.89092373  1
  In  In28  1  0.50434004  0.66774367  0.36918454  1
  In  In29  1  0.48746947  0.65034655  0.85423778  1
  In  In30  1  0.82873695  -0.01531419  0.37532935  1
  In  In31  1  0.82148779  0.01413045  0.87340500  1
  In  In32  1  0.84038268  0.34310053  0.35793753  1
  In  In33  1  0.83513642  0.32127702  0.87349172  1
  In  In34  1  0.82192108  0.67412818  0.37804707  1
  In  In35  1  0.82598310  0.67345260  0.87166718  1
  In  In36  1  0.01090570  0.18385532  0.36735772  1
  In  In37  1  -0.01353409  0.17196118  0.87039663  1
  In  In38  1  -0.00298264  0.48337815  0.37071529  1
  In  In39  1  0.02053129  0.50039216  0.87780287  1
  In  In40  1  -0.00624808  0.84000329  0.38082162  1
  In  In41  1  0.00537309  0.83546983  0.87212630  1
  In  In42  1  0.33698320  0.17042457  0.38293176  1
  In  In43  1  0.34590171  0.17688897  0.86850535  1
  In  In44  1  0.34131080  0.49117873  0.35706862  1
  In  In45  1  0.33623972  0.49554877  0.87328136  1
  In  In46  1  0.33670820  0.83588221  0.38862038  1
  In  In47  1  0.33733650  0.83905201  0.86125598  1
  In  In48  1  0.65682352  0.16323087  0.37351135  1
  In  In49  1  0.65291964  0.15591967  0.87059722  1
  In  In50  1  0.67167064  0.50934477  0.35452641  1
  In  In51  1  0.64640291  0.49503664  0.87069338  1
  In  In52  1  0.66588248  0.83116722  0.38241230  1
  In  In53  1  0.66162491  0.82843851  0.86470500  1
  In  In54  1  0.16249411  0.00640907  0.13706339  1
  In  In55  1  0.21110052  0.03162109  0.58200473  1
  In  In56  1  0.16229971  0.33781721  0.12787851  1
  In  In57  1  0.17500240  0.32051133  0.62519903  1
  In  In58  1  0.19158540  0.66345177  0.12916055  1
  In  In59  1  0.17329405  0.67689544  0.61933988  1
  In  In60  1  0.48999206  -0.00924971  0.12379809  1
  In  In61  1  0.49514112  0.00273737  0.62144031  1
  In  In62  1  0.49915652  0.33299951  0.13032713  1
  In  In63  1  0.49818901  0.32654181  0.62069867  1
  In  In64  1  0.50906824  0.65573028  0.14682134  1
  In  In65  1  0.48738018  0.67413313  0.63586895  1
  In  In66  1  0.82709578  0.03019221  0.13918874  1
  In  In67  1  0.83557578  -0.01128120  0.62047315  1
  In  In68  1  0.81671693  0.34735042  0.15701402  1
  In  In69  1  0.83127620  0.35030957  0.62052138  1
  In  In70  1  0.81054131  0.65506620  0.12897762  1
  In  In71  1  0.82825918  0.66167273  0.61611647  1
  In  In72  1  0.00607531  -0.00168072  0.74754564  1
  In  In73  1  0.16533716  0.49484375  0.48986117  1
  In  In74  1  0.16466582  0.16826478  0.00095303  1
  In  In75  1  0.82712871  0.17400888  0.01147871  1
  In  In76  1  0.82807525  0.49544400  0.00778252  1
  In  In77  1  0.83584981  0.16804855  0.48978056  1
  In  In78  1  0.49998267  0.82939395  -0.00041286  1
  In  In79  1  0.00244946  0.66491966  0.75075101  1
  In  In80  1  0.66427057  -0.00580562  0.25807508  1
  In  In81  1  0.50135348  0.49729066  0.49711179  1
  In  In82  1  0.17569059  0.82595480  -0.00149623  1
  In  In83  1  0.65941529  0.33157022  0.74527617  1
  In  In84  1  0.83807301  0.83815703  -0.00808877  1
  In  In85  1  -0.00081250  0.66864664  0.25439931  1
  Cu  Cu86  1  0.49232758  0.16395328  0.74485486  1
  Cu  Cu87  1  0.82844059  0.83231856  0.74289888  1
  Cu  Cu88  1  0.50307554  0.83955941  0.74231085  1
  Cu  Cu89  1  0.00829070  0.65599696  0.00463147  1
  Cu  Cu90  1  -0.00339730  0.00505277  0.01524986  1
  Cu  Cu91  1  0.49171230  0.16034495  0.25413929  1
  Cu  Cu92  1  0.66763369  0.34296208  0.49368965  1
  Cu  Cu93  1  0.16691923  0.49562724  0.24981773  1
  Cu  Cu94  1  0.49357795  0.83868167  0.26143031  1
  Cu  Cu95  1  0.66299266  0.66536906  0.49745198  1
  Cu  Cu96  1  0.18101646  0.16369289  0.25603117  1
  Cu  Cu97  1  0.65768880  0.66032104  0.00278066  1
  Cu  Cu98  1  0.33249074  0.00347431  0.00349069  1
  Cu  Cu99  1  0.65691894  0.33276152  0.00705733  1
  Cu  Cu100  1  0.17261661  0.84722183  0.26046785  1
  Cu  Cu101  1  0.33697003  0.66370034  0.50258415  1
  Cu  Cu102  1  0.17585555  0.84193882  0.73765834  1
  Cu  Cu103  1  -0.01157054  0.66398728  0.49658070  1
  Cu  Cu104  1  -0.00393678  0.33651283  0.49653585  1
  Cu  Cu105  1  0.83541564  0.49662265  0.74619907  1
  Cu  Cu106  1  0.16988210  0.49476874  0.75120604  1
  Cu  Cu107  1  0.17284686  0.16382858  0.74131902  1
  Cu  Cu108  1  0.34451508  0.65535158  0.00183032  1
  Cu  Cu109  1  0.82684505  0.82843661  0.25390332  1
  Cu  Cu110  1  0.82940196  0.17143172  0.74761779  1
  Cu  Cu111  1  0.00253737  0.33220350  0.00348076  1
  Cu  Cu112  1  0.66543387  -0.00218707  0.50132430  1
  Cu  Cu113  1  0.33910704  0.33944367  0.00105918  1
  Cu  Cu114  1  0.00122930  -0.00254822  0.49530316  1
  Se  Se115  1  0.07374819  0.09158698  0.06975492  1
  Se  Se116  1  0.08018190  0.08591657  0.54632589  1
  Se  Se117  1  0.08800611  0.41748967  0.05148448  1
  Se  Se118  1  0.07739760  0.41374941  0.55886530  1
  Se  Se119  1  0.08259214  0.74427311  0.06351727  1
  Se  Se120  1  0.07754317  0.74002530  0.55009835  1
  Se  Se121  1  0.41997440  0.08291365  0.05439911  1
  Se  Se122  1  0.42373376  0.09092407  0.55076939  1
  Se  Se123  1  0.42192987  0.41828575  0.05862670  1
  Se  Se124  1  0.40618013  0.41036142  0.55474946  1
  Se  Se125  1  0.41530842  0.74187612  0.06441975  1
  Se  Se126  1  0.42063093  0.74742212  0.55407316  1
  Se  Se127  1  0.73612390  0.07192830  0.05639814  1
  Se  Se128  1  0.74772927  0.08429542  0.55794938  1
  Se  Se129  1  0.74038942  0.40718667  0.06933948  1
  Se  Se130  1  0.75059550  0.42488461  0.54702447  1
  Se  Se131  1  0.74273004  0.74747641  0.05350439  1
  Se  Se132  1  0.74669731  0.74917362  0.55156489  1
  Se  Se133  1  0.25820836  0.25561955  0.05990163  1
  Se  Se134  1  0.24373553  0.24434447  0.54818588  1
  Se  Se135  1  0.25164451  0.57901479  0.05116126  1
  Se  Se136  1  0.25561442  0.57789487  0.55803686  1
  Se  Se137  1  0.25378911  0.92216830  0.06341021  1
  Se  Se138  1  0.22874045  0.89234725  0.55365253  1
  Se  Se139  1  0.57389957  0.24597773  0.05556760  1
  Se  Se140  1  0.58195826  0.25955643  0.54411175  1
  Se  Se141  1  0.58177864  0.58351396  0.06634225  1
  Se  Se142  1  0.58351097  0.58929681  0.56157020  1
  Se  Se143  1  0.59194398  0.92276850  0.05513285  1
  Se  Se144  1  0.58186082  0.91689759  0.55527828  1
  Se  Se145  1  0.91984296  0.26380372  0.06778212  1
  Se  Se146  1  0.92001070  0.25362655  0.55959735  1
  Se  Se147  1  0.92039187  0.58832249  0.06569298  1
  Se  Se148  1  0.90946848  0.57618050  0.54788976  1
  Se  Se149  1  0.91321123  0.92130631  0.06812046  1
  Se  Se150  1  0.91619094  0.91503604  0.54722674  1
  Se  Se151  1  0.08422619  0.25439504  0.44789345  1
  Se  Se152  1  0.07657509  0.25589630  0.93620844  1
  Se  Se153  1  0.07188878  0.58858112  0.43432579  1
  Se  Se154  1  0.09528980  0.57629160  0.95360303  1
  Se  Se155  1  0.08801883  0.91484139  0.44540569  1
  Se  Se156  1  0.07324377  0.92507346  0.95122089  1
  Se  Se157  1  0.43312433  0.25494973  0.43970919  1
  Se  Se158  1  0.41567346  0.24538079  0.95146855  1
  Se  Se159  1  0.40717718  0.58314330  0.43683342  1
  Se  Se160  1  0.42442773  0.58083378  0.93995683  1
  Se  Se161  1  0.41224450  0.91384310  0.46454661  1
  Se  Se162  1  0.40772121  0.92065863  0.94089083  1
  Se  Se163  1  0.74619278  0.26062451  0.43341527  1
  Se  Se164  1  0.73647293  0.25608271  0.94297374  1
  Se  Se165  1  0.73878851  0.58061493  0.43864391  1
  Se  Se166  1  0.74372652  0.58507951  0.94195942  1
  Se  Se167  1  0.75021611  0.91361104  0.45133942  1
  Se  Se168  1  0.73900538  0.92275896  0.93775191  1
  Se  Se169  1  0.25494431  0.09267660  0.45764975  1
  Se  Se170  1  0.25412460  0.07881085  0.93917301  1
  Se  Se171  1  0.26549210  0.41151958  0.43626687  1
  Se  Se172  1  0.25185887  0.41582669  0.94536809  1
  Se  Se173  1  0.24886916  0.74598508  0.45261393  1
  Se  Se174  1  0.26806596  0.73968129  0.93876307  1
  Se  Se175  1  0.58668503  0.08798526  0.45177189  1
  Se  Se176  1  0.57908192  0.08287551  0.94681867  1
  Se  Se177  1  0.58905633  0.41795053  0.42942555  1
  Se  Se178  1  0.58219628  0.42429482  0.95466118  1
  Se  Se179  1  0.57674945  0.74716017  0.44591436  1
  Se  Se180  1  0.58426525  0.73854056  0.93667783  1
  Se  Se181  1  0.92576921  0.07758727  0.43154953  1
  Se  Se182  1  0.91932309  0.08052364  0.94758227  1
  Se  Se183  1  0.90886278  0.41354085  0.44241716  1
  Se  Se184  1  0.91961305  0.41129386  0.94187653  1
  Se  Se185  1  0.90944639  0.75303034  0.44535833  1
  Se  Se186  1  0.93296159  0.73649405  0.94126160  1
  Se  Se187  1  0.26209156  0.25247139  0.30617081  1
  Se  Se188  1  0.25185337  0.24601243  0.80022326  1
  Se  Se189  1  0.24959318  0.58137548  0.30081201  1
  Se  Se190  1  0.25085881  0.58065612  0.80411826  1
  Se  Se191  1  0.25772387  0.92221954  0.31748112  1
  Se  Se192  1  0.25278623  0.92611037  0.79700585  1
  Se  Se193  1  0.58549788  0.24231308  0.29728022  1
  Se  Se194  1  0.56863034  0.24844313  0.80832881  1
  Se  Se195  1  0.56393456  0.57384624  0.29653777  1
  Se  Se196  1  0.60333237  0.59625237  0.79954432  1
  Se  Se197  1  0.56952867  0.92077378  0.32420113  1
  Se  Se198  1  0.58338008  0.92026680  0.80144925  1
  Se  Se199  1  0.91805889  0.24791137  0.29772118  1
  Se  Se200  1  0.91623852  0.25519583  0.79551472  1
  Se  Se201  1  0.90939215  0.58078108  0.31287051  1
  Se  Se202  1  0.91292461  0.57311055  0.81325951  1
  Se  Se203  1  0.91400757  0.91058595  0.30291759  1
  Se  Se204  1  0.90729655  0.91155805  0.80774821  1
  Se  Se205  1  0.09578297  0.08633895  0.31280912  1
  Se  Se206  1  0.09190000  0.09282094  0.81092580  1
  Se  Se207  1  0.08788542  0.41051371  0.30427495  1
  Se  Se208  1  0.08232980  0.41328781  0.80241679  1
  Se  Se209  1  0.09205836  0.75668104  0.31415758  1
  Se  Se210  1  0.09967099  0.76086708  0.80392622  1
  Se  Se211  1  0.41482306  0.07911487  0.31389938  1
  Se  Se212  1  0.41248485  0.07907188  0.80128695  1
  Se  Se213  1  0.44337560  0.43576291  0.29046190  1
  Se  Se214  1  0.41950856  0.40980369  0.80740171  1
  Se  Se215  1  0.40935211  0.75328842  0.31182968  1
  Se  Se216  1  0.41866377  0.75519056  0.79488542  1
  Se  Se217  1  0.75916441  0.08726101  0.31053138  1
  Se  Se218  1  0.74433979  0.08841728  0.79815558  1
  Se  Se219  1  0.73674725  0.40290944  0.29413880  1
  Se  Se220  1  0.75447089  0.41846021  0.80893627  1
  Se  Se221  1  0.73870881  0.75088729  0.30533578  1
  Se  Se222  1  0.74841703  0.74697109  0.79719628  1
  Se  Se223  1  0.25910576  0.07743446  0.20068590  1
  Se  Se224  1  0.25031401  0.08224036  0.68266778  1
  Se  Se225  1  0.25228844  0.41574921  0.19443111  1
  Se  Se226  1  0.24842035  0.41142260  0.69401426  1
  Se  Se227  1  0.24528143  0.76007855  0.20194289  1
  Se  Se228  1  0.25651998  0.74875277  0.69209106  1
  Se  Se229  1  0.57577144  0.08260419  0.19284927  1
  Se  Se230  1  0.58101870  0.08398331  0.69361588  1
  Se  Se231  1  0.60378226  0.38875862  0.19801994  1
  Se  Se232  1  0.57247515  0.42592577  0.68859664  1
  Se  Se233  1  0.58114903  0.75663520  0.20903196  1
  Se  Se234  1  0.58730331  0.75197356  0.69397793  1
  Se  Se235  1  0.93914174  0.05936582  0.20486345  1
  Se  Se236  1  0.91078181  0.08847038  0.68937665  1
  Se  Se237  1  0.92166453  0.42164377  0.20807371  1
  Se  Se238  1  0.92070396  0.41450240  0.69518282  1
  Se  Se239  1  0.90476150  0.75116492  0.18848507  1
  Se  Se240  1  0.91702013  0.75468605  0.68728372  1
  Se  Se241  1  0.09691398  0.24600973  0.20023666  1
  Se  Se242  1  0.08353205  0.24980786  0.69717584  1
  Se  Se243  1  0.08889562  0.58106192  0.18967204  1
  Se  Se244  1  0.09352665  0.57749953  0.68845088  1
  Se  Se245  1  0.08273233  0.92091006  0.20581055  1
  Se  Se246  1  0.09434569  0.92219248  0.68044217  1
  Se  Se247  1  0.41450921  0.24843549  0.19869298  1
  Se  Se248  1  0.41444874  0.25291838  0.69327696  1
  Se  Se249  1  0.38669893  0.60763991  0.19287198  1
  Se  Se250  1  0.41625439  0.58188011  0.70289169  1
  Se  Se251  1  0.41586405  0.92212177  0.20386141  1
  Se  Se252  1  0.41425334  0.91893907  0.69123593  1
  Se  Se253  1  0.78078865  0.21005314  0.18480267  1
  Se  Se254  1  0.75171985  0.24612806  0.68110372  1
  Se  Se255  1  0.74942127  0.58101136  0.20937598  1
  Se  Se256  1  0.75607001  0.58176779  0.69283131  1
  Se  Se257  1  0.75252041  0.91010400  0.18809219  1
  Se  Se258  1  0.74810743  0.92123678  0.69312510  1
