# generated using pymatgen
data_In86Cu29Se144
_symmetry_space_group_name_H-M   'P 1'
_cell_length_a   17.58149753
_cell_length_b   17.57538590
_cell_length_c   23.44233291
_cell_angle_alpha   90.03600675
_cell_angle_beta   89.98742949
_cell_angle_gamma   89.99337958
_symmetry_Int_Tables_number   1
_chemical_formula_structural   In86Cu29Se144
_chemical_formula_sum   'In86 Cu29 Se144'
_cell_volume   7243.71680908
_cell_formula_units_Z   1
loop_
 _symmetry_equiv_pos_site_id
 _symmetry_equiv_pos_as_xyz
  1  'x, y, z'
loop_
 _atom_site_type_symbol
 _atom_site_label
 _atom_site_symmetry_multiplicity
 _atom_site_fract_x
 _atom_site_fract_y
 _atom_site_fract_z
 _atom_site_occupancy
  In  In0  1  -0.00828676  0.16756990  0.13354660  1
  In  In1  1  0.01736719  0.19989244  0.59016487  1
  In  In2  1  0.01530521  0.50554155  0.11113046  1
  In  In3  1  0.00678135  0.47940497  0.62525326  1
  In  In4  1  0.00777692  0.82108777  0.13598827  1
  In  In5  1  0.00121007  0.84218178  0.62393183  1
  In  In6  1  0.32890312  0.17387964  0.13607025  1
  In  In7  1  0.34758492  0.17823082  0.61595119  1
  In  In8  1  0.32593056  0.48961553  0.12140026  1
  In  In9  1  0.33181154  0.49514202  0.62557397  1
  In  In10  1  0.33689831  0.83468266  0.12611073  1
  In  In11  1  0.33824063  0.81843149  0.62797571  1
  In  In12  1  0.67429459  0.17353596  0.12988979  1
  In  In13  1  0.67434007  0.17436200  0.61345050  1
  In  In14  1  0.65703742  0.48326165  0.10995596  1
  In  In15  1  0.64984353  0.51618258  0.63290060  1
  In  In16  1  0.65670683  0.83678358  0.12250260  1
  In  In17  1  0.64889426  0.80694983  0.59815614  1
  In  In18  1  0.17890687  0.00795116  0.36607646  1
  In  In19  1  0.15237254  -0.00122609  0.88024180  1
  In  In20  1  0.17131529  0.32578248  0.38442136  1
  In  In21  1  0.17406961  0.35281597  0.85712758  1
  In  In22  1  0.15322241  0.66393838  0.37487905  1
  In  In23  1  0.18370237  0.64656863  0.88446701  1
  In  In24  1  0.49419897  0.00923831  0.38746989  1
  In  In25  1  0.48626718  -0.00774362  0.87461340  1
  In  In26  1  0.49919847  0.33280649  0.37737169  1
  In  In27  1  0.51609411  0.35690141  0.86074929  1
  In  In28  1  0.50994521  0.66457267  0.38982295  1
  In  In29  1  0.49798484  0.66403389  0.87365379  1
  In  In30  1  0.83668791  -0.00327995  0.37931787  1
  In  In31  1  0.84104707  0.00355413  0.87398857  1
  In  In32  1  0.82081061  0.34169505  0.37577788  1
  In  In33  1  0.83979371  0.34052077  0.86764140  1
  In  In34  1  0.84535412  0.66580211  0.37850960  1
  In  In35  1  0.81122166  0.65719778  0.86449175  1
  In  In36  1  0.01643078  0.16767085  0.38473458  1
  In  In37  1  -0.00999105  0.17369238  0.87280320  1
  In  In38  1  -0.00001934  0.50669381  0.37833435  1
  In  In39  1  0.00959134  0.47777525  0.89177313  1
  In  In40  1  -0.00835100  0.83072860  0.37085956  1
  In  In41  1  0.00154869  0.84143560  0.88108968  1
  In  In42  1  0.33601370  0.16762094  0.37967187  1
  In  In43  1  0.31941232  0.17827495  0.87293404  1
  In  In44  1  0.33901611  0.49485601  0.37707702  1
  In  In45  1  0.33209905  0.50686906  0.87004834  1
  In  In46  1  0.33234970  0.84283513  0.37355341  1
  In  In47  1  0.34467068  0.81695145  0.88320406  1
  In  In48  1  0.65308002  0.17801068  0.38955422  1
  In  In49  1  0.66268246  0.17452107  0.86924297  1
  In  In50  1  0.67205847  0.48984790  0.37624743  1
  In  In51  1  0.66251041  0.49536381  0.87435145  1
  In  In52  1  0.65859042  0.84844576  0.39871289  1
  In  In53  1  0.66192212  0.81473362  0.87032600  1
  In  In54  1  0.17744479  -0.00765534  0.13576956  1
  In  In55  1  0.15080300  0.00470554  0.62401304  1
  In  In56  1  0.17261261  0.36169976  0.12737653  1
  In  In57  1  0.17270865  0.33687035  0.61870558  1
  In  In58  1  0.15154166  0.65378151  0.11930353  1
  In  In59  1  0.18658709  0.65818376  0.63568456  1
  In  In60  1  0.49874894  -0.01369674  0.12664233  1
  In  In61  1  0.51153453  -0.00126132  0.61062390  1
  In  In62  1  0.49649426  0.33386407  0.12758015  1
  In  In63  1  0.49673864  0.34029831  0.62557778  1
  In  In64  1  0.50227670  0.66505417  0.11880719  1
  In  In65  1  0.49716508  0.65990620  0.62026225  1
  In  In66  1  0.83599485  0.01281663  0.13218724  1
  In  In67  1  0.83309440  0.00384366  0.60758128  1
  In  In68  1  0.83270306  0.33272165  0.12300933  1
  In  In69  1  0.83350032  0.32717401  0.62894395  1
  In  In70  1  0.84818449  0.66190297  0.12972771  1
  In  In71  1  0.81216537  0.65982998  0.62202254  1
  In  In72  1  0.16411626  0.17198492  -0.00130096  1
  In  In73  1  0.33170642  0.00171732  0.74668082  1
  In  In74  1  0.83191284  0.50078153  0.50333543  1
  In  In75  1  0.66819707  0.00005686  0.73359600  1
  In  In76  1  0.49578959  0.17258993  0.00569411  1
  In  In77  1  0.66491341  0.00244470  0.25275138  1
  In  In78  1  0.00245311  0.65877321  0.75319432  1
  In  In79  1  -0.00573148  0.00826760  0.74728741  1
  In  In80  1  0.16931966  0.83261524  0.50129028  1
  In  In81  1  0.67815405  0.66661951  0.25878044  1
  In  In82  1  0.32900633  0.66398163  0.24860485  1
  In  In83  1  0.00449949  0.33458667  0.25257097  1
  In  In84  1  0.83024359  0.82730398  0.00314571  1
  In  In85  1  0.83172174  0.17342669  0.00145881  1
  Cu  Cu86  1  0.83552013  0.83466754  0.25717337  1
  Cu  Cu87  1  0.33324325  0.66929794  0.00227535  1
  Cu  Cu88  1  0.83363594  0.16825948  0.25552782  1
  Cu  Cu89  1  0.49691785  0.16742683  0.26057714  1
  Cu  Cu90  1  0.50783034  0.82593596  0.74502058  1
  Cu  Cu91  1  0.49594631  0.83245270  0.25438358  1
  Cu  Cu92  1  0.65698204  -0.00759498  -0.00358005  1
  Cu  Cu93  1  -0.00275753  0.66855118  -0.00103153  1
  Cu  Cu94  1  0.50083973  0.49018253  0.24991039  1
  Cu  Cu95  1  0.49607322  0.18208307  0.74663202  1
  Cu  Cu96  1  0.33063070  0.00038327  0.49789280  1
  Cu  Cu97  1  0.83544843  0.50155875  0.25130372  1
  Cu  Cu98  1  0.00419835  0.00328283  0.49377912  1
  Cu  Cu99  1  0.17111732  0.16844088  0.25680152  1
  Cu  Cu100  1  0.00396749  0.66613015  0.50258823  1
  Cu  Cu101  1  0.49400556  0.50699997  0.74789582  1
  Cu  Cu102  1  0.65969042  0.34328781  0.50353871  1
  Cu  Cu103  1  0.82534697  0.82806565  0.73754175  1
  Cu  Cu104  1  0.33273086  -0.01219561  0.00357797  1
  Cu  Cu105  1  0.82886482  0.49771751  0.74801165  1
  Cu  Cu106  1  0.15904373  0.83390077  0.25224096  1
  Cu  Cu107  1  0.33836342  0.33432329  0.49949337  1
  Cu  Cu108  1  0.33437149  0.34115708  -0.00629256  1
  Cu  Cu109  1  0.33460909  0.65960858  0.50353387  1
  Cu  Cu110  1  0.66019119  0.66129110  -0.00554974  1
  Cu  Cu111  1  0.01107664  -0.01050338  0.01046275  1
  Cu  Cu112  1  0.16336591  0.18141210  0.73805869  1
  Cu  Cu113  1  0.17573243  0.82706637  0.76157774  1
  Cu  Cu114  1  0.83327674  0.17003300  0.73666842  1
  Se  Se115  1  0.08261874  0.08099073  0.06643359  1
  Se  Se116  1  0.09058672  0.08533831  0.54456479  1
  Se  Se117  1  0.08445657  0.40666251  0.04834985  1
  Se  Se118  1  0.07979678  0.40664136  0.54804622  1
  Se  Se119  1  0.07828714  0.75126225  0.05430374  1
  Se  Se120  1  0.08621766  0.74179944  0.56675679  1
  Se  Se121  1  0.40614274  0.07682871  0.06255575  1
  Se  Se122  1  0.41799359  0.08152389  0.55091629  1
  Se  Se123  1  0.41892546  0.41484337  0.05437133  1
  Se  Se124  1  0.41833880  0.42147889  0.55266949  1
  Se  Se125  1  0.41695294  0.75151434  0.05610650  1
  Se  Se126  1  0.41654838  0.74986525  0.55108939  1
  Se  Se127  1  0.73812289  0.07284116  0.05618825  1
  Se  Se128  1  0.73742822  0.07760579  0.54600909  1
  Se  Se129  1  0.76357780  0.41929395  0.05167518  1
  Se  Se130  1  0.73919995  0.41920384  0.56707414  1
  Se  Se131  1  0.73880490  0.73636831  0.06315549  1
  Se  Se132  1  0.77389578  0.76200761  0.55023638  1
  Se  Se133  1  0.25953091  0.25823434  0.05768614  1
  Se  Se134  1  0.25287429  0.24845686  0.54979738  1
  Se  Se135  1  0.25211772  0.58420595  0.05682878  1
  Se  Se136  1  0.24765223  0.57949886  0.55491931  1
  Se  Se137  1  0.24560015  0.91148484  0.05811283  1
  Se  Se138  1  0.25672379  0.92253638  0.56569845  1
  Se  Se139  1  0.59651815  0.25751923  0.05791241  1
  Se  Se140  1  0.57761594  0.25564478  0.55502723  1
  Se  Se141  1  0.57759773  0.57851621  0.04962547  1
  Se  Se142  1  0.58889259  0.58907705  0.55050110  1
  Se  Se143  1  0.57453681  0.90986240  0.04972292  1
  Se  Se144  1  0.58613502  0.91482424  0.54096008  1
  Se  Se145  1  0.93306895  0.25671085  0.05506284  1
  Se  Se146  1  0.88776290  0.23874713  0.55043093  1
  Se  Se147  1  0.91530406  0.58338942  0.05174276  1
  Se  Se148  1  0.92581613  0.58794708  0.56585908  1
  Se  Se149  1  0.91715743  0.91866940  0.06613576  1
  Se  Se150  1  0.92626560  0.91747832  0.54881746  1
  Se  Se151  1  0.07812454  0.26135152  0.45620236  1
  Se  Se152  1  0.08395454  0.25780379  0.93178818  1
  Se  Se153  1  0.08565293  0.58065285  0.45111327  1
  Se  Se154  1  0.08175179  0.58223559  0.94900815  1
  Se  Se155  1  0.08641609  0.91953427  0.43528599  1
  Se  Se156  1  0.09079220  0.90775270  0.95451039  1
  Se  Se157  1  0.42155141  0.24782574  0.44824095  1
  Se  Se158  1  0.41450872  0.25770351  0.93638718  1
  Se  Se159  1  0.41815324  0.57870523  0.44773277  1
  Se  Se160  1  0.41227679  0.58638499  0.94383153  1
  Se  Se161  1  0.41388730  0.91259492  0.44846082  1
  Se  Se162  1  0.42028373  0.90977659  0.95043932  1
  Se  Se163  1  0.74606476  0.26176582  0.44993687  1
  Se  Se164  1  0.74163247  0.25769346  0.93988389  1
  Se  Se165  1  0.74439228  0.59142157  0.44157452  1
  Se  Se166  1  0.74703906  0.58035506  0.94426495  1
  Se  Se167  1  0.76191986  0.91875347  0.45360677  1
  Se  Se168  1  0.74527745  0.91964716  0.93749487  1
  Se  Se169  1  0.24752997  0.08373161  0.44568839  1
  Se  Se170  1  0.25763798  0.07370637  0.94317998  1
  Se  Se171  1  0.25329914  0.41754959  0.44753077  1
  Se  Se172  1  0.24935367  0.41891502  0.93846552  1
  Se  Se173  1  0.25703738  0.74080053  0.44002405  1
  Se  Se174  1  0.24629798  0.75041240  0.94909143  1
  Se  Se175  1  0.59215367  0.07515800  0.45223817  1
  Se  Se176  1  0.58237531  0.07942967  0.93791750  1
  Se  Se177  1  0.57933519  0.42242569  0.44532721  1
  Se  Se178  1  0.58005131  0.41751532  0.94663496  1
  Se  Se179  1  0.58941064  0.74602938  0.45789492  1
  Se  Se180  1  0.57844173  0.75009172  0.94598306  1
  Se  Se181  1  0.91922228  0.08763556  0.44367787  1
  Se  Se182  1  0.93009963  0.07324597  0.94997638  1
  Se  Se183  1  0.92059966  0.41120286  0.44309322  1
  Se  Se184  1  0.90102324  0.41637852  0.94993771  1
  Se  Se185  1  0.92357696  0.74993674  0.44903017  1
  Se  Se186  1  0.91364339  0.74105776  0.93514946  1
  Se  Se187  1  0.25324107  0.25137993  0.31035531  1
  Se  Se188  1  0.25115267  0.25556697  0.79499078  1
  Se  Se189  1  0.24254442  0.57648046  0.31067681  1
  Se  Se190  1  0.24863588  0.58583903  0.79918408  1
  Se  Se191  1  0.25141086  0.91406517  0.29868642  1
  Se  Se192  1  0.24965404  0.91706660  0.81787967  1
  Se  Se193  1  0.58567147  0.25063292  0.30770762  1
  Se  Se194  1  0.58779104  0.25667535  0.79799280  1
  Se  Se195  1  0.57668441  0.57598519  0.30944710  1
  Se  Se196  1  0.58184036  0.58222147  0.80516524  1
  Se  Se197  1  0.57756126  0.91173198  0.31370227  1
  Se  Se198  1  0.58047399  0.91510328  0.80467011  1
  Se  Se199  1  0.91368776  0.24916223  0.31574483  1
  Se  Se200  1  0.91353787  0.24880376  0.79799228  1
  Se  Se201  1  0.91857510  0.58316651  0.30463411  1
  Se  Se202  1  0.91169632  0.57071635  0.81256094  1
  Se  Se203  1  0.91858162  0.92431696  0.30385487  1
  Se  Se204  1  0.90642290  0.90458586  0.80161939  1
  Se  Se205  1  0.08212701  0.08728885  0.30539999  1
  Se  Se206  1  0.09214006  0.09748082  0.80446673  1
  Se  Se207  1  0.09235918  0.42091652  0.31466917  1
  Se  Se208  1  0.06393777  0.41547637  0.80168648  1
  Se  Se209  1  0.07821533  0.74825798  0.30424149  1
  Se  Se210  1  0.08606148  0.75244255  0.81650620  1
  Se  Se211  1  0.41595518  0.07905909  0.30983406  1
  Se  Se212  1  0.42100685  0.09689481  0.80769048  1
  Se  Se213  1  0.41654079  0.41187278  0.30498782  1
  Se  Se214  1  0.41173094  0.42017857  0.79977977  1
  Se  Se215  1  0.42346158  0.74630029  0.31390344  1
  Se  Se216  1  0.42028320  0.75169988  0.80209627  1
  Se  Se217  1  0.74902351  0.09210322  0.31540594  1
  Se  Se218  1  0.75915945  0.08635328  0.80125954  1
  Se  Se219  1  0.74750790  0.41744241  0.29801613  1
  Se  Se220  1  0.74534430  0.41451995  0.80240043  1
  Se  Se221  1  0.75287878  0.76494335  0.32157033  1
  Se  Se222  1  0.74262249  0.74737127  0.79307075  1
  Se  Se223  1  0.25388574  0.08315411  0.20243232  1
  Se  Se224  1  0.24272729  0.09198456  0.68461055  1
  Se  Se225  1  0.26470162  0.41195041  0.20292935  1
  Se  Se226  1  0.25293079  0.40875333  0.69351816  1
  Se  Se227  1  0.23795951  0.75259318  0.18928038  1
  Se  Se228  1  0.25859485  0.74858240  0.70508763  1
  Se  Se229  1  0.57270207  0.09117911  0.19108908  1
  Se  Se230  1  0.57190919  0.09606407  0.68672841  1
  Se  Se231  1  0.58784830  0.41436843  0.19359034  1
  Se  Se232  1  0.57866902  0.42003971  0.69803716  1
  Se  Se233  1  0.57899051  0.75222821  0.19722295  1
  Se  Se234  1  0.58678045  0.74542945  0.68694480  1
  Se  Se235  1  0.91905201  0.08284413  0.20642192  1
  Se  Se236  1  0.91510741  0.09184861  0.67784387  1
  Se  Se237  1  0.91707709  0.42266058  0.18990424  1
  Se  Se238  1  0.91294195  0.41510315  0.69575730  1
  Se  Se239  1  0.91588617  0.74776097  0.20404316  1
  Se  Se240  1  0.91688112  0.74863504  0.68711225  1
  Se  Se241  1  0.09702250  0.24713971  0.18955869  1
  Se  Se242  1  0.07575318  0.25473425  0.68261512  1
  Se  Se243  1  0.07949393  0.57577776  0.19453146  1
  Se  Se244  1  0.09167399  0.56934311  0.69387164  1
  Se  Se245  1  0.07808478  0.92101383  0.19916928  1
  Se  Se246  1  0.09399477  0.90743261  0.70175821  1
  Se  Se247  1  0.42012553  0.25094655  0.20037470  1
  Se  Se248  1  0.40864016  0.26078569  0.69540598  1
  Se  Se249  1  0.42578508  0.57759954  0.19094986  1
  Se  Se250  1  0.41099527  0.58728830  0.69240166  1
  Se  Se251  1  0.41461467  0.91597095  0.20052076  1
  Se  Se252  1  0.42978742  0.91447832  0.68881419  1
  Se  Se253  1  0.75631332  0.25295472  0.19877988  1
  Se  Se254  1  0.73867013  0.25179014  0.69484686  1
  Se  Se255  1  0.75125389  0.57626143  0.18897232  1
  Se  Se256  1  0.74449830  0.58627107  0.70255523  1
  Se  Se257  1  0.75534531  0.90761306  0.19202024  1
  Se  Se258  1  0.75330577  0.90799297  0.67448959  1
