# generated using pymatgen
data_In86Cu29Se144
_symmetry_space_group_name_H-M   'P 1'
_cell_length_a   17.57516305
_cell_length_b   17.57404928
_cell_length_c   23.43084489
_cell_angle_alpha   90.01430389
_cell_angle_beta   89.98557463
_cell_angle_gamma   90.00696422
_symmetry_Int_Tables_number   1
_chemical_formula_structural   In86Cu29Se144
_chemical_formula_sum   'In86 Cu29 Se144'
_cell_volume   7237.00914033
_cell_formula_units_Z   1
loop_
 _symmetry_equiv_pos_site_id
 _symmetry_equiv_pos_as_xyz
  1  'x, y, z'
loop_
 _atom_site_type_symbol
 _atom_site_label
 _atom_site_symmetry_multiplicity
 _atom_site_fract_x
 _atom_site_fract_y
 _atom_site_fract_z
 _atom_site_occupancy
  In  In0  1  -0.00072021  0.16783735  0.12556126  1
  In  In1  1  -0.01905129  0.16866576  0.62262466  1
  In  In2  1  -0.01752609  0.49770656  0.12194855  1
  In  In3  1  0.00211550  0.50743003  0.62399676  1
  In  In4  1  0.01238263  0.83870825  0.12492245  1
  In  In5  1  -0.00099741  0.82795975  0.63480618  1
  In  In6  1  0.33279818  0.17675998  0.12520803  1
  In  In7  1  0.32948935  0.16835492  0.63211609  1
  In  In8  1  0.32718220  0.49181847  0.12447468  1
  In  In9  1  0.33264077  0.49319439  0.62570211  1
  In  In10  1  0.32830016  0.84343286  0.11945354  1
  In  In11  1  0.34443556  0.83752578  0.61644385  1
  In  In12  1  0.67231562  0.15945699  0.13411508  1
  In  In13  1  0.67196857  0.16531436  0.62778707  1
  In  In14  1  0.67435908  0.48994765  0.13337059  1
  In  In15  1  0.66108473  0.49516706  0.62436329  1
  In  In16  1  0.66757641  0.83431089  0.13390650  1
  In  In17  1  0.66651037  0.84249812  0.63368857  1
  In  In18  1  0.16143392  -0.00398631  0.37375414  1
  In  In19  1  0.16271551  0.00157579  0.87451267  1
  In  In20  1  0.15763147  0.31765653  0.35501690  1
  In  In21  1  0.16535121  0.31931460  0.87710490  1
  In  In22  1  0.17985037  0.67235673  0.38156781  1
  In  In23  1  0.16963028  0.69061688  0.87654726  1
  In  In24  1  0.50392534  -0.01476449  0.37878913  1
  In  In25  1  0.50344757  0.00363321  0.86580231  1
  In  In26  1  0.51185105  0.33867141  0.36702196  1
  In  In27  1  0.50175213  0.34455949  0.85863062  1
  In  In28  1  0.50995471  0.65363624  0.39226620  1
  In  In29  1  0.51534935  0.65810261  0.86850099  1
  In  In30  1  0.84389249  0.00998344  0.37142790  1
  In  In31  1  0.83930244  0.00697890  0.86717115  1
  In  In32  1  0.83285252  0.33466579  0.38253484  1
  In  In33  1  0.83022475  0.34043397  0.88540422  1
  In  In34  1  0.81853201  0.66424051  0.37689321  1
  In  In35  1  0.82658024  0.65869263  0.86183271  1
  In  In36  1  -0.00321421  0.15926358  0.37146438  1
  In  In37  1  0.00728763  0.16022543  0.88460140  1
  In  In38  1  -0.00439537  0.48351965  0.37829583  1
  In  In39  1  -0.01529596  0.49368882  0.87402310  1
  In  In40  1  0.00391114  0.84847147  0.37580294  1
  In  In41  1  0.00184937  0.84898437  0.85996367  1
  In  In42  1  0.32342264  0.16998125  0.36523370  1
  In  In43  1  0.32871958  0.16068645  0.86911713  1
  In  In44  1  0.34484382  0.49542566  0.38083437  1
  In  In45  1  0.34997500  0.50163172  0.87043291  1
  In  In46  1  0.34266922  0.81889066  0.39847114  1
  In  In47  1  0.31289686  0.82981661  0.87597332  1
  In  In48  1  0.67946433  0.18051919  0.36328199  1
  In  In49  1  0.67093682  0.17840073  0.87273459  1
  In  In50  1  0.66795651  0.49753062  0.38068939  1
  In  In51  1  0.67469503  0.50644388  0.86316655  1
  In  In52  1  0.66551708  0.82372152  0.37367103  1
  In  In53  1  0.67941771  0.83723444  0.85375383  1
  In  In54  1  0.15464770  -0.00417448  0.12122113  1
  In  In55  1  0.17329700  -0.00661972  0.63292357  1
  In  In56  1  0.17634637  0.31530875  0.13852500  1
  In  In57  1  0.16740078  0.34299461  0.62573228  1
  In  In58  1  0.16264413  0.67331858  0.11554006  1
  In  In59  1  0.15084060  0.67071786  0.62642374  1
  In  In60  1  0.50299894  0.01145872  0.13039631  1
  In  In61  1  0.50941309  -0.00818754  0.62995711  1
  In  In62  1  0.50341574  0.33039620  0.14228946  1
  In  In63  1  0.49344632  0.34556392  0.62926069  1
  In  In64  1  0.51150883  0.67646372  0.12644106  1
  In  In65  1  0.50416287  0.67643114  0.61718063  1
  In  In66  1  0.82650642  0.01265384  0.12885647  1
  In  In67  1  0.82388456  0.00690992  0.63564158  1
  In  In68  1  0.83638930  0.33174017  0.12691954  1
  In  In69  1  0.82358398  0.31775667  0.60904043  1
  In  In70  1  0.82874038  0.65492863  0.12269562  1
  In  In71  1  0.84463053  0.66040490  0.63497305  1
  In  In72  1  0.49660223  0.17326810  0.00585873  1
  In  In73  1  0.16320163  0.49958112  0.00204190  1
  In  In74  1  0.00009108  0.33123870  0.74849406  1
  In  In75  1  0.33673455  0.67072897  0.75038077  1
  In  In76  1  0.50331987  0.16567692  0.49067034  1
  In  In77  1  0.33440171  -0.00077361  0.25228026  1
  In  In78  1  0.34066447  0.66127122  0.25460055  1
  In  In79  1  0.49511488  0.83198015  -0.00646794  1
  In  In80  1  0.83643073  0.83495913  -0.01123931  1
  In  In81  1  0.16461635  0.50087348  0.49972163  1
  In  In82  1  0.83389031  0.83328295  0.50616120  1
  In  In83  1  -0.00216902  0.66549403  0.24135012  1
  In  In84  1  0.16180500  0.16327063  0.48921437  1
  In  In85  1  0.50327764  0.50099267  -0.00853378  1
  Cu  Cu86  1  0.50614174  0.50344152  0.25944868  1
  Cu  Cu87  1  0.33156031  0.33705236  0.49871624  1
  Cu  Cu88  1  0.67741330  0.33615255  0.00320285  1
  Cu  Cu89  1  0.50936819  0.82778856  0.25551315  1
  Cu  Cu90  1  0.16614879  0.49004431  0.24779285  1
  Cu  Cu91  1  -0.00351888  0.67062799  0.50560716  1
  Cu  Cu92  1  0.67270239  0.66223196  -0.00732619  1
  Cu  Cu93  1  0.16885687  0.50402314  0.74636405  1
  Cu  Cu94  1  0.82576707  0.49812224  0.25287843  1
  Cu  Cu95  1  0.16583872  0.84209276  0.74991228  1
  Cu  Cu96  1  0.16985493  0.83500882  0.25185779  1
  Cu  Cu97  1  0.34019715  -0.00495594  0.50726351  1
  Cu  Cu98  1  0.66121977  0.33627345  0.49704107  1
  Cu  Cu99  1  0.66748654  0.66237691  0.50359751  1
  Cu  Cu100  1  -0.00242805  0.00074404  -0.00372313  1
  Cu  Cu101  1  0.83686824  0.16846444  0.24932424  1
  Cu  Cu102  1  0.50201205  0.16851632  0.74437984  1
  Cu  Cu103  1  0.66645075  0.00474741  0.00467620  1
  Cu  Cu104  1  -0.00124606  0.66930237  -0.00391326  1
  Cu  Cu105  1  0.49758497  0.83744975  0.74423576  1
  Cu  Cu106  1  0.00196375  0.00183455  0.49912471  1
  Cu  Cu107  1  0.16415670  0.16011925  0.75512598  1
  Cu  Cu108  1  0.33404208  0.33212457  0.00025221  1
  Cu  Cu109  1  0.82974342  0.49238224  0.74625518  1
  Cu  Cu110  1  0.83236779  0.16998423  0.75173074  1
  Cu  Cu111  1  0.31605776  0.00049859  -0.00456883  1
  Cu  Cu112  1  0.67326479  0.00002417  0.50621049  1
  Cu  Cu113  1  -0.00212436  0.32898150  0.00517307  1
  Cu  Cu114  1  0.83456184  0.84115653  0.25398056  1
  Se  Se115  1  0.07862188  0.08394048  0.05292473  1
  Se  Se116  1  0.08227981  0.08054943  0.56217070  1
  Se  Se117  1  0.08072691  0.40889624  0.06552798  1
  Se  Se118  1  0.07178351  0.40717798  0.55469024  1
  Se  Se119  1  0.07955795  0.75490144  0.04810867  1
  Se  Se120  1  0.07744592  0.75787905  0.55542052  1
  Se  Se121  1  0.40409546  0.07240570  0.05635831  1
  Se  Se122  1  0.41709513  0.08363360  0.56165707  1
  Se  Se123  1  0.41999414  0.40824653  0.05858028  1
  Se  Se124  1  0.41489689  0.41907917  0.55145126  1
  Se  Se125  1  0.41100230  0.74252308  0.05912259  1
  Se  Se126  1  0.41122235  0.74469686  0.54867749  1
  Se  Se127  1  0.74932643  0.09008956  0.05392973  1
  Se  Se128  1  0.75545987  0.08574924  0.55653440  1
  Se  Se129  1  0.75667711  0.42165832  0.05739596  1
  Se  Se130  1  0.74573637  0.41727296  0.55169513  1
  Se  Se131  1  0.74440244  0.74976215  0.05467778  1
  Se  Se132  1  0.74606430  0.74233749  0.56585120  1
  Se  Se133  1  0.24861947  0.25163248  0.05334622  1
  Se  Se134  1  0.25111791  0.25350843  0.55508179  1
  Se  Se135  1  0.26178536  0.59022497  0.05552660  1
  Se  Se136  1  0.24882960  0.58986421  0.56340670  1
  Se  Se137  1  0.23892682  0.91429207  0.05078164  1
  Se  Se138  1  0.24749942  0.91783944  0.55612946  1
  Se  Se139  1  0.59150893  0.26089572  0.06311258  1
  Se  Se140  1  0.58342918  0.25370480  0.55887296  1
  Se  Se141  1  0.59325706  0.58652346  0.05704860  1
  Se  Se142  1  0.58019996  0.57976076  0.55403971  1
  Se  Se143  1  0.58450090  0.92076765  0.05887265  1
  Se  Se144  1  0.58881977  0.91496305  0.55554623  1
  Se  Se145  1  0.91139301  0.24560097  0.05529287  1
  Se  Se146  1  0.92119308  0.24962492  0.54444822  1
  Se  Se147  1  0.91520035  0.58689399  0.04888161  1
  Se  Se148  1  0.91459687  0.58408066  0.55474040  1
  Se  Se149  1  0.91765375  0.92146432  0.05840604  1
  Se  Se150  1  0.92176591  0.92655087  0.56394436  1
  Se  Se151  1  0.07399367  0.26151841  0.43878496  1
  Se  Se152  1  0.08488968  0.24918505  0.95251591  1
  Se  Se153  1  0.07321774  0.59215376  0.43901939  1
  Se  Se154  1  0.07835416  0.58681834  0.93566413  1
  Se  Se155  1  0.08792602  0.91733417  0.45057126  1
  Se  Se156  1  0.07762820  0.91562947  0.94107400  1
  Se  Se157  1  0.40752911  0.25610699  0.43611703  1
  Se  Se158  1  0.41610843  0.25918438  0.93582533  1
  Se  Se159  1  0.39370987  0.60073856  0.44612133  1
  Se  Se160  1  0.41195568  0.60047909  0.94203348  1
  Se  Se161  1  0.42726000  0.91320980  0.45616413  1
  Se  Se162  1  0.40739801  0.92877754  0.93725852  1
  Se  Se163  1  0.74498276  0.24806605  0.44793960  1
  Se  Se164  1  0.75334395  0.24580433  0.94987771  1
  Se  Se165  1  0.75181540  0.57960675  0.45143044  1
  Se  Se166  1  0.75481190  0.57832250  0.94002286  1
  Se  Se167  1  0.75100256  0.92161649  0.43995211  1
  Se  Se168  1  0.73774688  0.92475396  0.93759984  1
  Se  Se169  1  0.26487320  0.07209996  0.44130242  1
  Se  Se170  1  0.24180994  0.09150029  0.94281740  1
  Se  Se171  1  0.24409205  0.40511697  0.43481759  1
  Se  Se172  1  0.25806939  0.41520446  0.93885984  1
  Se  Se173  1  0.23442468  0.76035287  0.45764850  1
  Se  Se174  1  0.25029483  0.75168078  0.95554754  1
  Se  Se175  1  0.59958984  0.07627807  0.43780064  1
  Se  Se176  1  0.58419257  0.08266048  0.94379305  1
  Se  Se177  1  0.57466071  0.41932001  0.44690541  1
  Se  Se178  1  0.59486219  0.40736572  0.93771267  1
  Se  Se179  1  0.58867566  0.75226445  0.45160884  1
  Se  Se180  1  0.59643442  0.75012981  0.93630277  1
  Se  Se181  1  0.91781898  0.08593648  0.44875747  1
  Se  Se182  1  0.91003407  0.08276476  0.94616725  1
  Se  Se183  1  0.90397224  0.42762512  0.45132422  1
  Se  Se184  1  0.91817187  0.41781179  0.95420801  1
  Se  Se185  1  0.92139445  0.74769650  0.43778664  1
  Se  Se186  1  0.92238775  0.74310003  0.92886100  1
  Se  Se187  1  0.25323466  0.24857459  0.29030365  1
  Se  Se188  1  0.24785971  0.24982935  0.80217022  1
  Se  Se189  1  0.24182268  0.57232438  0.30946419  1
  Se  Se190  1  0.24335320  0.58313426  0.81236785  1
  Se  Se191  1  0.25684648  0.90102833  0.31642275  1
  Se  Se192  1  0.25053609  0.92234913  0.80445260  1
  Se  Se193  1  0.57720750  0.24321156  0.30056950  1
  Se  Se194  1  0.58448747  0.25031354  0.80054027  1
  Se  Se195  1  0.58774673  0.58760107  0.31230650  1
  Se  Se196  1  0.56903444  0.56184823  0.79845826  1
  Se  Se197  1  0.59068027  0.91587763  0.30546291  1
  Se  Se198  1  0.58383663  0.92062868  0.79692730  1
  Se  Se199  1  0.91208206  0.25014660  0.31069537  1
  Se  Se200  1  0.91446665  0.24635333  0.81489473  1
  Se  Se201  1  0.91213606  0.58083256  0.30875991  1
  Se  Se202  1  0.91703647  0.57503369  0.79781804  1
  Se  Se203  1  0.92338590  0.92197392  0.30239508  1
  Se  Se204  1  0.88915271  0.90013939  0.80080498  1
  Se  Se205  1  0.10243278  0.09660001  0.30953369  1
  Se  Se206  1  0.07466435  0.08107089  0.80548476  1
  Se  Se207  1  0.07446492  0.41587268  0.29960133  1
  Se  Se208  1  0.09151046  0.42181958  0.80977562  1
  Se  Se209  1  0.08836603  0.74973325  0.30794091  1
  Se  Se210  1  0.08462837  0.75344684  0.80037030  1
  Se  Se211  1  0.42721570  0.08369239  0.31315671  1
  Se  Se212  1  0.41833368  0.08667047  0.80032906  1
  Se  Se213  1  0.41640978  0.41820322  0.30397993  1
  Se  Se214  1  0.40937537  0.41811028  0.79383676  1
  Se  Se215  1  0.42649831  0.75178699  0.31612901  1
  Se  Se216  1  0.42517865  0.76126648  0.81382986  1
  Se  Se217  1  0.75383377  0.08170074  0.30178634  1
  Se  Se218  1  0.74649657  0.08796849  0.80476498  1
  Se  Se219  1  0.74781881  0.41385049  0.31042290  1
  Se  Se220  1  0.75426571  0.40711622  0.80482827  1
  Se  Se221  1  0.75395049  0.75109100  0.30196215  1
  Se  Se222  1  0.72803957  0.72411746  0.79643216  1
  Se  Se223  1  0.24605428  0.08172662  0.18719202  1
  Se  Se224  1  0.25189778  0.08165871  0.70028602  1
  Se  Se225  1  0.25765957  0.41098030  0.19900843  1
  Se  Se226  1  0.25045011  0.41568473  0.69847367  1
  Se  Se227  1  0.24835937  0.75214299  0.19232864  1
  Se  Se228  1  0.24514682  0.75866488  0.68958644  1
  Se  Se229  1  0.58630018  0.08052148  0.20176530  1
  Se  Se230  1  0.58754345  0.08263941  0.69514021  1
  Se  Se231  1  0.58800905  0.41745363  0.20495914  1
  Se  Se232  1  0.59413285  0.40364205  0.69568897  1
  Se  Se233  1  0.59258631  0.74388690  0.20258905  1
  Se  Se234  1  0.58038361  0.75097296  0.69405801  1
  Se  Se235  1  0.91967141  0.08228071  0.19702063  1
  Se  Se236  1  0.91725061  0.08621446  0.70048938  1
  Se  Se237  1  0.91336701  0.41899740  0.19907074  1
  Se  Se238  1  0.91095056  0.41448878  0.68447864  1
  Se  Se239  1  0.90647583  0.76075591  0.18564651  1
  Se  Se240  1  0.91464424  0.75137152  0.70361197  1
  Se  Se241  1  0.06554377  0.26150867  0.19598136  1
  Se  Se242  1  0.09033558  0.23952955  0.68798941  1
  Se  Se243  1  0.09362746  0.57414102  0.18496683  1
  Se  Se244  1  0.07905121  0.58514202  0.69930966  1
  Se  Se245  1  0.08439626  0.91799494  0.20120867  1
  Se  Se246  1  0.07720516  0.92256372  0.69879589  1
  Se  Se247  1  0.42422154  0.23401938  0.19819026  1
  Se  Se248  1  0.41539008  0.25309189  0.69503948  1
  Se  Se249  1  0.42900798  0.57387473  0.18847778  1
  Se  Se250  1  0.42216292  0.58335926  0.68756382  1
  Se  Se251  1  0.42679840  0.90365196  0.19326472  1
  Se  Se252  1  0.41077844  0.91998772  0.69429121  1
  Se  Se253  1  0.75186791  0.25220624  0.19701216  1
  Se  Se254  1  0.75394753  0.25340587  0.69427471  1
  Se  Se255  1  0.74760417  0.58659369  0.19925329  1
  Se  Se256  1  0.74874035  0.57721503  0.69262239  1
  Se  Se257  1  0.75074383  0.92153895  0.19661508  1
  Se  Se258  1  0.75923608  0.91015377  0.70286137  1
