# generated using pymatgen
data_In86Cu29Se144
_symmetry_space_group_name_H-M   'P 1'
_cell_length_a   17.57658024
_cell_length_b   17.58061986
_cell_length_c   23.43529303
_cell_angle_alpha   89.99164389
_cell_angle_beta   89.99233750
_cell_angle_gamma   90.00922197
_symmetry_Int_Tables_number   1
_chemical_formula_structural   In86Cu29Se144
_chemical_formula_sum   'In86 Cu29 Se144'
_cell_volume   7241.67347725
_cell_formula_units_Z   1
loop_
 _symmetry_equiv_pos_site_id
 _symmetry_equiv_pos_as_xyz
  1  'x, y, z'
loop_
 _atom_site_type_symbol
 _atom_site_label
 _atom_site_symmetry_multiplicity
 _atom_site_fract_x
 _atom_site_fract_y
 _atom_site_fract_z
 _atom_site_occupancy
  In  In0  1  -0.00914592  0.15697265  0.11798771  1
  In  In1  1  0.00131769  0.16513999  0.62913774  1
  In  In2  1  0.01725860  0.52573809  0.09765324  1
  In  In3  1  -0.01146977  0.51268038  0.63372447  1
  In  In4  1  0.00485354  0.82983257  0.12168312  1
  In  In5  1  0.00526695  0.82743770  0.62948308  1
  In  In6  1  0.29839517  0.12315441  0.09158923  1
  In  In7  1  0.32498699  0.17738313  0.62388760  1
  In  In8  1  0.33297833  0.51938948  0.12873286  1
  In  In9  1  0.33669233  0.48542188  0.61541521  1
  In  In10  1  0.29935948  0.85876870  0.15034659  1
  In  In11  1  0.32439236  0.84184757  0.62105085  1
  In  In12  1  0.66814142  0.16372804  0.10699980  1
  In  In13  1  0.66938785  0.15285788  0.63190090  1
  In  In14  1  0.67887666  0.50767572  0.11916013  1
  In  In15  1  0.67335938  0.50516596  0.62394907  1
  In  In16  1  0.66156810  0.82173268  0.12110033  1
  In  In17  1  0.66784316  0.82736109  0.64252081  1
  In  In18  1  0.16452884  -0.00221130  0.37187526  1
  In  In19  1  0.16235019  0.01427267  0.88742038  1
  In  In20  1  0.15324144  0.33232308  0.37903024  1
  In  In21  1  0.15807752  0.34385178  0.88329868  1
  In  In22  1  0.17199835  0.67961889  0.36151749  1
  In  In23  1  0.13761448  0.68510971  0.90253389  1
  In  In24  1  0.48860682  0.01320618  0.37193808  1
  In  In25  1  0.51679888  -0.01015954  0.88098417  1
  In  In26  1  0.51372911  0.33512698  0.37944752  1
  In  In27  1  0.49402699  0.33145396  0.86946912  1
  In  In28  1  0.49610865  0.66294118  0.37271248  1
  In  In29  1  0.51031762  0.66988804  0.86618974  1
  In  In30  1  0.84743718  -0.00303016  0.37643490  1
  In  In31  1  0.83799803  -0.00800065  0.87776672  1
  In  In32  1  0.83638283  0.33578185  0.38579095  1
  In  In33  1  0.84417524  0.32019718  0.87626147  1
  In  In34  1  0.83467790  0.66420324  0.36901061  1
  In  In35  1  0.84509325  0.67258969  0.88577993  1
  In  In36  1  0.00763249  0.16253947  0.38097208  1
  In  In37  1  0.00255481  0.16257317  0.87357662  1
  In  In38  1  -0.01012380  0.50085102  0.37547733  1
  In  In39  1  -0.00048707  0.50099603  0.87670969  1
  In  In40  1  0.01863249  0.85118923  0.35378334  1
  In  In41  1  -0.00306681  0.83215498  0.88021020  1
  In  In42  1  0.32739373  0.15033422  0.36832946  1
  In  In43  1  0.33223217  0.16833765  0.88986980  1
  In  In44  1  0.32749433  0.51597206  0.37697352  1
  In  In45  1  0.32858653  0.49570807  0.87486281  1
  In  In46  1  0.31948158  0.82786196  0.36326844  1
  In  In47  1  0.32496779  0.82810859  0.88361032  1
  In  In48  1  0.66629465  0.17861027  0.37718073  1
  In  In49  1  0.68954048  0.13937368  0.89309217  1
  In  In50  1  0.67016694  0.50563814  0.38298662  1
  In  In51  1  0.67209140  0.52639977  0.86480885  1
  In  In52  1  0.68359071  0.82821633  0.37210477  1
  In  In53  1  0.68761631  0.85421865  0.86363694  1
  In  In54  1  0.15255639  -0.00885542  0.12468611  1
  In  In55  1  0.15709045  -0.00898416  0.62097755  1
  In  In56  1  0.16218546  0.32827254  0.11907921  1
  In  In57  1  0.17067054  0.31942720  0.62471582  1
  In  In58  1  0.16159824  0.67633246  0.11790305  1
  In  In59  1  0.15103077  0.66793796  0.62461186  1
  In  In60  1  0.48746112  -0.00501519  0.11649370  1
  In  In61  1  0.50126241  0.00713945  0.63294095  1
  In  In62  1  0.50366647  0.32511647  0.12641709  1
  In  In63  1  0.48809611  0.34013984  0.62218479  1
  In  In64  1  0.49738384  0.67555556  0.13588849  1
  In  In65  1  0.51533122  0.66058591  0.63028027  1
  In  In66  1  0.84145935  0.00978333  0.11470284  1
  In  In67  1  0.82908272  0.00503740  0.63197958  1
  In  In68  1  0.83455111  0.33575973  0.11703192  1
  In  In69  1  0.84268006  0.34041801  0.62559108  1
  In  In70  1  0.83477020  0.66514723  0.11983763  1
  In  In71  1  0.83736288  0.66120866  0.63076765  1
  In  In72  1  0.67069193  0.33793102  0.24903915  1
  In  In73  1  0.66646980  0.33149707  0.74621901  1
  In  In74  1  -0.00622169  0.33763212  0.25088241  1
  In  In75  1  0.33831911  0.33177012  0.25092752  1
  In  In76  1  0.49852318  0.50240416  -0.00785135  1
  In  In77  1  0.16437476  0.49637046  0.49838046  1
  In  In78  1  0.49607937  0.83365129  0.00123617  1
  In  In79  1  0.33649345  -0.00400131  0.75286957  1
  In  In80  1  0.84309728  0.82850575  0.50123611  1
  In  In81  1  0.49538059  0.17209350  0.50504639  1
  In  In82  1  0.49629827  0.83189119  0.50198020  1
  In  In83  1  0.32952512  0.66316796  0.75575063  1
  In  In84  1  0.32778561  0.33428503  0.74972537  1
  In  In85  1  0.66672187  -0.00813733  0.24655131  1
  Cu  Cu86  1  0.66869034  0.00366512  0.50954619  1
  Cu  Cu87  1  0.00128291  0.67226227  0.49974295  1
  Cu  Cu88  1  0.50172842  0.83108951  0.24873230  1
  Cu  Cu89  1  0.83894517  0.82748723  0.24390539  1
  Cu  Cu90  1  0.67066540  0.65982010  0.50114664  1
  Cu  Cu91  1  0.50781346  0.50890866  0.25704408  1
  Cu  Cu92  1  0.16216542  0.15596758  0.24706835  1
  Cu  Cu93  1  0.33332985  0.66757722  0.49265471  1
  Cu  Cu94  1  0.83795193  0.50899758  0.24321166  1
  Cu  Cu95  1  0.31945045  -0.00148388  0.49602212  1
  Cu  Cu96  1  0.66659577  0.33551296  -0.00770662  1
  Cu  Cu97  1  0.50883443  0.16134813  0.75826417  1
  Cu  Cu98  1  0.16201882  0.16454629  0.75266116  1
  Cu  Cu99  1  0.32756212  0.67101164  0.00560156  1
  Cu  Cu100  1  -0.00301948  0.32633344  -0.00460185  1
  Cu  Cu101  1  0.83489228  0.15917530  0.24539956  1
  Cu  Cu102  1  -0.00351168  0.33210544  0.50601027  1
  Cu  Cu103  1  0.15616992  0.50521851  0.75586343  1
  Cu  Cu104  1  0.00481946  0.00724645  0.49842164  1
  Cu  Cu105  1  0.49027869  0.16039846  0.23932057  1
  Cu  Cu106  1  0.33448487  0.33671993  0.00260794  1
  Cu  Cu107  1  0.15700174  0.83129905  0.75630967  1
  Cu  Cu108  1  0.00124087  -0.00168600  -0.00200926  1
  Cu  Cu109  1  0.66976793  0.67085272  -0.00284723  1
  Cu  Cu110  1  0.84020193  0.82821023  0.75509319  1
  Cu  Cu111  1  0.83364020  0.50321942  0.75265294  1
  Cu  Cu112  1  0.16647987  0.51124116  0.24040343  1
  Cu  Cu113  1  0.67575485  0.33638755  0.50480058  1
  Cu  Cu114  1  0.84210888  0.15679631  0.75716488  1
  Se  Se115  1  0.08348392  0.08293766  0.05217802  1
  Se  Se116  1  0.08671658  0.08813186  0.55616462  1
  Se  Se117  1  0.08057406  0.40849826  0.04950341  1
  Se  Se118  1  0.07565434  0.41556111  0.56602427  1
  Se  Se119  1  0.06183205  0.73370297  0.04607133  1
  Se  Se120  1  0.08500105  0.75632607  0.55107302  1
  Se  Se121  1  0.43349258  0.10053875  0.05302024  1
  Se  Se122  1  0.40388693  0.07232101  0.55931496  1
  Se  Se123  1  0.41414102  0.41839059  0.06266622  1
  Se  Se124  1  0.41293242  0.40650536  0.54358335  1
  Se  Se125  1  0.40817828  0.74987516  0.06587305  1
  Se  Se126  1  0.40908034  0.73973442  0.56258487  1
  Se  Se127  1  0.75287999  0.08076844  0.04438893  1
  Se  Se128  1  0.75567918  0.08739722  0.55649333  1
  Se  Se129  1  0.74668412  0.41602590  0.05008418  1
  Se  Se130  1  0.75772477  0.42154095  0.55751376  1
  Se  Se131  1  0.75269805  0.75298360  0.05124054  1
  Se  Se132  1  0.74385829  0.74750273  0.56139538  1
  Se  Se133  1  0.24744345  0.25102626  0.04974969  1
  Se  Se134  1  0.25770960  0.25852029  0.54939541  1
  Se  Se135  1  0.24601759  0.58172839  0.05395984  1
  Se  Se136  1  0.25306138  0.59095850  0.55853693  1
  Se  Se137  1  0.25129766  0.92017021  0.05871168  1
  Se  Se138  1  0.23953092  0.91166798  0.54862466  1
  Se  Se139  1  0.58331925  0.25762238  0.04918202  1
  Se  Se140  1  0.59403107  0.25632408  0.56554193  1
  Se  Se141  1  0.58207458  0.59506760  0.05649372  1
  Se  Se142  1  0.58322923  0.57968653  0.55314333  1
  Se  Se143  1  0.59331280  0.92444020  0.05573249  1
  Se  Se144  1  0.58870479  0.91930868  0.56440690  1
  Se  Se145  1  0.91272075  0.24593000  0.05145596  1
  Se  Se146  1  0.91562846  0.24636765  0.55942706  1
  Se  Se147  1  0.88929888  0.55986976  0.05272653  1
  Se  Se148  1  0.91878742  0.58963089  0.55411451  1
  Se  Se149  1  0.92050924  0.91505720  0.05375330  1
  Se  Se150  1  0.92536335  0.92575315  0.56076417  1
  Se  Se151  1  0.08101480  0.25063450  0.45234679  1
  Se  Se152  1  0.08531907  0.24438092  0.94474036  1
  Se  Se153  1  0.08148871  0.59160337  0.43765349  1
  Se  Se154  1  0.09388970  0.56174753  0.94989546  1
  Se  Se155  1  0.07880203  0.91771283  0.44191838  1
  Se  Se156  1  0.08582111  0.91493378  0.94624038  1
  Se  Se157  1  0.41147027  0.24863657  0.43226334  1
  Se  Se158  1  0.42048232  0.25925460  0.94778977  1
  Se  Se159  1  0.42116466  0.58210092  0.44757103  1
  Se  Se160  1  0.40770091  0.59991988  0.93804265  1
  Se  Se161  1  0.40816431  0.92180832  0.43955845  1
  Se  Se162  1  0.40593394  0.92736226  0.94374333  1
  Se  Se163  1  0.75180892  0.24825606  0.44964433  1
  Se  Se164  1  0.75558220  0.24895236  0.94785585  1
  Se  Se165  1  0.76171182  0.58589521  0.44696837  1
  Se  Se166  1  0.75158688  0.58471171  0.94591184  1
  Se  Se167  1  0.74625238  0.92392487  0.44680246  1
  Se  Se168  1  0.75269883  0.91490347  0.94900615  1
  Se  Se169  1  0.24112346  0.08660630  0.44364619  1
  Se  Se170  1  0.25464718  0.08182692  0.95699818  1
  Se  Se171  1  0.25688009  0.40900427  0.43811610  1
  Se  Se172  1  0.25181703  0.41972524  0.94902025  1
  Se  Se173  1  0.24842362  0.74975975  0.44134786  1
  Se  Se174  1  0.24260774  0.75870756  0.95849179  1
  Se  Se175  1  0.58760871  0.07844679  0.44515002  1
  Se  Se176  1  0.56952993  0.09490832  0.94622087  1
  Se  Se177  1  0.59047030  0.41687335  0.44996317  1
  Se  Se178  1  0.59201180  0.41812753  0.93061221  1
  Se  Se179  1  0.59454122  0.74673359  0.44283728  1
  Se  Se180  1  0.58981166  0.75169596  0.93805279  1
  Se  Se181  1  0.91471456  0.08641148  0.44782215  1
  Se  Se182  1  0.91883011  0.08250087  0.94372806  1
  Se  Se183  1  0.91908900  0.42090386  0.45207128  1
  Se  Se184  1  0.91532125  0.41353155  0.94365666  1
  Se  Se185  1  0.92980344  0.75142514  0.43198767  1
  Se  Se186  1  0.94437224  0.73300770  0.95561320  1
  Se  Se187  1  0.23521618  0.24557450  0.30588140  1
  Se  Se188  1  0.24416209  0.24366292  0.81324102  1
  Se  Se189  1  0.25286866  0.58577817  0.29867277  1
  Se  Se190  1  0.23388319  0.58428376  0.81780766  1
  Se  Se191  1  0.25363786  0.92718278  0.30056019  1
  Se  Se192  1  0.24043841  0.91205387  0.81258761  1
  Se  Se193  1  0.57163801  0.24048851  0.29971624  1
  Se  Se194  1  0.59072870  0.24108334  0.81577361  1
  Se  Se195  1  0.59421888  0.58756388  0.31021547  1
  Se  Se196  1  0.57068706  0.57648946  0.79589750  1
  Se  Se197  1  0.57613565  0.91009394  0.31556912  1
  Se  Se198  1  0.58136702  0.91409266  0.80180234  1
  Se  Se199  1  0.90625266  0.24352033  0.31000830  1
  Se  Se200  1  0.92481747  0.24794591  0.80140908  1
  Se  Se201  1  0.92327537  0.58570690  0.30043037  1
  Se  Se202  1  0.91527340  0.58530577  0.80971558  1
  Se  Se203  1  0.91189185  0.92054117  0.29653386  1
  Se  Se204  1  0.92256441  0.91465466  0.80599057  1
  Se  Se205  1  0.07560123  0.08098280  0.30454793  1
  Se  Se206  1  0.08463604  0.07565477  0.80500233  1
  Se  Se207  1  0.09226190  0.42998199  0.30488392  1
  Se  Se208  1  0.07895619  0.41307841  0.80556495  1
  Se  Se209  1  0.07881771  0.74570050  0.29345107  1
  Se  Se210  1  0.07980888  0.74446604  0.81127287  1
  Se  Se211  1  0.40822462  0.07762353  0.29318063  1
  Se  Se212  1  0.41891479  0.08883403  0.81562208  1
  Se  Se213  1  0.42697873  0.42383710  0.31279445  1
  Se  Se214  1  0.42294926  0.42936267  0.80091115  1
  Se  Se215  1  0.41844324  0.74955017  0.30479129  1
  Se  Se216  1  0.41720698  0.76321380  0.80901635  1
  Se  Se217  1  0.75041920  0.08786997  0.30991896  1
  Se  Se218  1  0.75360655  0.07492810  0.80674561  1
  Se  Se219  1  0.76431424  0.42488872  0.30783751  1
  Se  Se220  1  0.75490555  0.41795739  0.81072654  1
  Se  Se221  1  0.75367719  0.74700274  0.29791691  1
  Se  Se222  1  0.75817383  0.74518292  0.81107676  1
  Se  Se223  1  0.24420939  0.07826987  0.18884076  1
  Se  Se224  1  0.24633204  0.08719711  0.69240448  1
  Se  Se225  1  0.24454673  0.41969451  0.18954047  1
  Se  Se226  1  0.23661547  0.42886757  0.69184998  1
  Se  Se227  1  0.26121594  0.72946948  0.18996922  1
  Se  Se228  1  0.24095270  0.75671220  0.69370191  1
  Se  Se229  1  0.58372224  0.08699190  0.18558793  1
  Se  Se230  1  0.58940683  0.07607113  0.70514764  1
  Se  Se231  1  0.57828833  0.42849533  0.19033262  1
  Se  Se232  1  0.57516837  0.42239121  0.68960444  1
  Se  Se233  1  0.59155165  0.74921771  0.20205781  1
  Se  Se234  1  0.58020063  0.74521230  0.70418841  1
  Se  Se235  1  0.91959298  0.07692514  0.19507445  1
  Se  Se236  1  0.92375828  0.07685617  0.69838761  1
  Se  Se237  1  0.91586814  0.42654606  0.18387466  1
  Se  Se238  1  0.91780135  0.41806047  0.70139609  1
  Se  Se239  1  0.91939951  0.74447217  0.18927752  1
  Se  Se240  1  0.92013790  0.74653953  0.69678679  1
  Se  Se241  1  0.08177280  0.24265921  0.19208620  1
  Se  Se242  1  0.08439588  0.25133554  0.69793087  1
  Se  Se243  1  0.07913662  0.58721232  0.18632049  1
  Se  Se244  1  0.07770642  0.59168756  0.70089246  1
  Se  Se245  1  0.08380657  0.90434871  0.19711886  1
  Se  Se246  1  0.08179397  0.91730504  0.69849481  1
  Se  Se247  1  0.40759705  0.23857636  0.18181921  1
  Se  Se248  1  0.42685815  0.23912430  0.69672247  1
  Se  Se249  1  0.41953241  0.58565817  0.20286341  1
  Se  Se250  1  0.41086871  0.57604379  0.68674716  1
  Se  Se251  1  0.42171052  0.91734987  0.19632216  1
  Se  Se252  1  0.42412793  0.90313616  0.69171637  1
  Se  Se253  1  0.75344752  0.24132874  0.18847742  1
  Se  Se254  1  0.76389140  0.23873504  0.69452498  1
  Se  Se255  1  0.74731938  0.58908525  0.19453162  1
  Se  Se256  1  0.74798496  0.58486557  0.69933794  1
  Se  Se257  1  0.75836222  0.90971256  0.18378986  1
  Se  Se258  1  0.75731766  0.91340349  0.70122016  1
