# generated using pymatgen
data_In86Cu29Se144
_symmetry_space_group_name_H-M   'P 1'
_cell_length_a   17.58458087
_cell_length_b   17.58492083
_cell_length_c   23.44865756
_cell_angle_alpha   89.94449330
_cell_angle_beta   89.98749541
_cell_angle_gamma   89.99250387
_symmetry_Int_Tables_number   1
_chemical_formula_structural   In86Cu29Se144
_chemical_formula_sum   'In86 Cu29 Se144'
_cell_volume   7250.87144139
_cell_formula_units_Z   1
loop_
 _symmetry_equiv_pos_site_id
 _symmetry_equiv_pos_as_xyz
  1  'x, y, z'
loop_
 _atom_site_type_symbol
 _atom_site_label
 _atom_site_symmetry_multiplicity
 _atom_site_fract_x
 _atom_site_fract_y
 _atom_site_fract_z
 _atom_site_occupancy
  In  In0  1  0.00643434  0.15797145  0.13233188  1
  In  In1  1  -0.00973308  0.15671909  0.61775537  1
  In  In2  1  -0.00085377  0.50310595  0.12606819  1
  In  In3  1  -0.00907380  0.50934239  0.62511407  1
  In  In4  1  0.00277793  0.82570173  0.12985833  1
  In  In5  1  0.00044813  0.84343291  0.62520671  1
  In  In6  1  0.32739432  0.16712248  0.12460441  1
  In  In7  1  0.32011065  0.15945680  0.62250388  1
  In  In8  1  0.32804078  0.49501254  0.11875458  1
  In  In9  1  0.34575383  0.50547206  0.63137676  1
  In  In10  1  0.32790082  0.84864492  0.12298624  1
  In  In11  1  0.33859766  0.82957697  0.63183081  1
  In  In12  1  0.66663733  0.16364916  0.13339623  1
  In  In13  1  0.66739879  0.14857453  0.62040404  1
  In  In14  1  0.66467184  0.49841816  0.12837707  1
  In  In15  1  0.67456608  0.49837698  0.62307451  1
  In  In16  1  0.66034429  0.83254367  0.13537844  1
  In  In17  1  0.66875808  0.83249136  0.62020190  1
  In  In18  1  0.17397809  0.00171588  0.36679519  1
  In  In19  1  0.16957493  0.00340017  0.87998918  1
  In  In20  1  0.17040745  0.33723768  0.35855809  1
  In  In21  1  0.16762949  0.33681617  0.88661465  1
  In  In22  1  0.16064605  0.68042260  0.37064357  1
  In  In23  1  0.17742916  0.65659466  0.88063741  1
  In  In24  1  0.49282181  -0.01374920  0.37434996  1
  In  In25  1  0.49451418  -0.00575770  0.86863649  1
  In  In26  1  0.51140299  0.35087492  0.34882484  1
  In  In27  1  0.51093314  0.34173680  0.88108070  1
  In  In28  1  0.54356706  0.67332400  0.36937448  1
  In  In29  1  0.49579193  0.66701659  0.87368894  1
  In  In30  1  0.83638488  0.00118100  0.37578371  1
  In  In31  1  0.82532644  -0.00852458  0.86663438  1
  In  In32  1  0.83435937  0.33304992  0.37103401  1
  In  In33  1  0.84277456  0.33336464  0.88175666  1
  In  In34  1  0.82553772  0.66575012  0.37912694  1
  In  In35  1  0.82358309  0.66970228  0.87282951  1
  In  In36  1  -0.00554219  0.15883983  0.36565997  1
  In  In37  1  0.01109018  0.16294052  0.88161477  1
  In  In38  1  -0.00977804  0.49159828  0.36317847  1
  In  In39  1  0.00576541  0.49640918  0.88684699  1
  In  In40  1  -0.01004388  0.82442819  0.36729710  1
  In  In41  1  0.00564842  0.84777538  0.87179059  1
  In  In42  1  0.33535703  0.16408495  0.36839000  1
  In  In43  1  0.32656512  0.15156639  0.87760751  1
  In  In44  1  0.35262570  0.49906078  0.36583096  1
  In  In45  1  0.32351709  0.51851244  0.88848928  1
  In  In46  1  0.34057926  0.84679299  0.37755431  1
  In  In47  1  0.32461807  0.83227789  0.87046271  1
  In  In48  1  0.67531534  0.17532539  0.36905072  1
  In  In49  1  0.66999723  0.16025590  0.87461089  1
  In  In50  1  0.67913494  0.51539026  0.35891319  1
  In  In51  1  0.66114559  0.50897713  0.88585986  1
  In  In52  1  0.66514292  0.83471505  0.38019493  1
  In  In53  1  0.66901916  0.83189852  0.86589220  1
  In  In54  1  0.16526421  -0.00105613  0.11794236  1
  In  In55  1  0.17519760  -0.02301963  0.65068959  1
  In  In56  1  0.16468055  0.33292132  0.12517052  1
  In  In57  1  0.17633456  0.32821419  0.62447006  1
  In  In58  1  0.15923637  0.65983958  0.11538719  1
  In  In59  1  0.16898866  0.67869525  0.63546453  1
  In  In60  1  0.49619517  0.00004174  0.13179506  1
  In  In61  1  0.50704171  -0.00792763  0.62742022  1
  In  In62  1  0.48925330  0.34380097  0.13906400  1
  In  In63  1  0.50500731  0.34228658  0.62155944  1
  In  In64  1  0.51535648  0.66448162  0.13104607  1
  In  In65  1  0.49629712  0.67485067  0.63146168  1
  In  In66  1  0.82763788  0.00287821  0.13306456  1
  In  In67  1  0.83458875  -0.00652762  0.61936893  1
  In  In68  1  0.82180799  0.34507589  0.13612715  1
  In  In69  1  0.83617204  0.33140211  0.61198249  1
  In  In70  1  0.83783395  0.65687501  0.13421878  1
  In  In71  1  0.81813341  0.65803530  0.61087333  1
  In  In72  1  0.83454577  0.83285879  -0.00464402  1
  In  In73  1  0.15442433  0.15613073  0.48756594  1
  In  In74  1  0.33326960  0.66564675  0.24865028  1
  In  In75  1  0.49460074  0.83221144  -0.00160828  1
  In  In76  1  0.16098909  0.50137890  0.50404720  1
  In  In77  1  0.50581319  0.50647350  0.49349128  1
  In  In78  1  0.83401327  0.16869227  0.01264540  1
  In  In79  1  0.33668223  0.33608439  0.74880404  1
  In  In80  1  0.49481829  0.16796830  0.00404997  1
  In  In81  1  0.16409347  0.83533953  0.50831930  1
  In  In82  1  0.50124706  0.16525868  0.49628708  1
  In  In83  1  0.00340094  0.32853692  0.76111508  1
  In  In84  1  0.00123332  0.66978111  0.75139369  1
  In  In85  1  0.66869667  0.33165069  0.74664905  1
  Cu  Cu86  1  -0.01180923  0.66073318  0.49550469  1
  Cu  Cu87  1  -0.00039006  0.00323599  0.00084075  1
  Cu  Cu88  1  0.16300276  0.50409678  0.23990644  1
  Cu  Cu89  1  0.33990114  0.66997640  0.50464395  1
  Cu  Cu90  1  0.67620253  0.33382855  0.49188794  1
  Cu  Cu91  1  0.82904214  0.83656716  0.25493235  1
  Cu  Cu92  1  0.33924458  0.66570959  -0.00013792  1
  Cu  Cu93  1  0.83215892  0.50707382  0.25005453  1
  Cu  Cu94  1  0.50195350  0.83227976  0.25275561  1
  Cu  Cu95  1  0.50402293  0.83741016  0.74846818  1
  Cu  Cu96  1  0.66709549  0.34096397  0.00952584  1
  Cu  Cu97  1  0.67430226  -0.00025935  0.49845168  1
  Cu  Cu98  1  0.33469923  0.33114549  0.48545974  1
  Cu  Cu99  1  -0.00061688  0.34206997  0.00709330  1
  Cu  Cu100  1  0.49582706  0.15883498  0.74708957  1
  Cu  Cu101  1  0.00385192  -0.00158466  0.49817888  1
  Cu  Cu102  1  0.49765772  0.51642548  0.75966297  1
  Cu  Cu103  1  0.82996184  0.83088567  0.74238384  1
  Cu  Cu104  1  -0.00739646  0.33666738  0.49225149  1
  Cu  Cu105  1  0.83371807  0.15135089  0.74452032  1
  Cu  Cu106  1  0.16774585  0.16269022  0.24416634  1
  Cu  Cu107  1  0.83869116  0.16705366  0.25174909  1
  Cu  Cu108  1  0.33498399  0.33398818  0.00745052  1
  Cu  Cu109  1  0.16092866  0.16125765  0.75401733  1
  Cu  Cu110  1  0.50158762  0.15635076  0.25183120  1
  Cu  Cu111  1  0.16283600  0.83882432  0.24700122  1
  Cu  Cu112  1  0.00338068  0.66782879  0.00545441  1
  Cu  Cu113  1  0.83074965  0.49924972  0.74901701  1
  Cu  Cu114  1  0.67399767  0.66247082  0.00446966  1
  Se  Se115  1  0.08150631  0.08953255  0.05233833  1
  Se  Se116  1  0.08944185  0.06660586  0.56346218  1
  Se  Se117  1  0.08646042  0.42348862  0.05760699  1
  Se  Se118  1  0.07233530  0.40399236  0.56176745  1
  Se  Se119  1  0.08453466  0.75786729  0.05246977  1
  Se  Se120  1  0.07099823  0.73517089  0.55885270  1
  Se  Se121  1  0.40640460  0.07089499  0.05688898  1
  Se  Se122  1  0.41335837  0.07927924  0.55928981  1
  Se  Se123  1  0.42325611  0.41589607  0.05569910  1
  Se  Se124  1  0.40733324  0.41221852  0.55177613  1
  Se  Se125  1  0.41367555  0.74231442  0.06602089  1
  Se  Se126  1  0.41960544  0.75514139  0.55750910  1
  Se  Se127  1  0.73679114  0.07300845  0.05712249  1
  Se  Se128  1  0.75853286  0.08463299  0.54925583  1
  Se  Se129  1  0.75536656  0.42405679  0.05705594  1
  Se  Se130  1  0.75174891  0.41941411  0.54985262  1
  Se  Se131  1  0.74788511  0.74862803  0.06337475  1
  Se  Se132  1  0.75776324  0.76149809  0.54914016  1
  Se  Se133  1  0.24775114  0.25040853  0.05484371  1
  Se  Se134  1  0.25344834  0.25212163  0.54480894  1
  Se  Se135  1  0.25122206  0.58301752  0.05066165  1
  Se  Se136  1  0.25675356  0.59101752  0.56191974  1
  Se  Se137  1  0.24289374  0.91215277  0.04883598  1
  Se  Se138  1  0.25575649  0.92613333  0.56344454  1
  Se  Se139  1  0.58621689  0.25552447  0.06423390  1
  Se  Se140  1  0.59495441  0.25858591  0.55645325  1
  Se  Se141  1  0.58557930  0.58296312  0.05592233  1
  Se  Se142  1  0.58689015  0.59094259  0.56183453  1
  Se  Se143  1  0.58516116  0.91892939  0.06040606  1
  Se  Se144  1  0.58695790  0.92059811  0.55193868  1
  Se  Se145  1  0.92235510  0.26083102  0.06954722  1
  Se  Se146  1  0.91956489  0.24537687  0.54710459  1
  Se  Se147  1  0.91575961  0.58684148  0.05613437  1
  Se  Se148  1  0.90914214  0.57309778  0.54819086  1
  Se  Se149  1  0.91763728  0.92374728  0.06015173  1
  Se  Se150  1  0.91997176  0.91290433  0.54912078  1
  Se  Se151  1  0.07887410  0.26234170  0.43270116  1
  Se  Se152  1  0.07654955  0.25684363  0.95027058  1
  Se  Se153  1  0.07690274  0.58773601  0.43724751  1
  Se  Se154  1  0.08713478  0.58399955  0.95102817  1
  Se  Se155  1  0.08250040  0.91820970  0.43620183  1
  Se  Se156  1  0.08282462  0.91907308  0.94854218  1
  Se  Se157  1  0.42409991  0.25953102  0.42983577  1
  Se  Se158  1  0.40869695  0.25804218  0.93812040  1
  Se  Se159  1  0.41439615  0.59792448  0.43640965  1
  Se  Se160  1  0.42817899  0.58377888  0.95055158  1
  Se  Se161  1  0.41915626  0.91544975  0.45347604  1
  Se  Se162  1  0.40510364  0.92472062  0.94273766  1
  Se  Se163  1  0.75842501  0.24629955  0.44363206  1
  Se  Se164  1  0.74082643  0.25666994  0.94696897  1
  Se  Se165  1  0.73251052  0.58798797  0.44351405  1
  Se  Se166  1  0.75890639  0.58365362  0.94863690  1
  Se  Se167  1  0.75640986  0.91617119  0.44484791  1
  Se  Se168  1  0.73700602  0.92257641  0.94308255  1
  Se  Se169  1  0.26270771  0.07284822  0.44289644  1
  Se  Se170  1  0.23209415  0.10035072  0.95029371  1
  Se  Se171  1  0.25153510  0.41940348  0.43605990  1
  Se  Se172  1  0.25352845  0.41896358  0.95187184  1
  Se  Se173  1  0.25383403  0.74604031  0.44474207  1
  Se  Se174  1  0.25544818  0.74827346  0.94649662  1
  Se  Se175  1  0.59264599  0.07833325  0.43643074  1
  Se  Se176  1  0.58225508  0.07740002  0.94149043  1
  Se  Se177  1  0.58958959  0.40987092  0.43556196  1
  Se  Se178  1  0.58308563  0.42241468  0.95493454  1
  Se  Se179  1  0.57168039  0.76444030  0.45008827  1
  Se  Se180  1  0.59524266  0.74528078  0.94370776  1
  Se  Se181  1  0.92311652  0.08414562  0.44471297  1
  Se  Se182  1  0.91119691  0.07705458  0.94180276  1
  Se  Se183  1  0.91137069  0.42252129  0.44125228  1
  Se  Se184  1  0.91304714  0.42032378  0.95245982  1
  Se  Se185  1  0.91305898  0.75230645  0.44439901  1
  Se  Se186  1  0.92803324  0.74340810  0.93722775  1
  Se  Se187  1  0.25223905  0.24447807  0.29894231  1
  Se  Se188  1  0.24166174  0.24923406  0.80851041  1
  Se  Se189  1  0.23987499  0.57662463  0.30984910  1
  Se  Se190  1  0.25821542  0.58478314  0.80507373  1
  Se  Se191  1  0.25340607  0.91137935  0.30200015  1
  Se  Se192  1  0.25105265  0.92758858  0.80737994  1
  Se  Se193  1  0.58704899  0.24570710  0.29692321  1
  Se  Se194  1  0.57351288  0.24281097  0.80660265  1
  Se  Se195  1  0.55183309  0.55219519  0.30990833  1
  Se  Se196  1  0.59209947  0.59046571  0.80919948  1
  Se  Se197  1  0.58565817  0.91639568  0.30588315  1
  Se  Se198  1  0.58701871  0.92066609  0.80197251  1
  Se  Se199  1  0.92175448  0.25489987  0.30138136  1
  Se  Se200  1  0.90525608  0.23289266  0.81049711  1
  Se  Se201  1  0.91270198  0.59141674  0.30560977  1
  Se  Se202  1  0.91419643  0.57283170  0.81143850  1
  Se  Se203  1  0.91805054  0.92076621  0.30294613  1
  Se  Se204  1  0.91124008  0.91066514  0.80066278  1
  Se  Se205  1  0.08595899  0.08049336  0.30093441  1
  Se  Se206  1  0.07801955  0.07881811  0.80755383  1
  Se  Se207  1  0.08158227  0.41901041  0.29507001  1
  Se  Se208  1  0.09475723  0.42572913  0.81029691  1
  Se  Se209  1  0.07962623  0.75109947  0.29638581  1
  Se  Se210  1  0.09210548  0.75148706  0.81404308  1
  Se  Se211  1  0.41626829  0.07462878  0.30462073  1
  Se  Se212  1  0.41166320  0.08233839  0.80362601  1
  Se  Se213  1  0.39478715  0.39965688  0.29330969  1
  Se  Se214  1  0.42237748  0.42420494  0.81354865  1
  Se  Se215  1  0.42348942  0.74942548  0.31380527  1
  Se  Se216  1  0.42162584  0.75711010  0.80691505  1
  Se  Se217  1  0.75433697  0.08348372  0.30485767  1
  Se  Se218  1  0.74345864  0.07933029  0.80081427  1
  Se  Se219  1  0.75206877  0.41475760  0.30005634  1
  Se  Se220  1  0.75443642  0.41818047  0.81239379  1
  Se  Se221  1  0.74670870  0.75217106  0.30883095  1
  Se  Se222  1  0.74882646  0.74646866  0.79733936  1
  Se  Se223  1  0.24907095  0.07719159  0.19104920  1
  Se  Se224  1  0.25177744  0.08439427  0.70166411  1
  Se  Se225  1  0.24892024  0.41806642  0.19291154  1
  Se  Se226  1  0.24203041  0.42676301  0.69216061  1
  Se  Se227  1  0.24282210  0.75374684  0.18794006  1
  Se  Se228  1  0.24430155  0.76408826  0.70147806  1
  Se  Se229  1  0.58688568  0.07461580  0.19907817  1
  Se  Se230  1  0.58572141  0.08114570  0.69610044  1
  Se  Se231  1  0.59713340  0.40395880  0.19723046  1
  Se  Se232  1  0.57295275  0.43179677  0.69745095  1
  Se  Se233  1  0.58748764  0.74425523  0.20664208  1
  Se  Se234  1  0.58743008  0.75429135  0.69486675  1
  Se  Se235  1  0.91790093  0.07951322  0.19896047  1
  Se  Se236  1  0.92032945  0.07314505  0.69167625  1
  Se  Se237  1  0.91695273  0.42312618  0.19803376  1
  Se  Se238  1  0.91127960  0.41353854  0.69394893  1
  Se  Se239  1  0.91075597  0.75382808  0.19783860  1
  Se  Se240  1  0.90851525  0.74644502  0.68414779  1
  Se  Se241  1  0.08342303  0.25103803  0.19673001  1
  Se  Se242  1  0.08621720  0.24150219  0.68961944  1
  Se  Se243  1  0.07924508  0.59280912  0.19391191  1
  Se  Se244  1  0.09005395  0.57322880  0.69352709  1
  Se  Se245  1  0.08112202  0.92099553  0.19130926  1
  Se  Se246  1  0.07374293  0.90559983  0.70701550  1
  Se  Se247  1  0.41903020  0.23744306  0.19477657  1
  Se  Se248  1  0.42433362  0.24372923  0.68443260  1
  Se  Se249  1  0.42064932  0.57490772  0.18941633  1
  Se  Se250  1  0.41310605  0.59374943  0.70272622  1
  Se  Se251  1  0.41578328  0.91203726  0.19861857  1
  Se  Se252  1  0.41750571  0.92064141  0.69782800  1
  Se  Se253  1  0.75074046  0.24704663  0.19945637  1
  Se  Se254  1  0.75989281  0.24189961  0.68757560  1
  Se  Se255  1  0.74119883  0.58687140  0.19971389  1
  Se  Se256  1  0.75136072  0.58224728  0.69382472  1
  Se  Se257  1  0.74547306  0.91788077  0.19975362  1
  Se  Se258  1  0.74843667  0.91842176  0.69080422  1
