# generated using pymatgen
data_In86Cu29Se144
_symmetry_space_group_name_H-M   'P 1'
_cell_length_a   17.57493611
_cell_length_b   17.57548625
_cell_length_c   23.43580500
_cell_angle_alpha   89.97867851
_cell_angle_beta   89.99882853
_cell_angle_gamma   89.99092983
_symmetry_Int_Tables_number   1
_chemical_formula_structural   In86Cu29Se144
_chemical_formula_sum   'In86 Cu29 Se144'
_cell_volume   7239.03946386
_cell_formula_units_Z   1
loop_
 _symmetry_equiv_pos_site_id
 _symmetry_equiv_pos_as_xyz
  1  'x, y, z'
loop_
 _atom_site_type_symbol
 _atom_site_label
 _atom_site_symmetry_multiplicity
 _atom_site_fract_x
 _atom_site_fract_y
 _atom_site_fract_z
 _atom_site_occupancy
  In  In0  1  -0.01625605  0.17297538  0.12245332  1
  In  In1  1  -0.00256437  0.16560813  0.63449463  1
  In  In2  1  0.00643963  0.50128465  0.11038059  1
  In  In3  1  -0.00992718  0.51409620  0.63681348  1
  In  In4  1  0.00351805  0.82024743  0.13282259  1
  In  In5  1  -0.00979257  0.83439038  0.62104539  1
  In  In6  1  0.35341167  0.16756545  0.12078123  1
  In  In7  1  0.33815923  0.15435192  0.62094359  1
  In  In8  1  0.33256108  0.49206159  0.12576668  1
  In  In9  1  0.34328657  0.51739262  0.63175811  1
  In  In10  1  0.32522681  0.84454726  0.12653307  1
  In  In11  1  0.32830915  0.82942355  0.61695025  1
  In  In12  1  0.67087605  0.16917395  0.12749615  1
  In  In13  1  0.65070552  0.16372859  0.61911050  1
  In  In14  1  0.65092908  0.48325657  0.11194685  1
  In  In15  1  0.67475217  0.49641684  0.62754249  1
  In  In16  1  0.67841242  0.83458316  0.13240773  1
  In  In17  1  0.66723593  0.83685491  0.62247739  1
  In  In18  1  0.15689730  -0.00542471  0.37256087  1
  In  In19  1  0.14667645  -0.00112611  0.87591313  1
  In  In20  1  0.17126943  0.32325771  0.36570470  1
  In  In21  1  0.16332133  0.34900725  0.88308514  1
  In  In22  1  0.17101301  0.68325379  0.37679734  1
  In  In23  1  0.16687921  0.66698302  0.87519150  1
  In  In24  1  0.51154889  -0.00554136  0.39579208  1
  In  In25  1  0.51354067  0.00177887  0.87325066  1
  In  In26  1  0.49556694  0.32718493  0.36218917  1
  In  In27  1  0.49662245  0.33155068  0.88514652  1
  In  In28  1  0.50954960  0.67100116  0.37780833  1
  In  In29  1  0.49563619  0.65274927  0.85917112  1
  In  In30  1  0.83172754  -0.00851046  0.37725080  1
  In  In31  1  0.83182390  0.00188521  0.86756625  1
  In  In32  1  0.83311984  0.35153111  0.37389469  1
  In  In33  1  0.84546440  0.32593735  0.88898386  1
  In  In34  1  0.83659633  0.66391525  0.38159500  1
  In  In35  1  0.82376082  0.65430425  0.86627560  1
  In  In36  1  0.01131881  0.16018308  0.36944783  1
  In  In37  1  -0.01320940  0.15390088  0.86946970  1
  In  In38  1  -0.01637798  0.50300685  0.37234103  1
  In  In39  1  -0.00084908  0.50073401  0.87618862  1
  In  In40  1  0.00105176  0.83489211  0.38131386  1
  In  In41  1  0.00480885  0.83941394  0.86825407  1
  In  In42  1  0.33866624  0.17741542  0.36952167  1
  In  In43  1  0.33773772  0.17721441  0.87947685  1
  In  In44  1  0.33877781  0.49666301  0.36212150  1
  In  In45  1  0.33023636  0.50650778  0.88134268  1
  In  In46  1  0.33192350  0.84281650  0.39232663  1
  In  In47  1  0.33128197  0.81726231  0.87170094  1
  In  In48  1  0.65959944  0.15405639  0.36914429  1
  In  In49  1  0.67309543  0.16374684  0.87976720  1
  In  In50  1  0.67531960  0.50559167  0.37007070  1
  In  In51  1  0.66377141  0.50113536  0.88125711  1
  In  In52  1  0.66464831  0.85146160  0.39587800  1
  In  In53  1  0.67077789  0.83509157  0.86342889  1
  In  In54  1  0.16234266  -0.01718691  0.12125399  1
  In  In55  1  0.15825445  -0.01701974  0.61604126  1
  In  In56  1  0.16472729  0.36780045  0.12651005  1
  In  In57  1  0.15880273  0.32396179  0.62949380  1
  In  In58  1  0.14805730  0.64332637  0.11278054  1
  In  In59  1  0.15444000  0.68254113  0.63572794  1
  In  In60  1  0.50430387  0.01189929  0.12693635  1
  In  In61  1  0.50744820  0.00529318  0.60829642  1
  In  In62  1  0.50642380  0.33480163  0.13174523  1
  In  In63  1  0.50748283  0.33596544  0.62472364  1
  In  In64  1  0.51270481  0.66308869  0.12423436  1
  In  In65  1  0.48847243  0.67459771  0.64138104  1
  In  In66  1  0.82560199  0.00808561  0.13551496  1
  In  In67  1  0.84136672  -0.01084945  0.62582476  1
  In  In68  1  0.82860091  0.32096920  0.11255219  1
  In  In69  1  0.83227440  0.34697181  0.62396204  1
  In  In70  1  0.84647435  0.66822932  0.12453771  1
  In  In71  1  0.83213212  0.66634542  0.62658010  1
  In  In72  1  0.49796499  0.82682250  -0.00336262  1
  In  In73  1  0.17112029  0.15848367  0.49734779  1
  In  In74  1  0.16697846  0.16970275  0.00170514  1
  In  In75  1  0.50471869  0.50541369  0.49984190  1
  In  In76  1  0.32626855  0.33969135  0.75875968  1
  In  In77  1  0.16244579  0.50075044  0.49736522  1
  In  In78  1  0.32792964  -0.00337540  0.73801500  1
  In  In79  1  0.66671252  0.33621775  0.74978522  1
  In  In80  1  0.67334522  0.66638397  0.25567106  1
  In  In81  1  0.00091552  0.33777321  0.24256886  1
  In  In82  1  0.82921861  0.15910610  0.49306063  1
  In  In83  1  0.83771189  0.83138741  -0.00269793  1
  In  In84  1  0.33346990  0.00631109  0.25422069  1
  In  In85  1  0.32816016  0.66546576  0.24719142  1
  Cu  Cu86  1  0.66672755  0.66009429  -0.00733033  1
  Cu  Cu87  1  0.51176727  0.16667751  0.24784357  1
  Cu  Cu88  1  0.00482196  0.66573391  -0.00351334  1
  Cu  Cu89  1  0.49749651  0.16422891  0.74626225  1
  Cu  Cu90  1  0.83380661  0.16824391  0.24986381  1
  Cu  Cu91  1  0.16623132  0.83083408  0.74605133  1
  Cu  Cu92  1  0.32923236  0.66816960  0.50403491  1
  Cu  Cu93  1  0.66409522  0.00767168  0.00397682  1
  Cu  Cu94  1  0.15526074  0.82750323  0.24966380  1
  Cu  Cu95  1  0.83549014  0.83902017  0.25672767  1
  Cu  Cu96  1  0.34114039  0.33048282  0.49267028  1
  Cu  Cu97  1  -0.00830004  -0.00576601  -0.00351342  1
  Cu  Cu98  1  0.16999857  0.16540118  0.24408970  1
  Cu  Cu99  1  0.16844787  0.50423248  0.75821369  1
  Cu  Cu100  1  0.82548557  0.16334123  0.75121906  1
  Cu  Cu101  1  0.50211261  0.83997880  0.26648294  1
  Cu  Cu102  1  0.66493979  0.33032293  0.00223976  1
  Cu  Cu103  1  0.83565522  0.82964885  0.74356323  1
  Cu  Cu104  1  0.15108349  0.16502876  0.75241521  1
  Cu  Cu105  1  0.50814922  0.83532266  0.74712800  1
  Cu  Cu106  1  0.83936622  0.49656354  0.75216129  1
  Cu  Cu107  1  0.34173645  0.33294491  0.00538458  1
  Cu  Cu108  1  0.33184928  -0.00299131  0.00189829  1
  Cu  Cu109  1  -0.00294702  0.67041073  0.50784858  1
  Cu  Cu110  1  0.33185102  0.66407981  -0.00285647  1
  Cu  Cu111  1  0.82991672  0.50166585  0.24434624  1
  Cu  Cu112  1  -0.00629572  0.33690950  0.50142961  1
  Cu  Cu113  1  0.66656518  0.33457692  0.50083058  1
  Cu  Cu114  1  0.67072419  0.66946867  0.50329295  1
  Se  Se115  1  0.07423026  0.07472023  0.05746489  1
  Se  Se116  1  0.07142806  0.08081368  0.55725375  1
  Se  Se117  1  0.07694829  0.40521210  0.04522066  1
  Se  Se118  1  0.07509809  0.41430979  0.56250634  1
  Se  Se119  1  0.08210441  0.75159829  0.05388133  1
  Se  Se120  1  0.08460283  0.75448370  0.55547899  1
  Se  Se121  1  0.42175838  0.07760352  0.04935859  1
  Se  Se122  1  0.42430414  0.09593447  0.54617760  1
  Se  Se123  1  0.42424664  0.41659731  0.05934330  1
  Se  Se124  1  0.40779891  0.41625714  0.55861084  1
  Se  Se125  1  0.40736327  0.74336223  0.06320555  1
  Se  Se126  1  0.42053719  0.74255838  0.55718005  1
  Se  Se127  1  0.75336616  0.08411975  0.05749174  1
  Se  Se128  1  0.74504579  0.07634274  0.56080948  1
  Se  Se129  1  0.75244721  0.41727673  0.04893368  1
  Se  Se130  1  0.74984834  0.42066094  0.55024961  1
  Se  Se131  1  0.74140587  0.74213370  0.05591960  1
  Se  Se132  1  0.75448544  0.75159675  0.55646968  1
  Se  Se133  1  0.25497941  0.25722561  0.06514506  1
  Se  Se134  1  0.25667999  0.25816700  0.55666318  1
  Se  Se135  1  0.25477761  0.57815745  0.05449103  1
  Se  Se136  1  0.24766999  0.58921984  0.56301763  1
  Se  Se137  1  0.24638636  0.91049501  0.04740780  1
  Se  Se138  1  0.27156815  0.93889159  0.55664037  1
  Se  Se139  1  0.58324197  0.24850235  0.05966655  1
  Se  Se140  1  0.57795101  0.25454821  0.54996018  1
  Se  Se141  1  0.57933964  0.58231232  0.04728544  1
  Se  Se142  1  0.58831874  0.59214825  0.56509240  1
  Se  Se143  1  0.58963448  0.91580541  0.06006596  1
  Se  Se144  1  0.57775179  0.90430436  0.54971059  1
  Se  Se145  1  0.92041241  0.25012341  0.04396266  1
  Se  Se146  1  0.91692219  0.25089598  0.55831520  1
  Se  Se147  1  0.91563756  0.58699176  0.04885627  1
  Se  Se148  1  0.91499035  0.58107394  0.55617630  1
  Se  Se149  1  0.91774009  0.91883500  0.06565064  1
  Se  Se150  1  0.91296052  0.91551040  0.54773856  1
  Se  Se151  1  0.07802672  0.25897259  0.44292527  1
  Se  Se152  1  0.07667972  0.24642872  0.93501044  1
  Se  Se153  1  0.07283765  0.59330922  0.44010363  1
  Se  Se154  1  0.08868400  0.58072826  0.94447825  1
  Se  Se155  1  0.09398587  0.91049369  0.44739574  1
  Se  Se156  1  0.07973990  0.91059514  0.94911483  1
  Se  Se157  1  0.42566901  0.24932898  0.44167421  1
  Se  Se158  1  0.42123343  0.24325003  0.95498506  1
  Se  Se159  1  0.40513774  0.58910385  0.43981667  1
  Se  Se160  1  0.42267441  0.58911343  0.94373036  1
  Se  Se161  1  0.42489159  0.91118099  0.45840593  1
  Se  Se162  1  0.41083511  0.92083377  0.93571539  1
  Se  Se163  1  0.74598088  0.25888952  0.43639752  1
  Se  Se164  1  0.74965992  0.24681709  0.95015998  1
  Se  Se165  1  0.74708404  0.58209471  0.44746342  1
  Se  Se166  1  0.75754498  0.57795780  0.94711765  1
  Se  Se167  1  0.76864849  0.91401417  0.45856263  1
  Se  Se168  1  0.74005624  0.92152002  0.94378182  1
  Se  Se169  1  0.26028502  0.07693846  0.43189032  1
  Se  Se170  1  0.25350108  0.07548101  0.93820633  1
  Se  Se171  1  0.25624144  0.41017502  0.43767137  1
  Se  Se172  1  0.25829435  0.41519534  0.95084865  1
  Se  Se173  1  0.24553604  0.75491053  0.45470686  1
  Se  Se174  1  0.24855840  0.75017769  0.94731870  1
  Se  Se175  1  0.59513612  0.08819773  0.45363865  1
  Se  Se176  1  0.58064824  0.08713409  0.94772126  1
  Se  Se177  1  0.58741146  0.41358349  0.43673958  1
  Se  Se178  1  0.58284560  0.41541065  0.94897407  1
  Se  Se179  1  0.58338620  0.74995401  0.45109278  1
  Se  Se180  1  0.58976798  0.74472289  0.93383123  1
  Se  Se181  1  0.93231140  0.07666041  0.44048572  1
  Se  Se182  1  0.90797332  0.07738504  0.94475470  1
  Se  Se183  1  0.91346481  0.42369985  0.44977274  1
  Se  Se184  1  0.91249405  0.42844114  0.94788587  1
  Se  Se185  1  0.91546667  0.75080957  0.44884635  1
  Se  Se186  1  0.92174631  0.74117755  0.93447103  1
  Se  Se187  1  0.25527340  0.24855639  0.29438568  1
  Se  Se188  1  0.23490944  0.24158495  0.81193158  1
  Se  Se189  1  0.23517035  0.57925269  0.30831752  1
  Se  Se190  1  0.25572414  0.58709681  0.80666914  1
  Se  Se191  1  0.24783738  0.90293639  0.30572076  1
  Se  Se192  1  0.24272490  0.91370615  0.80889560  1
  Se  Se193  1  0.59409214  0.25142333  0.30128880  1
  Se  Se194  1  0.57412563  0.24481544  0.80888222  1
  Se  Se195  1  0.57125696  0.57565470  0.30479938  1
  Se  Se196  1  0.60580590  0.59005685  0.80484134  1
  Se  Se197  1  0.58729458  0.92201530  0.31658469  1
  Se  Se198  1  0.58759268  0.92321357  0.79890626  1
  Se  Se199  1  0.91457334  0.24911580  0.31042861  1
  Se  Se200  1  0.90700826  0.24694252  0.80603105  1
  Se  Se201  1  0.90736656  0.58645108  0.30109483  1
  Se  Se202  1  0.92248345  0.58410299  0.80232330  1
  Se  Se203  1  0.92350035  0.91955444  0.30812923  1
  Se  Se204  1  0.91330796  0.91481006  0.80194833  1
  Se  Se205  1  0.08927993  0.08058902  0.29687680  1
  Se  Se206  1  0.07167109  0.07318422  0.79959912  1
  Se  Se207  1  0.08521281  0.42331286  0.31048543  1
  Se  Se208  1  0.08415466  0.41732196  0.80592939  1
  Se  Se209  1  0.07580676  0.74683120  0.30752608  1
  Se  Se210  1  0.08523802  0.74914203  0.80390423  1
  Se  Se211  1  0.43357164  0.08559218  0.31122749  1
  Se  Se212  1  0.41331791  0.08642501  0.80615172  1
  Se  Se213  1  0.41601582  0.41303648  0.29566623  1
  Se  Se214  1  0.42532279  0.42314870  0.81283061  1
  Se  Se215  1  0.41398578  0.75665606  0.31452846  1
  Se  Se216  1  0.42159497  0.75408568  0.79932224  1
  Se  Se217  1  0.75825075  0.08169375  0.30701889  1
  Se  Se218  1  0.73956940  0.08113896  0.80243612  1
  Se  Se219  1  0.74819017  0.41813642  0.29820625  1
  Se  Se220  1  0.75952145  0.41577579  0.81348144  1
  Se  Se221  1  0.75146746  0.76213424  0.31853981  1
  Se  Se222  1  0.75224700  0.74817847  0.79893624  1
  Se  Se223  1  0.24810909  0.08499959  0.18166252  1
  Se  Se224  1  0.23212315  0.09217966  0.68717201  1
  Se  Se225  1  0.25261032  0.42209920  0.20263758  1
  Se  Se226  1  0.24206179  0.42655762  0.68936749  1
  Se  Se227  1  0.23706966  0.75296866  0.18636756  1
  Se  Se228  1  0.25804204  0.75206287  0.69642803  1
  Se  Se229  1  0.59371080  0.07892002  0.19781483  1
  Se  Se230  1  0.57607593  0.08026545  0.69137090  1
  Se  Se231  1  0.59219247  0.41783187  0.19809003  1
  Se  Se232  1  0.57187261  0.42982216  0.69680632  1
  Se  Se233  1  0.57641867  0.76070032  0.19942369  1
  Se  Se234  1  0.59240083  0.75005440  0.69600164  1
  Se  Se235  1  0.92065440  0.08630529  0.19859629  1
  Se  Se236  1  0.91086655  0.08114544  0.69750471  1
  Se  Se237  1  0.90745922  0.42135154  0.18200236  1
  Se  Se238  1  0.92018988  0.41090753  0.69843868  1
  Se  Se239  1  0.91164476  0.74977041  0.20258092  1
  Se  Se240  1  0.92145288  0.74505856  0.69417995  1
  Se  Se241  1  0.09283199  0.24739585  0.18241111  1
  Se  Se242  1  0.07246201  0.25633071  0.70281433  1
  Se  Se243  1  0.07127349  0.57840647  0.19120694  1
  Se  Se244  1  0.08565698  0.58577454  0.70151736  1
  Se  Se245  1  0.07811326  0.91768033  0.19736060  1
  Se  Se246  1  0.08047460  0.91181387  0.69239276  1
  Se  Se247  1  0.42148960  0.24639713  0.19798905  1
  Se  Se248  1  0.41501929  0.24994203  0.69239173  1
  Se  Se249  1  0.42600868  0.58077181  0.19158606  1
  Se  Se250  1  0.42124328  0.58032744  0.70964529  1
  Se  Se251  1  0.42626823  0.91180455  0.19576694  1
  Se  Se252  1  0.42700606  0.91217036  0.68446160  1
  Se  Se253  1  0.75519997  0.25378575  0.19489067  1
  Se  Se254  1  0.75132705  0.24379740  0.68561684  1
  Se  Se255  1  0.74884275  0.58105359  0.18278697  1
  Se  Se256  1  0.75476334  0.57779464  0.69751754  1
  Se  Se257  1  0.74823812  0.91956554  0.20456071  1
  Se  Se258  1  0.75045149  0.91616133  0.69475119  1
