# generated using pymatgen
data_In86Cu29Se144
_symmetry_space_group_name_H-M   'P 1'
_cell_length_a   17.58622528
_cell_length_b   17.59194033
_cell_length_c   23.44975936
_cell_angle_alpha   90.01701717
_cell_angle_beta   90.01734469
_cell_angle_gamma   89.98691567
_symmetry_Int_Tables_number   1
_chemical_formula_structural   In86Cu29Se144
_chemical_formula_sum   'In86 Cu29 Se144'
_cell_volume   7254.78782687
_cell_formula_units_Z   1
loop_
 _symmetry_equiv_pos_site_id
 _symmetry_equiv_pos_as_xyz
  1  'x, y, z'
loop_
 _atom_site_type_symbol
 _atom_site_label
 _atom_site_symmetry_multiplicity
 _atom_site_fract_x
 _atom_site_fract_y
 _atom_site_fract_z
 _atom_site_occupancy
  In  In0  1  -0.00500010  0.16101814  0.11740873  1
  In  In1  1  0.00228880  0.16589504  0.62324132  1
  In  In2  1  -0.00100751  0.49639881  0.10792788  1
  In  In3  1  -0.00104184  0.50453783  0.62743612  1
  In  In4  1  0.01647462  0.85168015  0.11685685  1
  In  In5  1  -0.00902764  0.82268315  0.63247373  1
  In  In6  1  0.31825710  0.14953281  0.11429455  1
  In  In7  1  0.32594928  0.17299422  0.64200318  1
  In  In8  1  0.34579245  0.51391259  0.11294762  1
  In  In9  1  0.33664932  0.49742594  0.63107734  1
  In  In10  1  0.33201035  0.83143734  0.13362748  1
  In  In11  1  0.33684181  0.82288591  0.63479428  1
  In  In12  1  0.66865469  0.17209713  0.11706463  1
  In  In13  1  0.66750513  0.15720500  0.62136066  1
  In  In14  1  0.67210834  0.50921435  0.12217136  1
  In  In15  1  0.66355046  0.49132285  0.61294014  1
  In  In16  1  0.64980892  0.81763349  0.11974431  1
  In  In17  1  0.65776261  0.84527757  0.62124084  1
  In  In18  1  0.17662047  0.00601399  0.36645444  1
  In  In19  1  0.18205048  -0.00560639  0.87498045  1
  In  In20  1  0.15352376  0.33080257  0.37516768  1
  In  In21  1  0.18716176  0.31554537  0.89166606  1
  In  In22  1  0.18015596  0.66491912  0.36571727  1
  In  In23  1  0.16621603  0.67335717  0.87285316  1
  In  In24  1  0.48591181  -0.00266300  0.37029162  1
  In  In25  1  0.48059077  0.01275837  0.88570723  1
  In  In26  1  0.51302079  0.34247686  0.37845142  1
  In  In27  1  0.49341499  0.33693790  0.87571593  1
  In  In28  1  0.49613275  0.66960988  0.37821519  1
  In  In29  1  0.48605559  0.68171113  0.88475366  1
  In  In30  1  0.84638945  0.00319757  0.37114968  1
  In  In31  1  0.83501722  0.00068588  0.88608267  1
  In  In32  1  0.82573554  0.33532862  0.38959638  1
  In  In33  1  0.85056459  0.32698720  0.89166501  1
  In  In34  1  0.82434797  0.67362059  0.37284551  1
  In  In35  1  0.84626343  0.65654962  0.88448031  1
  In  In36  1  0.00476699  0.16458996  0.38183923  1
  In  In37  1  0.01620835  0.16010390  0.88664419  1
  In  In38  1  0.00089907  0.49004596  0.37224433  1
  In  In39  1  -0.00247894  0.50426278  0.88458839  1
  In  In40  1  -0.00973191  0.83846573  0.36676296  1
  In  In41  1  0.02195364  0.81591717  0.88862993  1
  In  In42  1  0.33413068  0.15137518  0.37476872  1
  In  In43  1  0.33228896  0.16644588  0.86764218  1
  In  In44  1  0.33701289  0.51501925  0.37373563  1
  In  In45  1  0.33408813  0.50201146  0.87819293  1
  In  In46  1  0.34421028  0.84592924  0.35846005  1
  In  In47  1  0.32910853  0.83776266  0.87273776  1
  In  In48  1  0.67388219  0.18013306  0.37510222  1
  In  In49  1  0.66414801  0.16768063  0.88024934  1
  In  In50  1  0.65548088  0.50882465  0.38687868  1
  In  In51  1  0.66906730  0.49852040  0.88070608  1
  In  In52  1  0.66153572  0.81678926  0.36659095  1
  In  In53  1  0.66233943  0.83982087  0.88766769  1
  In  In54  1  0.16610183  -0.00781916  0.12917146  1
  In  In55  1  0.17274086  0.01057954  0.63152334  1
  In  In56  1  0.15642605  0.32802135  0.10318023  1
  In  In57  1  0.18200998  0.32600117  0.63313468  1
  In  In58  1  0.18517673  0.68663362  0.10932983  1
  In  In59  1  0.17101968  0.66273247  0.64395666  1
  In  In60  1  0.47918939  -0.01947004  0.11374348  1
  In  In61  1  0.50018496  -0.00406703  0.62061620  1
  In  In62  1  0.50407594  0.33462181  0.11439708  1
  In  In63  1  0.48274215  0.33360815  0.62631183  1
  In  In64  1  0.49928565  0.67165941  0.12972515  1
  In  In65  1  0.49452918  0.65959175  0.62227641  1
  In  In66  1  0.84518821  0.01013512  0.12093445  1
  In  In67  1  0.82655020  -0.00043659  0.62380055  1
  In  In68  1  0.83636961  0.33317693  0.11337519  1
  In  In69  1  0.82734701  0.32860877  0.61666778  1
  In  In70  1  0.82087641  0.66165486  0.12085704  1
  In  In71  1  0.84403264  0.65761000  0.62729629  1
  In  In72  1  0.00881158  -0.01054598  0.76301231  1
  In  In73  1  0.33195476  0.33326165  0.23912930  1
  In  In74  1  0.82630252  0.83370693  0.49655985  1
  In  In75  1  0.16935832  0.49393417  0.50643531  1
  In  In76  1  0.16516099  0.83297096  0.49991306  1
  In  In77  1  0.01014760  0.33529078  0.75645319  1
  In  In78  1  0.66139123  -0.00492036  0.24274186  1
  In  In79  1  0.66458817  0.66289576  0.75302452  1
  In  In80  1  0.66837264  0.33960176  0.25645881  1
  In  In81  1  -0.00399778  0.33078280  0.23909659  1
  In  In82  1  0.65992451  0.33466056  0.75619070  1
  In  In83  1  0.65807908  0.00053141  0.74426192  1
  In  In84  1  0.00795302  0.67385417  0.23696658  1
  In  In85  1  0.50155770  0.17270449  0.50077594  1
  Cu  Cu86  1  0.49169155  0.15772902  0.24333773  1
  Cu  Cu87  1  -0.00172350  0.67285011  0.00240874  1
  Cu  Cu88  1  0.16973814  0.15944375  0.25002410  1
  Cu  Cu89  1  0.33868683  0.33171789  -0.00265317  1
  Cu  Cu90  1  0.84102765  0.16885230  0.24805794  1
  Cu  Cu91  1  -0.00274713  0.32541895  0.50118915  1
  Cu  Cu92  1  0.83817976  0.49956631  0.75632350  1
  Cu  Cu93  1  0.66504446  0.00200118  0.49692234  1
  Cu  Cu94  1  0.34177448  0.67047829  0.50158138  1
  Cu  Cu95  1  0.49443625  0.83539256  0.75496644  1
  Cu  Cu96  1  0.83049742  0.51262393  0.24924009  1
  Cu  Cu97  1  0.83719815  0.16393079  0.75159734  1
  Cu  Cu98  1  0.66611378  0.66597648  0.49691276  1
  Cu  Cu99  1  0.83489626  0.83783753  0.24248896  1
  Cu  Cu100  1  0.48924454  0.50586257  0.75302617  1
  Cu  Cu101  1  0.00508629  0.65779679  0.50254207  1
  Cu  Cu102  1  0.33257526  0.33390932  0.50674334  1
  Cu  Cu103  1  0.66443728  0.33112354  -0.00429717  1
  Cu  Cu104  1  0.83654664  0.82052542  0.75849297  1
  Cu  Cu105  1  0.66998880  0.00216187  0.00688180  1
  Cu  Cu106  1  0.66025183  0.66710420  0.00179036  1
  Cu  Cu107  1  0.33341147  0.66936670  -0.00193506  1
  Cu  Cu108  1  0.50113602  0.50864476  0.25156218  1
  Cu  Cu109  1  0.00318672  0.00609404  0.49965472  1
  Cu  Cu110  1  0.33050491  -0.00240333  -0.00089442  1
  Cu  Cu111  1  0.17374689  0.50279834  0.23306585  1
  Cu  Cu112  1  0.00444453  0.00249691  0.00090964  1
  Cu  Cu113  1  0.16773597  0.50291758  0.75880001  1
  Cu  Cu114  1  0.33037087  -0.00055753  0.49603079  1
  Se  Se115  1  0.09023662  0.08071242  0.05732409  1
  Se  Se116  1  0.08748783  0.08174217  0.55771105  1
  Se  Se117  1  0.08066677  0.41803200  0.03886525  1
  Se  Se118  1  0.07830723  0.40189979  0.56512856  1
  Se  Se119  1  0.08654713  0.75928254  0.04760708  1
  Se  Se120  1  0.08078616  0.73869349  0.56335153  1
  Se  Se121  1  0.41821650  0.08383060  0.04861415  1
  Se  Se122  1  0.40792873  0.08344097  0.55698424  1
  Se  Se123  1  0.42082500  0.41857027  0.04874189  1
  Se  Se124  1  0.41459537  0.42305114  0.55396248  1
  Se  Se125  1  0.41184648  0.74917173  0.05990817  1
  Se  Se126  1  0.41980214  0.75546657  0.55757729  1
  Se  Se127  1  0.75637268  0.08907691  0.05354062  1
  Se  Se128  1  0.75150461  0.08047231  0.55047370  1
  Se  Se129  1  0.74233070  0.41486326  0.05437082  1
  Se  Se130  1  0.76540772  0.42760993  0.55199184  1
  Se  Se131  1  0.74694937  0.75152910  0.05159691  1
  Se  Se132  1  0.74362965  0.74275803  0.56376763  1
  Se  Se133  1  0.25203154  0.24571946  0.04599205  1
  Se  Se134  1  0.25556185  0.24504412  0.55881266  1
  Se  Se135  1  0.24773445  0.58155365  0.04686282  1
  Se  Se136  1  0.25447231  0.59410948  0.56082207  1
  Se  Se137  1  0.25368307  0.91530049  0.05959649  1
  Se  Se138  1  0.25575591  0.91965814  0.56094117  1
  Se  Se139  1  0.58077911  0.24587489  0.04717996  1
  Se  Se140  1  0.58904611  0.26112612  0.56353416  1
  Se  Se141  1  0.57830148  0.58532333  0.05825443  1
  Se  Se142  1  0.58278635  0.58518505  0.55318897  1
  Se  Se143  1  0.58273975  0.91505538  0.05237083  1
  Se  Se144  1  0.57911280  0.91803880  0.54584138  1
  Se  Se145  1  0.92936466  0.25832942  0.05144772  1
  Se  Se146  1  0.91455506  0.24182826  0.55508871  1
  Se  Se147  1  0.91163754  0.58870782  0.05151538  1
  Se  Se148  1  0.91704390  0.57683749  0.55202748  1
  Se  Se149  1  0.91757475  0.91937561  0.05117195  1
  Se  Se150  1  0.92410189  0.91946046  0.55696375  1
  Se  Se151  1  0.08801836  0.24738422  0.45082892  1
  Se  Se152  1  0.06806283  0.27027599  0.94712480  1
  Se  Se153  1  0.08622911  0.58502647  0.43818645  1
  Se  Se154  1  0.08348277  0.59354626  0.94583450  1
  Se  Se155  1  0.07522251  0.92168160  0.43811028  1
  Se  Se156  1  0.08876080  0.92336227  0.94490156  1
  Se  Se157  1  0.40820461  0.25894542  0.43685730  1
  Se  Se158  1  0.41619632  0.24545339  0.94112911  1
  Se  Se159  1  0.42015052  0.58024180  0.44997718  1
  Se  Se160  1  0.41885274  0.58232966  0.94903526  1
  Se  Se161  1  0.41192415  0.91437429  0.44319021  1
  Se  Se162  1  0.41445191  0.91039743  0.94785196  1
  Se  Se163  1  0.74781892  0.24631690  0.45388390  1
  Se  Se164  1  0.75165003  0.24605722  0.94761534  1
  Se  Se165  1  0.75580562  0.58779753  0.44550437  1
  Se  Se166  1  0.74622062  0.58673595  0.94775978  1
  Se  Se167  1  0.74121123  0.92311390  0.43172951  1
  Se  Se168  1  0.75239770  0.91745255  0.95340668  1
  Se  Se169  1  0.24477344  0.08405413  0.44657477  1
  Se  Se170  1  0.25389685  0.08551496  0.94365536  1
  Se  Se171  1  0.25649587  0.40994771  0.43786681  1
  Se  Se172  1  0.25378032  0.42107941  0.95050133  1
  Se  Se173  1  0.25766691  0.74517774  0.44117170  1
  Se  Se174  1  0.25044686  0.75298795  0.94418621  1
  Se  Se175  1  0.58521106  0.08049132  0.43421566  1
  Se  Se176  1  0.58651658  0.07819890  0.94630493  1
  Se  Se177  1  0.59477520  0.40786044  0.45289381  1
  Se  Se178  1  0.58128395  0.41567284  0.94397968  1
  Se  Se179  1  0.58345177  0.75220804  0.44628413  1
  Se  Se180  1  0.57749982  0.75502169  0.95209903  1
  Se  Se181  1  0.91371231  0.08505735  0.44770661  1
  Se  Se182  1  0.91901928  0.08722076  0.94984584  1
  Se  Se183  1  0.92357321  0.41670509  0.44727394  1
  Se  Se184  1  0.89819872  0.43916109  0.95048893  1
  Se  Se185  1  0.92727466  0.74305749  0.44337322  1
  Se  Se186  1  0.91279511  0.75676893  0.94952074  1
  Se  Se187  1  0.24504314  0.24781474  0.30778524  1
  Se  Se188  1  0.24708525  0.25461804  0.80424827  1
  Se  Se189  1  0.25275316  0.57708362  0.29548293  1
  Se  Se190  1  0.25350924  0.58655715  0.80859993  1
  Se  Se191  1  0.24001312  0.91071310  0.29949842  1
  Se  Se192  1  0.24392477  0.90907922  0.79894351  1
  Se  Se193  1  0.57014882  0.23988728  0.30362746  1
  Se  Se194  1  0.57183538  0.23752338  0.80776871  1
  Se  Se195  1  0.58348385  0.58573149  0.31019684  1
  Se  Se196  1  0.57232414  0.57976821  0.81505553  1
  Se  Se197  1  0.57288927  0.90792090  0.30470548  1
  Se  Se198  1  0.57616893  0.91537430  0.81251737  1
  Se  Se199  1  0.91102768  0.25322273  0.31222923  1
  Se  Se200  1  0.91803564  0.23961482  0.81222751  1
  Se  Se201  1  0.92109064  0.58566060  0.30626159  1
  Se  Se202  1  0.92181110  0.58294311  0.80680310  1
  Se  Se203  1  0.91627054  0.92237287  0.29488596  1
  Se  Se204  1  0.91043413  0.90523817  0.81804504  1
  Se  Se205  1  0.07983877  0.08721761  0.30659737  1
  Se  Se206  1  0.09741789  0.09177632  0.80840508  1
  Se  Se207  1  0.09374955  0.42443449  0.29554801  1
  Se  Se208  1  0.09422355  0.42117075  0.82124081  1
  Se  Se209  1  0.08972635  0.75770204  0.30723642  1
  Se  Se210  1  0.07900745  0.74958154  0.80246952  1
  Se  Se211  1  0.40822039  0.07762589  0.29722599  1
  Se  Se212  1  0.41059204  0.07365032  0.80226616  1
  Se  Se213  1  0.42208454  0.41890381  0.30619700  1
  Se  Se214  1  0.41140569  0.41712872  0.80523515  1
  Se  Se215  1  0.39807659  0.72817340  0.30861334  1
  Se  Se216  1  0.41229629  0.74890451  0.80442576  1
  Se  Se217  1  0.75258263  0.09005536  0.30352465  1
  Se  Se218  1  0.75409622  0.08323587  0.80807642  1
  Se  Se219  1  0.75933468  0.43039654  0.31409083  1
  Se  Se220  1  0.76146491  0.41460243  0.81371411  1
  Se  Se221  1  0.75498725  0.75213161  0.29576378  1
  Se  Se222  1  0.74874581  0.75094654  0.81842394  1
  Se  Se223  1  0.25309844  0.07771278  0.19683609  1
  Se  Se224  1  0.26617127  0.06750128  0.70412077  1
  Se  Se225  1  0.24512986  0.41653607  0.17326769  1
  Se  Se226  1  0.24762926  0.42236710  0.69978375  1
  Se  Se227  1  0.24435408  0.74573616  0.19736210  1
  Se  Se228  1  0.24288156  0.75915540  0.70456558  1
  Se  Se229  1  0.57760129  0.08782515  0.18182439  1
  Se  Se230  1  0.56753485  0.09711266  0.69105573  1
  Se  Se231  1  0.57650104  0.42209082  0.19263070  1
  Se  Se232  1  0.57537803  0.42832464  0.69387209  1
  Se  Se233  1  0.58461883  0.74737329  0.20103272  1
  Se  Se234  1  0.57866513  0.75875558  0.69328495  1
  Se  Se235  1  0.92433840  0.08539237  0.19703138  1
  Se  Se236  1  0.91567177  0.07813395  0.69517711  1
  Se  Se237  1  0.90592073  0.43052584  0.18833875  1
  Se  Se238  1  0.90984130  0.41336058  0.69371824  1
  Se  Se239  1  0.91268920  0.75886854  0.17925180  1
  Se  Se240  1  0.91622594  0.73767457  0.70337375  1
  Se  Se241  1  0.09513113  0.24289402  0.18794194  1
  Se  Se242  1  0.09210656  0.23738745  0.69697572  1
  Se  Se243  1  0.08937040  0.57930362  0.17559171  1
  Se  Se244  1  0.07907073  0.57690434  0.70215141  1
  Se  Se245  1  0.07872736  0.91942183  0.20089123  1
  Se  Se246  1  0.08690932  0.90859579  0.68878473  1
  Se  Se247  1  0.41987455  0.24124823  0.18064832  1
  Se  Se248  1  0.41198525  0.26049957  0.70274685  1
  Se  Se249  1  0.41367975  0.58340693  0.19588834  1
  Se  Se250  1  0.41068329  0.59163906  0.69791578  1
  Se  Se251  1  0.41938819  0.91551003  0.19904326  1
  Se  Se252  1  0.42105354  0.91782779  0.69320891  1
  Se  Se253  1  0.75776424  0.25096699  0.19261197  1
  Se  Se254  1  0.75293861  0.24196980  0.69457645  1
  Se  Se255  1  0.74170205  0.59095195  0.19911311  1
  Se  Se256  1  0.75203757  0.56981251  0.69307825  1
  Se  Se257  1  0.75379014  0.91375460  0.17992607  1
  Se  Se258  1  0.75915442  0.90230644  0.69650874  1
