# generated using pymatgen
data_In86Cu29Se144
_symmetry_space_group_name_H-M   'P 1'
_cell_length_a   17.57911016
_cell_length_b   17.58005353
_cell_length_c   23.44494179
_cell_angle_alpha   90.00954998
_cell_angle_beta   90.00306342
_cell_angle_gamma   89.99167737
_symmetry_Int_Tables_number   1
_chemical_formula_structural   In86Cu29Se144
_chemical_formula_sum   'In86 Cu29 Se144'
_cell_volume   7245.46442361
_cell_formula_units_Z   1
loop_
 _symmetry_equiv_pos_site_id
 _symmetry_equiv_pos_as_xyz
  1  'x, y, z'
loop_
 _atom_site_type_symbol
 _atom_site_label
 _atom_site_symmetry_multiplicity
 _atom_site_fract_x
 _atom_site_fract_y
 _atom_site_fract_z
 _atom_site_occupancy
  In  In0  1  0.01504115  0.18709482  0.10777292  1
  In  In1  1  -0.00175233  0.16534502  0.63954503  1
  In  In2  1  -0.00706205  0.48450135  0.12469044  1
  In  In3  1  0.00385008  0.49612950  0.62637060  1
  In  In4  1  0.00299039  0.84857642  0.11729495  1
  In  In5  1  0.00395197  0.82982711  0.63918985  1
  In  In6  1  0.32888526  0.16674006  0.12139315  1
  In  In7  1  0.34046230  0.17955551  0.64140289  1
  In  In8  1  0.31429119  0.49090392  0.11022101  1
  In  In9  1  0.33104854  0.49800522  0.62490421  1
  In  In10  1  0.34373769  0.83398171  0.12670645  1
  In  In11  1  0.33630718  0.82586547  0.63276788  1
  In  In12  1  0.67504623  0.17883419  0.11455544  1
  In  In13  1  0.65079828  0.15755024  0.63197264  1
  In  In14  1  0.66326322  0.51196711  0.13712739  1
  In  In15  1  0.66805916  0.50476669  0.60838323  1
  In  In16  1  0.66588919  0.81704241  0.12744736  1
  In  In17  1  0.66903465  0.83725828  0.62664535  1
  In  In18  1  0.18273255  -0.00633082  0.36868842  1
  In  In19  1  0.17745443  0.01203174  0.87026362  1
  In  In20  1  0.18315998  0.34193832  0.35817785  1
  In  In21  1  0.16717599  0.33313258  0.87646519  1
  In  In22  1  0.15631794  0.66126418  0.37525292  1
  In  In23  1  0.16465483  0.65498065  0.87506220  1
  In  In24  1  0.49183165  0.00581449  0.37963708  1
  In  In25  1  0.50747992  0.01439239  0.86261458  1
  In  In26  1  0.50841297  0.34379847  0.36203582  1
  In  In27  1  0.48856853  0.34540977  0.88279288  1
  In  In28  1  0.51742461  0.64880026  0.39591827  1
  In  In29  1  0.48221240  0.66407227  0.87531079  1
  In  In30  1  0.83627228  -0.00157001  0.37410740  1
  In  In31  1  0.83227710  -0.00180621  0.87792507  1
  In  In32  1  0.85081147  0.36077043  0.35245439  1
  In  In33  1  0.83653132  0.32038671  0.87936728  1
  In  In34  1  0.81057354  0.65068910  0.36468475  1
  In  In35  1  0.85577478  0.66601484  0.88161495  1
  In  In36  1  -0.01058952  0.17382518  0.37335837  1
  In  In37  1  0.00112667  0.16838856  0.87499669  1
  In  In38  1  0.01328396  0.49319960  0.38358520  1
  In  In39  1  0.02097935  0.51577823  0.86744473  1
  In  In40  1  0.00237971  0.82711681  0.37589582  1
  In  In41  1  -0.01048754  0.82056349  0.87402718  1
  In  In42  1  0.33586313  0.17067049  0.36026879  1
  In  In43  1  0.33282726  0.16778223  0.87827571  1
  In  In44  1  0.33901376  0.49384234  0.37839767  1
  In  In45  1  0.33397612  0.49747214  0.87489555  1
  In  In46  1  0.34495232  0.84650357  0.37279787  1
  In  In47  1  0.33144837  0.83509957  0.86708616  1
  In  In48  1  0.65407413  0.17568635  0.37129721  1
  In  In49  1  0.67285857  0.16142399  0.88541497  1
  In  In50  1  0.66590595  0.49849182  0.37541941  1
  In  In51  1  0.65973856  0.48733626  0.87589253  1
  In  In52  1  0.66717263  0.80689684  0.37872310  1
  In  In53  1  0.66476478  0.84510731  0.87550641  1
  In  In54  1  0.17056079  0.01309593  0.12263699  1
  In  In55  1  0.16902967  0.00048414  0.63962815  1
  In  In56  1  0.16447323  0.32936036  0.12612026  1
  In  In57  1  0.16169838  0.33713034  0.62940153  1
  In  In58  1  0.17838357  0.66162792  0.11583126  1
  In  In59  1  0.17241698  0.65851721  0.63241319  1
  In  In60  1  0.48232490  0.00240129  0.12455813  1
  In  In61  1  0.50830464  -0.00281243  0.63917004  1
  In  In62  1  0.49738827  0.33533634  0.12313987  1
  In  In63  1  0.49175906  0.33692464  0.62562175  1
  In  In64  1  0.50504001  0.66765663  0.12435079  1
  In  In65  1  0.48908814  0.65248742  0.61487695  1
  In  In66  1  0.83349800  0.00514801  0.11303912  1
  In  In67  1  0.83427423  -0.00699479  0.63908283  1
  In  In68  1  0.84206720  0.33477064  0.13109003  1
  In  In69  1  0.83303182  0.34326992  0.62570627  1
  In  In70  1  0.82023644  0.65621009  0.12350956  1
  In  In71  1  0.84265854  0.66705396  0.62508905  1
  In  In72  1  0.16384542  0.83148050  -0.01010183  1
  In  In73  1  0.66808178  0.66721828  0.74269559  1
  In  In74  1  0.83005620  0.82261921  0.50266486  1
  In  In75  1  0.66345274  0.00466022  0.25358764  1
  In  In76  1  0.33957172  0.66993744  0.24705196  1
  In  In77  1  0.16897864  0.82530900  0.50034321  1
  In  In78  1  0.16870551  0.17338168  0.49618292  1
  In  In79  1  0.01031401  0.01478864  0.23987948  1
  In  In80  1  0.00061816  0.67034827  0.24898956  1
  In  In81  1  0.49960908  0.83255203  0.00302990  1
  In  In82  1  0.83358217  0.49657567  0.00228349  1
  In  In83  1  0.82749558  0.17471224  0.50067657  1
  In  In84  1  0.66309277  0.32686649  0.74897160  1
  In  In85  1  0.49541357  0.17251615  0.50472500  1
  Cu  Cu86  1  0.83215617  0.16007976  0.75916344  1
  Cu  Cu87  1  0.66899462  0.66492269  0.00294180  1
  Cu  Cu88  1  0.66407400  0.00049921  -0.00307737  1
  Cu  Cu89  1  -0.00539932  0.65638214  0.50157116  1
  Cu  Cu90  1  0.65832936  0.33461967  0.00182208  1
  Cu  Cu91  1  0.16689306  0.49639849  0.24599087  1
  Cu  Cu92  1  0.66616168  -0.00665972  0.50859452  1
  Cu  Cu93  1  0.00132130  0.33484948  -0.00195246  1
  Cu  Cu94  1  0.83037425  0.83184116  0.75432260  1
  Cu  Cu95  1  0.49237817  0.83287170  0.75162531  1
  Cu  Cu96  1  0.15884009  0.83607712  0.75748466  1
  Cu  Cu97  1  0.83443761  0.17941582  0.24369123  1
  Cu  Cu98  1  0.49457293  0.49943752  0.25220639  1
  Cu  Cu99  1  -0.00439559  0.00532168  -0.00556898  1
  Cu  Cu100  1  0.84680124  0.49523441  0.75101358  1
  Cu  Cu101  1  0.16823982  0.17342428  0.75657335  1
  Cu  Cu102  1  0.50554617  0.82761529  0.25238290  1
  Cu  Cu103  1  0.83563551  0.83654116  0.24610819  1
  Cu  Cu104  1  0.49438418  0.16797465  0.24230131  1
  Cu  Cu105  1  0.32886482  0.33208892  -0.00024947  1
  Cu  Cu106  1  0.66891187  0.34044503  0.49104103  1
  Cu  Cu107  1  0.33339873  0.00390192  -0.00463070  1
  Cu  Cu108  1  0.00566889  -0.00204982  0.50902714  1
  Cu  Cu109  1  0.32809984  0.66348517  0.50561722  1
  Cu  Cu110  1  0.00044735  0.34177151  0.49877043  1
  Cu  Cu111  1  0.33894463  -0.00240459  0.50393110  1
  Cu  Cu112  1  0.17106939  0.49480294  0.74989606  1
  Cu  Cu113  1  0.49255852  0.50128422  0.74762023  1
  Cu  Cu114  1  0.33458963  0.34003786  0.49702172  1
  Se  Se115  1  0.08321342  0.08139051  0.04958422  1
  Se  Se116  1  0.08358915  0.08318391  0.56373810  1
  Se  Se117  1  0.08345133  0.41492971  0.05513377  1
  Se  Se118  1  0.08834961  0.41747713  0.55415488  1
  Se  Se119  1  0.07813861  0.74615080  0.05683911  1
  Se  Se120  1  0.07247693  0.74250950  0.56064909  1
  Se  Se121  1  0.41594285  0.08675796  0.04993768  1
  Se  Se122  1  0.41051274  0.08152635  0.56674688  1
  Se  Se123  1  0.41442599  0.41547978  0.05169020  1
  Se  Se124  1  0.41789460  0.41988975  0.55330138  1
  Se  Se125  1  0.40585457  0.73704373  0.05430797  1
  Se  Se126  1  0.40994332  0.75158759  0.55520364  1
  Se  Se127  1  0.74862896  0.08714944  0.04693039  1
  Se  Se128  1  0.74797359  0.07585121  0.56426572  1
  Se  Se129  1  0.74030946  0.41387813  0.06369847  1
  Se  Se130  1  0.75548296  0.41482982  0.54907083  1
  Se  Se131  1  0.75226421  0.75025268  0.05319431  1
  Se  Se132  1  0.73706014  0.73473055  0.55993093  1
  Se  Se133  1  0.24464461  0.24891545  0.05305141  1
  Se  Se134  1  0.26187422  0.25562595  0.55936008  1
  Se  Se135  1  0.24561694  0.58195399  0.04048584  1
  Se  Se136  1  0.24408952  0.57953796  0.55601215  1
  Se  Se137  1  0.25712890  0.91751720  0.05460452  1
  Se  Se138  1  0.25049951  0.92313566  0.56090006  1
  Se  Se139  1  0.57464582  0.24806563  0.05190312  1
  Se  Se140  1  0.59662815  0.26059273  0.55819799  1
  Se  Se141  1  0.58704398  0.58261914  0.05699017  1
  Se  Se142  1  0.57950954  0.58368174  0.54582492  1
  Se  Se143  1  0.59007220  0.92272165  0.06472470  1
  Se  Se144  1  0.57847741  0.91680839  0.56148711  1
  Se  Se145  1  0.90946182  0.25695742  0.05042697  1
  Se  Se146  1  0.92846195  0.25424028  0.55949095  1
  Se  Se147  1  0.92452260  0.58910609  0.05888655  1
  Se  Se148  1  0.91371355  0.57487537  0.55741100  1
  Se  Se149  1  0.91491839  0.91879656  0.04663651  1
  Se  Se150  1  0.92175878  0.91591685  0.56261818  1
  Se  Se151  1  0.07766563  0.26125751  0.43720262  1
  Se  Se152  1  0.08382705  0.24911306  0.94564369  1
  Se  Se153  1  0.08960461  0.58159224  0.45269715  1
  Se  Se154  1  0.08310968  0.58466050  0.95123618  1
  Se  Se155  1  0.08092608  0.92449891  0.44242346  1
  Se  Se156  1  0.07672959  0.92646207  0.93288186  1
  Se  Se157  1  0.41245150  0.25745532  0.43622748  1
  Se  Se158  1  0.41560241  0.25002071  0.94814601  1
  Se  Se159  1  0.41050797  0.57897937  0.45101381  1
  Se  Se160  1  0.42750952  0.56776421  0.94470788  1
  Se  Se161  1  0.42314419  0.91634627  0.45155865  1
  Se  Se162  1  0.41539189  0.92099065  0.93823250  1
  Se  Se163  1  0.74863492  0.26026482  0.43156678  1
  Se  Se164  1  0.74805108  0.25421927  0.95199216  1
  Se  Se165  1  0.74209782  0.58497664  0.44613432  1
  Se  Se166  1  0.74441231  0.58637780  0.93727918  1
  Se  Se167  1  0.74446515  0.92056290  0.44184272  1
  Se  Se168  1  0.74941480  0.91460274  0.94892566  1
  Se  Se169  1  0.26357551  0.07976397  0.44220831  1
  Se  Se170  1  0.24498240  0.08915040  0.94959962  1
  Se  Se171  1  0.24471743  0.41525434  0.44266760  1
  Se  Se172  1  0.24816403  0.41773576  0.94505194  1
  Se  Se173  1  0.25966523  0.74223789  0.43574473  1
  Se  Se174  1  0.26143125  0.74220405  0.93881077  1
  Se  Se175  1  0.59299569  0.08020113  0.44810446  1
  Se  Se176  1  0.57603697  0.08145075  0.94697639  1
  Se  Se177  1  0.57488951  0.41719024  0.44349998  1
  Se  Se178  1  0.57761085  0.42296857  0.95241506  1
  Se  Se179  1  0.57094917  0.76364529  0.45251261  1
  Se  Se180  1  0.58795269  0.74220618  0.93938760  1
  Se  Se181  1  0.92351031  0.07536178  0.44836257  1
  Se  Se182  1  0.91150366  0.08979525  0.94323927  1
  Se  Se183  1  0.91199223  0.41833546  0.44380161  1
  Se  Se184  1  0.92503256  0.41709065  0.93593895  1
  Se  Se185  1  0.91783152  0.73532256  0.43753888  1
  Se  Se186  1  0.91508043  0.75499520  0.95550597  1
  Se  Se187  1  0.24360597  0.24082340  0.29468211  1
  Se  Se188  1  0.25501484  0.25513347  0.80742002  1
  Se  Se189  1  0.24498508  0.57932912  0.30620129  1
  Se  Se190  1  0.25170871  0.58064715  0.80410369  1
  Se  Se191  1  0.25868769  0.91171472  0.29955558  1
  Se  Se192  1  0.24953185  0.92045959  0.80128527  1
  Se  Se193  1  0.58069847  0.24982916  0.29460121  1
  Se  Se194  1  0.58146728  0.25104602  0.82144369  1
  Se  Se195  1  0.57681296  0.58210865  0.30803931  1
  Se  Se196  1  0.57944500  0.57788571  0.80592423  1
  Se  Se197  1  0.58117301  0.91053396  0.31551694  1
  Se  Se198  1  0.58107500  0.91379828  0.80148269  1
  Se  Se199  1  0.92412536  0.25576750  0.29647880  1
  Se  Se200  1  0.91665253  0.24985334  0.80348732  1
  Se  Se201  1  0.92142572  0.57822165  0.31278365  1
  Se  Se202  1  0.92173417  0.58645113  0.80271484  1
  Se  Se203  1  0.91930023  0.91484221  0.30375833  1
  Se  Se204  1  0.91424145  0.91402921  0.80811860  1
  Se  Se205  1  0.09131330  0.09152275  0.31476352  1
  Se  Se206  1  0.08314217  0.08638909  0.80460447  1
  Se  Se207  1  0.08041390  0.41876743  0.30215293  1
  Se  Se208  1  0.08509657  0.41396594  0.80367548  1
  Se  Se209  1  0.09741994  0.76308866  0.30372036  1
  Se  Se210  1  0.08318658  0.74538140  0.80921887  1
  Se  Se211  1  0.42211438  0.08011478  0.30045571  1
  Se  Se212  1  0.39488272  0.07041795  0.80815673  1
  Se  Se213  1  0.40700159  0.41427010  0.29984156  1
  Se  Se214  1  0.41472921  0.41468187  0.80181671  1
  Se  Se215  1  0.43004419  0.74579529  0.31559914  1
  Se  Se216  1  0.41038441  0.74491820  0.80048880  1
  Se  Se217  1  0.76141805  0.09749789  0.30835660  1
  Se  Se218  1  0.74437868  0.07962694  0.80946659  1
  Se  Se219  1  0.72830611  0.40326993  0.30435600  1
  Se  Se220  1  0.75914864  0.41809829  0.80748722  1
  Se  Se221  1  0.75166017  0.75315248  0.29786875  1
  Se  Se222  1  0.75267486  0.74782585  0.81395789  1
  Se  Se223  1  0.26178048  0.07481932  0.19340254  1
  Se  Se224  1  0.25133966  0.09167472  0.70071584  1
  Se  Se225  1  0.25129902  0.41545566  0.19227780  1
  Se  Se226  1  0.25478997  0.41138483  0.69565089  1
  Se  Se227  1  0.24323459  0.75615564  0.18927205  1
  Se  Se228  1  0.24053495  0.75506168  0.69849334  1
  Se  Se229  1  0.58070209  0.08909585  0.18510191  1
  Se  Se230  1  0.57820164  0.08734799  0.70908575  1
  Se  Se231  1  0.57758702  0.41863679  0.19498124  1
  Se  Se232  1  0.58454600  0.43007225  0.68891138  1
  Se  Se233  1  0.58548492  0.74123927  0.20033456  1
  Se  Se234  1  0.56988279  0.75262803  0.68782241  1
  Se  Se235  1  0.90988443  0.09527967  0.18389804  1
  Se  Se236  1  0.91746320  0.07739813  0.70442224  1
  Se  Se237  1  0.90595983  0.42890466  0.20117412  1
  Se  Se238  1  0.92435900  0.40849348  0.69674026  1
  Se  Se239  1  0.91473272  0.75928999  0.18441015  1
  Se  Se240  1  0.91336684  0.74680662  0.70116452  1
  Se  Se241  1  0.07842843  0.24768336  0.19359762  1
  Se  Se242  1  0.08366584  0.25323437  0.70007931  1
  Se  Se243  1  0.08961770  0.58037847  0.18728337  1
  Se  Se244  1  0.08387952  0.57849719  0.69778580  1
  Se  Se245  1  0.09643446  0.91210217  0.19073778  1
  Se  Se246  1  0.07758903  0.92267049  0.70443443  1
  Se  Se247  1  0.41177394  0.25214268  0.19042228  1
  Se  Se248  1  0.44349151  0.24497093  0.70188158  1
  Se  Se249  1  0.41669610  0.57271780  0.18494250  1
  Se  Se250  1  0.41069003  0.58602958  0.69431037  1
  Se  Se251  1  0.42250417  0.91155889  0.20011450  1
  Se  Se252  1  0.41007156  0.91898065  0.69901517  1
  Se  Se253  1  0.74405319  0.25628390  0.19285894  1
  Se  Se254  1  0.75849252  0.23722104  0.68965584  1
  Se  Se255  1  0.75538893  0.58474201  0.20428873  1
  Se  Se256  1  0.75903237  0.56861416  0.69065174  1
  Se  Se257  1  0.75350811  0.91880907  0.18921882  1
  Se  Se258  1  0.74340462  0.91385645  0.70327631  1
