# generated using pymatgen
data_In86Cu29Se144
_symmetry_space_group_name_H-M   'P 1'
_cell_length_a   17.58618653
_cell_length_b   17.58531521
_cell_length_c   23.44775133
_cell_angle_alpha   90.00832081
_cell_angle_beta   89.98092725
_cell_angle_gamma   89.99254256
_symmetry_Int_Tables_number   1
_chemical_formula_structural   In86Cu29Se144
_chemical_formula_sum   'In86 Cu29 Se144'
_cell_volume   7251.41899357
_cell_formula_units_Z   1
loop_
 _symmetry_equiv_pos_site_id
 _symmetry_equiv_pos_as_xyz
  1  'x, y, z'
loop_
 _atom_site_type_symbol
 _atom_site_label
 _atom_site_symmetry_multiplicity
 _atom_site_fract_x
 _atom_site_fract_y
 _atom_site_fract_z
 _atom_site_occupancy
  In  In0  1  0.00218767  0.17065201  0.13654805  1
  In  In1  1  0.00946014  0.16085864  0.63456810  1
  In  In2  1  -0.01151746  0.49002973  0.11611817  1
  In  In3  1  -0.00653090  0.48871988  0.62324435  1
  In  In4  1  0.01791145  0.83495578  0.11815752  1
  In  In5  1  0.01054231  0.83881399  0.63039156  1
  In  In6  1  0.31287997  0.15693556  0.12424767  1
  In  In7  1  0.32854522  0.15790245  0.61743240  1
  In  In8  1  0.32993820  0.50769336  0.12338047  1
  In  In9  1  0.33883844  0.50330866  0.62102811  1
  In  In10  1  0.32725707  0.84593731  0.12612994  1
  In  In11  1  0.33832497  0.83235627  0.63098996  1
  In  In12  1  0.68258306  0.17253760  0.12631421  1
  In  In13  1  0.66505116  0.17957362  0.62660703  1
  In  In14  1  0.68363819  0.48523438  0.13785698  1
  In  In15  1  0.66737045  0.49849486  0.62520632  1
  In  In16  1  0.65371369  0.83207238  0.12924692  1
  In  In17  1  0.65242902  0.83399459  0.62634357  1
  In  In18  1  0.18816927  0.02125920  0.35174312  1
  In  In19  1  0.17142028  0.00810249  0.88067224  1
  In  In20  1  0.16645275  0.33173172  0.37874145  1
  In  In21  1  0.15216316  0.34413977  0.87989057  1
  In  In22  1  0.15834641  0.65412024  0.37717077  1
  In  In23  1  0.17320364  0.65803175  0.87234826  1
  In  In24  1  0.47533609  0.01930283  0.39967247  1
  In  In25  1  0.47987072  0.00379743  0.86799762  1
  In  In26  1  0.50457796  0.32752626  0.38250674  1
  In  In27  1  0.51436470  0.32022244  0.86500568  1
  In  In28  1  0.50798976  0.65750434  0.38841339  1
  In  In29  1  0.49984933  0.66874753  0.86299254  1
  In  In30  1  0.84920514  0.01307812  0.36466795  1
  In  In31  1  0.85850337  0.00176239  0.87351294  1
  In  In32  1  0.84641737  0.33733961  0.36653190  1
  In  In33  1  0.83558251  0.33180499  0.87669442  1
  In  In34  1  0.81725902  0.66574368  0.37461779  1
  In  In35  1  0.81807556  0.66392422  0.87312291  1
  In  In36  1  0.01896758  0.18425369  0.35415263  1
  In  In37  1  0.00367586  0.16946005  0.87878092  1
  In  In38  1  0.00572713  0.48323242  0.38338755  1
  In  In39  1  0.00978653  0.48449353  0.87770634  1
  In  In40  1  -0.00641418  0.84374497  0.37393178  1
  In  In41  1  0.00131204  0.86324854  0.87109090  1
  In  In42  1  0.33109692  0.16379673  0.38041717  1
  In  In43  1  0.32374408  0.14539355  0.86739900  1
  In  In44  1  0.33216552  0.49886400  0.38833534  1
  In  In45  1  0.31245895  0.50086975  0.86170727  1
  In  In46  1  0.32971733  0.85262206  0.38203606  1
  In  In47  1  0.32724616  0.83068680  0.87037242  1
  In  In48  1  0.65410124  0.16533105  0.37300487  1
  In  In49  1  0.66190845  0.18466623  0.87242521  1
  In  In50  1  0.66892102  0.49908331  0.38018595  1
  In  In51  1  0.67151689  0.50339875  0.87086997  1
  In  In52  1  0.66402606  0.82673502  0.37584729  1
  In  In53  1  0.67906896  0.82321022  0.86815555  1
  In  In54  1  0.16941346  0.00223941  0.12876728  1
  In  In55  1  0.16782696  0.00680366  0.63066561  1
  In  In56  1  0.14593539  0.31477050  0.11361528  1
  In  In57  1  0.16168896  0.32402229  0.62467982  1
  In  In58  1  0.15864534  0.65991175  0.11033616  1
  In  In59  1  0.17741678  0.66498387  0.63181394  1
  In  In60  1  0.49377973  -0.00404054  0.12944226  1
  In  In61  1  0.48885347  -0.00646706  0.61116235  1
  In  In62  1  0.50684556  0.34202655  0.13188057  1
  In  In63  1  0.50463828  0.34221114  0.61629577  1
  In  In64  1  0.50597936  0.67979322  0.12932351  1
  In  In65  1  0.50049276  0.66449678  0.62687621  1
  In  In66  1  0.84159929  0.02644476  0.11874195  1
  In  In67  1  0.84249907  0.00805081  0.63067707  1
  In  In68  1  0.83604434  0.33233310  0.13036531  1
  In  In69  1  0.82369483  0.34202479  0.63324410  1
  In  In70  1  0.83580026  0.65062612  0.12319245  1
  In  In71  1  0.83907147  0.64773485  0.62821043  1
  In  In72  1  0.66799624  0.00019383  0.74820966  1
  In  In73  1  0.49449320  0.83122482  -0.00859432  1
  In  In74  1  0.49786326  0.50301690  0.00084318  1
  In  In75  1  0.49309468  0.16703518  -0.00349153  1
  In  In76  1  0.16904817  0.82949896  0.50600930  1
  In  In77  1  0.83212240  0.17245743  0.50069348  1
  In  In78  1  0.33751907  0.67052275  0.25147464  1
  In  In79  1  0.66571632  -0.00496042  0.25299955  1
  In  In80  1  0.82974137  0.83089675  0.49584788  1
  In  In81  1  0.33643180  0.33283271  0.74391987  1
  In  In82  1  -0.00219434  0.66912367  0.75236679  1
  In  In83  1  -0.00216886  0.66768037  0.24630881  1
  In  In84  1  0.83570860  0.83011239  -0.00625170  1
  In  In85  1  0.33572882  0.33024283  0.24988837  1
  Cu  Cu86  1  0.49673632  0.83469456  0.74445778  1
  Cu  Cu87  1  0.67601160  0.33645750  0.00212487  1
  Cu  Cu88  1  0.83325086  0.50265185  0.25216325  1
  Cu  Cu89  1  0.16671922  0.83767240  0.24576333  1
  Cu  Cu90  1  0.66849963  0.00742466  -0.00169692  1
  Cu  Cu91  1  0.16544895  0.16857648  0.75280048  1
  Cu  Cu92  1  0.66672303  0.33887097  0.50048627  1
  Cu  Cu93  1  0.32613703  0.33209449  -0.00744616  1
  Cu  Cu94  1  0.51176285  0.50346493  0.26025150  1
  Cu  Cu95  1  -0.00343364  0.33167915  0.00199639  1
  Cu  Cu96  1  0.16819373  0.84720140  0.75248752  1
  Cu  Cu97  1  0.50318056  0.49931334  0.74249527  1
  Cu  Cu98  1  0.49582704  0.16449211  0.25708922  1
  Cu  Cu99  1  0.83100371  0.49240087  0.75166865  1
  Cu  Cu100  1  0.66680004  0.66177751  0.50354594  1
  Cu  Cu101  1  0.84173909  0.16707357  0.75391706  1
  Cu  Cu102  1  0.66589207  -0.00243135  0.49735403  1
  Cu  Cu103  1  0.32673014  0.33109889  0.50417965  1
  Cu  Cu104  1  0.33467450  0.66872080  0.50806649  1
  Cu  Cu105  1  0.82887553  0.83479167  0.24565814  1
  Cu  Cu106  1  -0.00101688  0.32629853  0.49898871  1
  Cu  Cu107  1  -0.00209684  0.65136192  0.50078350  1
  Cu  Cu108  1  0.67032366  0.65448151  0.00206078  1
  Cu  Cu109  1  0.00172713  0.66560093  -0.00839634  1
  Cu  Cu110  1  0.50215816  0.83372087  0.25870274  1
  Cu  Cu111  1  0.00775153  0.01024817  0.00260081  1
  Cu  Cu112  1  0.16348828  0.48956140  0.24975239  1
  Cu  Cu113  1  0.32694528  0.66415207  -0.00619607  1
  Cu  Cu114  1  0.00872065  0.00293719  0.50025115  1
  Se  Se115  1  0.08397222  0.08961074  0.06390063  1
  Se  Se116  1  0.08630119  0.08564982  0.55804763  1
  Se  Se117  1  0.08457677  0.41944541  0.05021315  1
  Se  Se118  1  0.08083090  0.40972666  0.55512011  1
  Se  Se119  1  0.08504317  0.75085112  0.04277922  1
  Se  Se120  1  0.07316228  0.73635485  0.56055981  1
  Se  Se121  1  0.40837063  0.07411730  0.05792694  1
  Se  Se122  1  0.41871480  0.08874817  0.54626717  1
  Se  Se123  1  0.40821310  0.40535587  0.05747605  1
  Se  Se124  1  0.41411232  0.41830671  0.54958389  1
  Se  Se125  1  0.40785485  0.74118387  0.05689077  1
  Se  Se126  1  0.41835347  0.75168475  0.55942789  1
  Se  Se127  1  0.75075212  0.09350190  0.04772307  1
  Se  Se128  1  0.74518163  0.07532532  0.55986807  1
  Se  Se129  1  0.75738867  0.41869513  0.05702682  1
  Se  Se130  1  0.75250861  0.41765265  0.55486756  1
  Se  Se131  1  0.74240369  0.74667296  0.05953477  1
  Se  Se132  1  0.74786329  0.74325362  0.56292012  1
  Se  Se133  1  0.25001601  0.24911981  0.05169682  1
  Se  Se134  1  0.24335952  0.24495205  0.55339104  1
  Se  Se135  1  0.24901526  0.57661513  0.04783789  1
  Se  Se136  1  0.24694571  0.58437355  0.55539410  1
  Se  Se137  1  0.23741215  0.91014917  0.05689829  1
  Se  Se138  1  0.25702616  0.92340140  0.56133036  1
  Se  Se139  1  0.58580132  0.25751161  0.05699169  1
  Se  Se140  1  0.58538035  0.25077473  0.55059318  1
  Se  Se141  1  0.58962831  0.58326012  0.06740049  1
  Se  Se142  1  0.58168903  0.58026548  0.55729530  1
  Se  Se143  1  0.58727741  0.92483239  0.05363562  1
  Se  Se144  1  0.58414737  0.91258124  0.54924805  1
  Se  Se145  1  0.91998947  0.25011071  0.06236095  1
  Se  Se146  1  0.92137771  0.25356078  0.56723720  1
  Se  Se147  1  0.91844953  0.58481641  0.04720921  1
  Se  Se148  1  0.91153887  0.57087223  0.55207794  1
  Se  Se149  1  0.92146389  0.92347823  0.05612128  1
  Se  Se150  1  0.92399095  0.92113699  0.55569204  1
  Se  Se151  1  0.08101264  0.24397125  0.44345690  1
  Se  Se152  1  0.08475907  0.25130721  0.94988685  1
  Se  Se153  1  0.08689137  0.57157817  0.45004980  1
  Se  Se154  1  0.08614457  0.58063820  0.94099871  1
  Se  Se155  1  0.08500810  0.91863128  0.44151078  1
  Se  Se156  1  0.08569022  0.92268826  0.94892879  1
  Se  Se157  1  0.41125863  0.25194043  0.44661473  1
  Se  Se158  1  0.40975797  0.25802027  0.93231849  1
  Se  Se159  1  0.41624382  0.58224366  0.45405008  1
  Se  Se160  1  0.41131846  0.58732208  0.93456132  1
  Se  Se161  1  0.42543204  0.90284869  0.45457942  1
  Se  Se162  1  0.40088057  0.92716731  0.94438930  1
  Se  Se163  1  0.74348891  0.25795855  0.43705124  1
  Se  Se164  1  0.75086325  0.24846776  0.94643700  1
  Se  Se165  1  0.75315650  0.58138956  0.45067962  1
  Se  Se166  1  0.75343145  0.57462519  0.94756032  1
  Se  Se167  1  0.75153487  0.93031876  0.43352096  1
  Se  Se168  1  0.74475422  0.92478202  0.93706120  1
  Se  Se169  1  0.24542133  0.07565962  0.44238870  1
  Se  Se170  1  0.24868879  0.09310743  0.95129404  1
  Se  Se171  1  0.24369567  0.41536919  0.44999665  1
  Se  Se172  1  0.24887856  0.42280804  0.94234236  1
  Se  Se173  1  0.25508112  0.73879750  0.43916016  1
  Se  Se174  1  0.24668473  0.75014727  0.94143750  1
  Se  Se175  1  0.58464002  0.09044831  0.45202575  1
  Se  Se176  1  0.58439399  0.07753215  0.93470352  1
  Se  Se177  1  0.57977139  0.42074616  0.44803767  1
  Se  Se178  1  0.58659850  0.40897729  0.94274913  1
  Se  Se179  1  0.58777094  0.75098595  0.45168118  1
  Se  Se180  1  0.59315705  0.73755141  0.94156597  1
  Se  Se181  1  0.92642929  0.08526936  0.44348515  1
  Se  Se182  1  0.91846840  0.08813219  0.94991299  1
  Se  Se183  1  0.91181645  0.41014905  0.44973932  1
  Se  Se184  1  0.91620008  0.41589602  0.94685304  1
  Se  Se185  1  0.92551978  0.73808105  0.43988325  1
  Se  Se186  1  0.92530525  0.74593424  0.92976883  1
  Se  Se187  1  0.24387846  0.24174867  0.30656116  1
  Se  Se188  1  0.24532515  0.25267724  0.81144511  1
  Se  Se189  1  0.24605122  0.57195171  0.30591504  1
  Se  Se190  1  0.25288228  0.59589906  0.79238098  1
  Se  Se191  1  0.25831409  0.91311100  0.29668130  1
  Se  Se192  1  0.25321124  0.92766794  0.80728874  1
  Se  Se193  1  0.57874946  0.25328344  0.30364300  1
  Se  Se194  1  0.58733674  0.24430753  0.78949394  1
  Se  Se195  1  0.59081719  0.59046207  0.31160936  1
  Se  Se196  1  0.58469530  0.58049917  0.80156939  1
  Se  Se197  1  0.57157869  0.92186675  0.31993110  1
  Se  Se198  1  0.57591829  0.90962831  0.81149175  1
  Se  Se199  1  0.91088805  0.24471793  0.29693501  1
  Se  Se200  1  0.92245898  0.25220513  0.80815089  1
  Se  Se201  1  0.91624508  0.57987668  0.31370770  1
  Se  Se202  1  0.91161170  0.57332982  0.81200040  1
  Se  Se203  1  0.91475792  0.91468021  0.29757123  1
  Se  Se204  1  0.89753981  0.90174396  0.79958784  1
  Se  Se205  1  0.05876439  0.05619394  0.31004701  1
  Se  Se206  1  0.08458508  0.08446955  0.80954915  1
  Se  Se207  1  0.08230769  0.41011612  0.30631414  1
  Se  Se208  1  0.09049611  0.42150909  0.79906433  1
  Se  Se209  1  0.09062821  0.75642038  0.30858935  1
  Se  Se210  1  0.08736675  0.76307484  0.81088212  1
  Se  Se211  1  0.41492730  0.08108671  0.31003689  1
  Se  Se212  1  0.43384739  0.10833768  0.80077928  1
  Se  Se213  1  0.42001602  0.42539394  0.31226688  1
  Se  Se214  1  0.42596131  0.42258361  0.80928280  1
  Se  Se215  1  0.42139429  0.75351203  0.31932906  1
  Se  Se216  1  0.41322887  0.75301370  0.80052039  1
  Se  Se217  1  0.75337832  0.09593745  0.30383527  1
  Se  Se218  1  0.75641814  0.08772194  0.81318568  1
  Se  Se219  1  0.75118987  0.42050703  0.30799519  1
  Se  Se220  1  0.74743766  0.40955753  0.80653376  1
  Se  Se221  1  0.74887602  0.75447282  0.30218910  1
  Se  Se222  1  0.74738815  0.73939563  0.79577096  1
  Se  Se223  1  0.25063175  0.07850617  0.20296768  1
  Se  Se224  1  0.25237596  0.08901895  0.69888108  1
  Se  Se225  1  0.24637788  0.41686543  0.18675814  1
  Se  Se226  1  0.24445246  0.42234244  0.68754268  1
  Se  Se227  1  0.23860192  0.74565061  0.18768537  1
  Se  Se228  1  0.24628443  0.75892131  0.69896128  1
  Se  Se229  1  0.57814799  0.09009555  0.19121964  1
  Se  Se230  1  0.57976625  0.07986244  0.68180413  1
  Se  Se231  1  0.58773556  0.41555415  0.20495665  1
  Se  Se232  1  0.58574134  0.41209157  0.69349224  1
  Se  Se233  1  0.58557219  0.75017401  0.20592120  1
  Se  Se234  1  0.58232351  0.74754838  0.69841800  1
  Se  Se235  1  0.91286172  0.08687903  0.20075339  1
  Se  Se236  1  0.92422004  0.07978791  0.70418375  1
  Se  Se237  1  0.91840831  0.42158762  0.19787282  1
  Se  Se238  1  0.91910228  0.41181767  0.70056015  1
  Se  Se239  1  0.91093863  0.75852686  0.18291675  1
  Se  Se240  1  0.91021948  0.75609686  0.68765775  1
  Se  Se241  1  0.08871012  0.25493582  0.20223676  1
  Se  Se242  1  0.08163418  0.25382144  0.70245739  1
  Se  Se243  1  0.08759306  0.57417088  0.18880500  1
  Se  Se244  1  0.08213997  0.57825237  0.69062464  1
  Se  Se245  1  0.07925993  0.91800517  0.19555820  1
  Se  Se246  1  0.08122770  0.92687125  0.70021787  1
  Se  Se247  1  0.42265054  0.23848151  0.18672449  1
  Se  Se248  1  0.42199135  0.24642051  0.68070566  1
  Se  Se249  1  0.43015613  0.57532304  0.19412301  1
  Se  Se250  1  0.41468699  0.58299095  0.69575406  1
  Se  Se251  1  0.41887191  0.90990582  0.19921913  1
  Se  Se252  1  0.41793492  0.92494089  0.69503397  1
  Se  Se253  1  0.73629030  0.26740691  0.19710450  1
  Se  Se254  1  0.75441336  0.24470649  0.69950985  1
  Se  Se255  1  0.75067533  0.58906793  0.20068903  1
  Se  Se256  1  0.74979649  0.57808708  0.69855503  1
  Se  Se257  1  0.75588905  0.91771764  0.18189089  1
  Se  Se258  1  0.75638283  0.90963370  0.68753197  1
