# generated using pymatgen
data_In86Cu29Se144
_symmetry_space_group_name_H-M   'P 1'
_cell_length_a   17.58318258
_cell_length_b   17.58475216
_cell_length_c   23.44803025
_cell_angle_alpha   90.00740952
_cell_angle_beta   90.00571355
_cell_angle_gamma   89.99792914
_symmetry_Int_Tables_number   1
_chemical_formula_structural   In86Cu29Se144
_chemical_formula_sum   'In86 Cu29 Se144'
_cell_volume   7250.03490181
_cell_formula_units_Z   1
loop_
 _symmetry_equiv_pos_site_id
 _symmetry_equiv_pos_as_xyz
  1  'x, y, z'
loop_
 _atom_site_type_symbol
 _atom_site_label
 _atom_site_symmetry_multiplicity
 _atom_site_fract_x
 _atom_site_fract_y
 _atom_site_fract_z
 _atom_site_occupancy
  In  In0  1  -0.00293141  0.16318237  0.12291694  1
  In  In1  1  -0.00202323  0.16505904  0.62503552  1
  In  In2  1  0.00512938  0.50969338  0.12183051  1
  In  In3  1  0.01335352  0.49013186  0.64132666  1
  In  In4  1  0.01052381  0.82887005  0.12601471  1
  In  In5  1  0.01118437  0.82491843  0.63222431  1
  In  In6  1  0.32922276  0.16418845  0.12354496  1
  In  In7  1  0.33650302  0.17239868  0.61476122  1
  In  In8  1  0.32423335  0.49455210  0.12988880  1
  In  In9  1  0.33663824  0.50702584  0.62527162  1
  In  In10  1  0.32918428  0.85590878  0.12657897  1
  In  In11  1  0.31822547  0.83124694  0.62020827  1
  In  In12  1  0.66191845  0.15558217  0.11358779  1
  In  In13  1  0.66166892  0.16136302  0.62134171  1
  In  In14  1  0.67187501  0.48883768  0.12162324  1
  In  In15  1  0.66642928  0.50208619  0.62944800  1
  In  In16  1  0.67785124  0.84919914  0.12240376  1
  In  In17  1  0.67285092  0.82995543  0.63467859  1
  In  In18  1  0.16353971  0.00179256  0.37092242  1
  In  In19  1  0.16000480  0.01210652  0.88185962  1
  In  In20  1  0.17794624  0.31813494  0.38351873  1
  In  In21  1  0.16023871  0.33267349  0.87358323  1
  In  In22  1  0.16005476  0.67630946  0.38415472  1
  In  In23  1  0.16685212  0.66649762  0.86731474  1
  In  In24  1  0.51119482  0.01494199  0.36399737  1
  In  In25  1  0.50898890  0.00726519  0.87592042  1
  In  In26  1  0.49327705  0.33933319  0.38571358  1
  In  In27  1  0.49039770  0.32121382  0.87583786  1
  In  In28  1  0.48764344  0.65958189  0.38179664  1
  In  In29  1  0.49287154  0.65880312  0.85756549  1
  In  In30  1  0.84713617  0.01073039  0.36563372  1
  In  In31  1  0.83532789  0.00343768  0.87469168  1
  In  In32  1  0.82293170  0.32234453  0.37793081  1
  In  In33  1  0.84612116  0.32042380  0.87951432  1
  In  In34  1  0.84286540  0.65914259  0.37473475  1
  In  In35  1  0.83438911  0.66449688  0.87044465  1
  In  In36  1  0.00974418  0.15348451  0.38446900  1
  In  In37  1  0.00286705  0.16346730  0.87365552  1
  In  In38  1  0.00012179  0.51507336  0.37329484  1
  In  In39  1  0.00376400  0.48822551  0.86521632  1
  In  In40  1  0.01243759  0.84345411  0.36729253  1
  In  In41  1  0.00489844  0.84073133  0.87241556  1
  In  In42  1  0.32807068  0.17001841  0.37031289  1
  In  In43  1  0.33766197  0.17275835  0.89153059  1
  In  In44  1  0.33643985  0.48527309  0.38530153  1
  In  In45  1  0.31861058  0.50085927  0.86591090  1
  In  In46  1  0.31854996  0.83422624  0.37584512  1
  In  In47  1  0.32724933  0.82160548  0.87523724  1
  In  In48  1  0.67555983  0.16370609  0.38585960  1
  In  In49  1  0.67443577  0.15538440  0.88758873  1
  In  In50  1  0.65963306  0.48234588  0.38151876  1
  In  In51  1  0.66986670  0.51736775  0.86863055  1
  In  In52  1  0.65873516  0.84305775  0.37550473  1
  In  In53  1  0.66824131  0.83669810  0.86806680  1
  In  In54  1  0.16648578  0.00313147  0.12295086  1
  In  In55  1  0.16146788  -0.00787409  0.61524417  1
  In  In56  1  0.18636822  0.32059495  0.13320904  1
  In  In57  1  0.15837725  0.32539873  0.61761291  1
  In  In58  1  0.14725156  0.66711410  0.12139140  1
  In  In59  1  0.16459615  0.66618945  0.62653654  1
  In  In60  1  0.49328407  0.01432196  0.13313413  1
  In  In61  1  0.50515523  0.01297738  0.62144307  1
  In  In62  1  0.49450330  0.32215104  0.12379388  1
  In  In63  1  0.50462387  0.33380596  0.61298249  1
  In  In64  1  0.49250833  0.66693970  0.12238632  1
  In  In65  1  0.50621079  0.64955861  0.64284434  1
  In  In66  1  0.82567702  0.01320855  0.12907615  1
  In  In67  1  0.83027726  0.00402018  0.63311998  1
  In  In68  1  0.83257221  0.33262921  0.11323209  1
  In  In69  1  0.84726527  0.33753343  0.62568659  1
  In  In70  1  0.85566542  0.67202770  0.11276403  1
  In  In71  1  0.84031802  0.66008842  0.63653609  1
  In  In72  1  0.49739089  0.83883696  0.00021949  1
  In  In73  1  0.33307804  -0.00237747  0.74275144  1
  In  In74  1  0.16265533  0.48839258  -0.00746932  1
  In  In75  1  0.83142615  0.49437226  0.50745227  1
  In  In76  1  0.83687396  0.83388177  0.50682001  1
  In  In77  1  0.33093058  0.33640531  0.74855476  1
  In  In78  1  0.83685209  0.84237532  -0.00965582  1
  In  In79  1  0.48856945  0.83345721  0.50051097  1
  In  In80  1  0.67261693  0.67390446  0.25057196  1
  In  In81  1  0.00809651  0.32782247  0.24628641  1
  In  In82  1  0.66548219  0.32939344  0.25246432  1
  In  In83  1  0.50455214  0.49792576  -0.00513423  1
  In  In84  1  0.66888012  0.33140185  0.74366322  1
  In  In85  1  0.32549013  0.67173802  0.25939227  1
  Cu  Cu86  1  0.32739938  0.00185175  0.00493216  1
  Cu  Cu87  1  0.83382111  0.49777017  0.75104040  1
  Cu  Cu88  1  0.00494754  0.32869146  -0.00150277  1
  Cu  Cu89  1  0.83904774  0.83832399  0.24320245  1
  Cu  Cu90  1  0.66800002  0.67158661  -0.01007346  1
  Cu  Cu91  1  0.16426431  0.83456096  0.74790011  1
  Cu  Cu92  1  0.67060066  0.00129476  0.50113789  1
  Cu  Cu93  1  0.16416390  0.83647618  0.24876650  1
  Cu  Cu94  1  0.32489557  0.33045993  0.50010069  1
  Cu  Cu95  1  0.16693708  0.49723251  0.25155212  1
  Cu  Cu96  1  0.65903035  0.65755966  0.50743751  1
  Cu  Cu97  1  0.84038663  0.50835064  0.24556063  1
  Cu  Cu98  1  0.83296488  0.83807235  0.75547412  1
  Cu  Cu99  1  0.00023499  0.00371187  0.49553916  1
  Cu  Cu100  1  0.49528468  0.16922634  0.24931532  1
  Cu  Cu101  1  0.00873253  0.66999140  0.50353871  1
  Cu  Cu102  1  0.16103325  0.16613761  0.74778806  1
  Cu  Cu103  1  0.33054270  0.65879536  0.50421023  1
  Cu  Cu104  1  0.50082251  0.83360093  0.75015747  1
  Cu  Cu105  1  0.50485020  0.16098730  0.74904483  1
  Cu  Cu106  1  0.67520032  0.33633119  -0.00416917  1
  Cu  Cu107  1  0.33092594  0.00715113  0.49327545  1
  Cu  Cu108  1  0.84077541  0.16247743  0.75625421  1
  Cu  Cu109  1  0.50595684  0.84298710  0.24854691  1
  Cu  Cu110  1  0.49520082  0.49759884  0.26015589  1
  Cu  Cu111  1  0.32157300  0.66604372  -0.00628364  1
  Cu  Cu112  1  -0.00460376  0.33246786  0.50255294  1
  Cu  Cu113  1  -0.00049571  0.00270046  -0.00017127  1
  Cu  Cu114  1  0.83416903  0.16584960  0.24992386  1
  Se  Se115  1  0.08377746  0.08583267  0.05329625  1
  Se  Se116  1  0.08215036  0.08576401  0.55312204  1
  Se  Se117  1  0.08367118  0.40232524  0.06562747  1
  Se  Se118  1  0.07530566  0.41951702  0.55576755  1
  Se  Se119  1  0.07426974  0.74601020  0.04849324  1
  Se  Se120  1  0.09071007  0.75695110  0.55407275  1
  Se  Se121  1  0.41701470  0.08281374  0.05411313  1
  Se  Se122  1  0.41700663  0.08227383  0.55020384  1
  Se  Se123  1  0.41169579  0.41704020  0.05832350  1
  Se  Se124  1  0.40664657  0.41325987  0.55579931  1
  Se  Se125  1  0.40087761  0.74601042  0.05665566  1
  Se  Se126  1  0.41409283  0.73716595  0.56482421  1
  Se  Se127  1  0.75679283  0.08450006  0.04897742  1
  Se  Se128  1  0.75408316  0.08069880  0.55718469  1
  Se  Se129  1  0.75634636  0.42427197  0.04626379  1
  Se  Se130  1  0.73849743  0.40287547  0.56238682  1
  Se  Se131  1  0.74500569  0.74902685  0.05404867  1
  Se  Se132  1  0.74557132  0.73646877  0.56107840  1
  Se  Se133  1  0.25426783  0.25132088  0.05272325  1
  Se  Se134  1  0.24139066  0.24303613  0.54911122  1
  Se  Se135  1  0.24985683  0.58421924  0.05790357  1
  Se  Se136  1  0.24348952  0.57960680  0.55722741  1
  Se  Se137  1  0.24187285  0.91357968  0.05000227  1
  Se  Se138  1  0.25262375  0.91890667  0.54638534  1
  Se  Se139  1  0.59228804  0.26122770  0.05594680  1
  Se  Se140  1  0.56859504  0.23039663  0.55377814  1
  Se  Se141  1  0.59222557  0.59357288  0.05682216  1
  Se  Se142  1  0.57638187  0.57746378  0.56064614  1
  Se  Se143  1  0.58452433  0.92956559  0.05946356  1
  Se  Se144  1  0.59239376  0.91429355  0.55790531  1
  Se  Se145  1  0.91868700  0.24666200  0.05150005  1
  Se  Se146  1  0.91355282  0.24708912  0.55417079  1
  Se  Se147  1  0.91461148  0.57006517  0.04891664  1
  Se  Se148  1  0.92453072  0.58835065  0.55983388  1
  Se  Se149  1  0.91959828  0.92339230  0.06177860  1
  Se  Se150  1  0.92796628  0.92401531  0.56333128  1
  Se  Se151  1  0.08004345  0.24966636  0.44946204  1
  Se  Se152  1  0.08695705  0.24604963  0.94392801  1
  Se  Se153  1  0.08495319  0.58115013  0.44909624  1
  Se  Se154  1  0.07739577  0.58403081  0.93742146  1
  Se  Se155  1  0.08499724  0.91809977  0.44510868  1
  Se  Se156  1  0.08265069  0.91909227  0.94683352  1
  Se  Se157  1  0.40867945  0.24781643  0.44516782  1
  Se  Se158  1  0.42784467  0.24844440  0.95709232  1
  Se  Se159  1  0.41577319  0.57559817  0.45259654  1
  Se  Se160  1  0.40783869  0.58804870  0.93858555  1
  Se  Se161  1  0.41377301  0.92686530  0.43356462  1
  Se  Se162  1  0.40476810  0.92532074  0.93812844  1
  Se  Se163  1  0.73739334  0.26285166  0.45283286  1
  Se  Se164  1  0.75761069  0.24667263  0.94865920  1
  Se  Se165  1  0.74328823  0.58691648  0.44215544  1
  Se  Se166  1  0.75353171  0.58494421  0.94412161  1
  Se  Se167  1  0.75180852  0.92251789  0.44100169  1
  Se  Se168  1  0.73385117  0.92914518  0.94273842  1
  Se  Se169  1  0.24488045  0.08647486  0.43984186  1
  Se  Se170  1  0.24704402  0.08793625  0.95118538  1
  Se  Se171  1  0.23924788  0.41826938  0.45184666  1
  Se  Se172  1  0.26444082  0.40264733  0.94081254  1
  Se  Se173  1  0.25382908  0.74877077  0.45141130  1
  Se  Se174  1  0.23752156  0.75033032  0.94462179  1
  Se  Se175  1  0.58316349  0.07957272  0.44744115  1
  Se  Se176  1  0.56792994  0.09639470  0.94971635  1
  Se  Se177  1  0.57676671  0.41805236  0.45550172  1
  Se  Se178  1  0.59454536  0.41048850  0.93248361  1
  Se  Se179  1  0.58857814  0.74227577  0.44370310  1
  Se  Se180  1  0.57840412  0.74496709  0.93474081  1
  Se  Se181  1  0.90860543  0.08547900  0.44927999  1
  Se  Se182  1  0.91723140  0.08483715  0.94444475  1
  Se  Se183  1  0.92014607  0.41263044  0.43756316  1
  Se  Se184  1  0.92623201  0.41343752  0.94243326  1
  Se  Se185  1  0.92588280  0.74757616  0.44211551  1
  Se  Se186  1  0.92507805  0.74489028  0.93953466  1
  Se  Se187  1  0.24683178  0.25362800  0.30130526  1
  Se  Se188  1  0.25030630  0.23628352  0.80841549  1
  Se  Se189  1  0.24336067  0.57514532  0.31768618  1
  Se  Se190  1  0.24963388  0.58801272  0.79648911  1
  Se  Se191  1  0.24928062  0.91732361  0.30204114  1
  Se  Se192  1  0.24408798  0.91583373  0.80899707  1
  Se  Se193  1  0.57567510  0.24455242  0.31455661  1
  Se  Se194  1  0.58413479  0.24214886  0.80900992  1
  Se  Se195  1  0.58167603  0.58060624  0.31121519  1
  Se  Se196  1  0.58409349  0.58150608  0.79523512  1
  Se  Se197  1  0.59275577  0.92458544  0.29912586  1
  Se  Se198  1  0.57957794  0.91984272  0.80404240  1
  Se  Se199  1  0.91411742  0.24536472  0.31025283  1
  Se  Se200  1  0.92523430  0.25053917  0.80248342  1
  Se  Se201  1  0.92303843  0.59193384  0.29726985  1
  Se  Se202  1  0.91840652  0.58031123  0.80381386  1
  Se  Se203  1  0.92214980  0.91875803  0.30031044  1
  Se  Se204  1  0.91790106  0.92186673  0.80579871  1
  Se  Se205  1  0.07084052  0.07680731  0.30461120  1
  Se  Se206  1  0.08293665  0.07915917  0.80204336  1
  Se  Se207  1  0.08686233  0.41892659  0.31366605  1
  Se  Se208  1  0.10423975  0.42385892  0.80012317  1
  Se  Se209  1  0.08721642  0.74690680  0.30320060  1
  Se  Se210  1  0.08080541  0.75301737  0.80278398  1
  Se  Se211  1  0.41199623  0.08449805  0.30179285  1
  Se  Se212  1  0.41421427  0.09049175  0.80802734  1
  Se  Se213  1  0.41311430  0.41090049  0.30837889  1
  Se  Se214  1  0.42581367  0.42249642  0.80863557  1
  Se  Se215  1  0.42830259  0.76195023  0.31033294  1
  Se  Se216  1  0.41080613  0.75434919  0.79979939  1
  Se  Se217  1  0.74745557  0.08847945  0.30676158  1
  Se  Se218  1  0.74871423  0.08571734  0.80688028  1
  Se  Se219  1  0.76034553  0.42746407  0.30588583  1
  Se  Se220  1  0.75603409  0.41447379  0.81173037  1
  Se  Se221  1  0.76315906  0.76348915  0.31256014  1
  Se  Se222  1  0.74981139  0.74916192  0.80402985  1
  Se  Se223  1  0.26636145  0.06427944  0.19011843  1
  Se  Se224  1  0.24486953  0.09164975  0.68517103  1
  Se  Se225  1  0.25408168  0.41327428  0.20454241  1
  Se  Se226  1  0.24051361  0.41797867  0.68557012  1
  Se  Se227  1  0.24414623  0.75368664  0.18754938  1
  Se  Se228  1  0.24889831  0.75131875  0.69609119  1
  Se  Se229  1  0.58740258  0.09221871  0.19713866  1
  Se  Se230  1  0.58957458  0.07827786  0.69780536  1
  Se  Se231  1  0.57426294  0.42437210  0.19383038  1
  Se  Se232  1  0.56918763  0.41966701  0.69334512  1
  Se  Se233  1  0.57799685  0.75860804  0.18679987  1
  Se  Se234  1  0.58628599  0.74828190  0.70022139  1
  Se  Se235  1  0.91911781  0.08398023  0.19721891  1
  Se  Se236  1  0.92221540  0.08072079  0.69845038  1
  Se  Se237  1  0.91215553  0.41745445  0.18909329  1
  Se  Se238  1  0.91941730  0.41083486  0.70374382  1
  Se  Se239  1  0.91914831  0.74966035  0.19330104  1
  Se  Se240  1  0.91447951  0.75624630  0.69874002  1
  Se  Se241  1  0.09693559  0.23075842  0.19483282  1
  Se  Se242  1  0.08035156  0.25089649  0.69408889  1
  Se  Se243  1  0.08520196  0.58096236  0.19853986  1
  Se  Se244  1  0.06231049  0.60737435  0.69382281  1
  Se  Se245  1  0.08312241  0.91981727  0.19366257  1
  Se  Se246  1  0.08561510  0.92316037  0.69526256  1
  Se  Se247  1  0.41134742  0.24995392  0.19553767  1
  Se  Se248  1  0.42505272  0.24409502  0.69126335  1
  Se  Se249  1  0.41942029  0.58060630  0.19826684  1
  Se  Se250  1  0.40234374  0.58650048  0.70417502  1
  Se  Se251  1  0.41627542  0.92271345  0.19952941  1
  Se  Se252  1  0.42543544  0.90859960  0.68272301  1
  Se  Se253  1  0.75545264  0.24592151  0.18858203  1
  Se  Se254  1  0.76256348  0.23865928  0.68977548  1
  Se  Se255  1  0.75605471  0.58407080  0.18530266  1
  Se  Se256  1  0.74848821  0.58084051  0.69997365  1
  Se  Se257  1  0.74986897  0.92360522  0.19959969  1
  Se  Se258  1  0.74805388  0.91993049  0.70113114  1
