# generated using pymatgen
data_In86Cu29Se144
_symmetry_space_group_name_H-M   'P 1'
_cell_length_a   17.58516500
_cell_length_b   17.58272581
_cell_length_c   23.44558442
_cell_angle_alpha   89.99895212
_cell_angle_beta   90.03442732
_cell_angle_gamma   90.00929591
_symmetry_Int_Tables_number   1
_chemical_formula_structural   In86Cu29Se144
_chemical_formula_sum   'In86 Cu29 Se144'
_cell_volume   7249.25922435
_cell_formula_units_Z   1
loop_
 _symmetry_equiv_pos_site_id
 _symmetry_equiv_pos_as_xyz
  1  'x, y, z'
loop_
 _atom_site_type_symbol
 _atom_site_label
 _atom_site_symmetry_multiplicity
 _atom_site_fract_x
 _atom_site_fract_y
 _atom_site_fract_z
 _atom_site_occupancy
  In  In0  1  0.00554531  0.15431596  0.12623725  1
  In  In1  1  -0.01804638  0.15639119  0.61187317  1
  In  In2  1  -0.00664634  0.51764338  0.12960214  1
  In  In3  1  0.00315825  0.51303468  0.62851338  1
  In  In4  1  -0.01141446  0.82376790  0.11551148  1
  In  In5  1  -0.00158110  0.83500706  0.62538743  1
  In  In6  1  0.32628377  0.16499605  0.13534186  1
  In  In7  1  0.32909603  0.16633837  0.61551897  1
  In  In8  1  0.34168105  0.48660815  0.12744074  1
  In  In9  1  0.33906729  0.48981206  0.61666232  1
  In  In10  1  0.34022436  0.84469256  0.12630290  1
  In  In11  1  0.33584880  0.84108603  0.61021629  1
  In  In12  1  0.67618444  0.16944620  0.13010129  1
  In  In13  1  0.67690308  0.15623626  0.63161255  1
  In  In14  1  0.66577602  0.51206558  0.11863126  1
  In  In15  1  0.66065539  0.51176088  0.63305751  1
  In  In16  1  0.64884598  0.81885003  0.09767971  1
  In  In17  1  0.66943577  0.83129095  0.62623775  1
  In  In18  1  0.17308823  -0.00213826  0.38291048  1
  In  In19  1  0.16445387  0.00206337  0.87753425  1
  In  In20  1  0.17028241  0.30699428  0.37318177  1
  In  In21  1  0.15646240  0.32182874  0.88020764  1
  In  In22  1  0.16190162  0.68251004  0.37221416  1
  In  In23  1  0.16638728  0.68361585  0.87578952  1
  In  In24  1  0.48614008  -0.00558859  0.37656337  1
  In  In25  1  0.51032063  -0.01634363  0.87984827  1
  In  In26  1  0.50430093  0.33837624  0.36773391  1
  In  In27  1  0.51581156  0.33196681  0.87429546  1
  In  In28  1  0.50986740  0.66029285  0.38003794  1
  In  In29  1  0.53120371  0.64783374  0.90494603  1
  In  In30  1  0.83656644  -0.00292131  0.38560715  1
  In  In31  1  0.81826313  -0.01966709  0.86316456  1
  In  In32  1  0.82414981  0.33398075  0.38081232  1
  In  In33  1  0.82968719  0.34939437  0.87830044  1
  In  In34  1  0.83901063  0.66983798  0.36433971  1
  In  In35  1  0.83005917  0.66662743  0.87503822  1
  In  In36  1  0.01097911  0.16073238  0.39135469  1
  In  In37  1  0.01370268  0.16461528  0.87807022  1
  In  In38  1  -0.01556976  0.50692534  0.36802110  1
  In  In39  1  -0.02154313  0.50376864  0.88033391  1
  In  In40  1  -0.00029567  0.83222967  0.37769183  1
  In  In41  1  -0.00097244  0.83434173  0.87107140  1
  In  In42  1  0.31269979  0.15044313  0.35094364  1
  In  In43  1  0.32610481  0.15339820  0.87525905  1
  In  In44  1  0.35162284  0.50266780  0.37135099  1
  In  In45  1  0.34076794  0.51267662  0.88048054  1
  In  In46  1  0.32901289  0.84168216  0.38349429  1
  In  In47  1  0.33944242  0.82784538  0.88447365  1
  In  In48  1  0.66132653  0.18014676  0.37628906  1
  In  In49  1  0.66948449  0.16860212  0.86550049  1
  In  In50  1  0.66604990  0.49081193  0.36562052  1
  In  In51  1  0.66996881  0.49974491  0.87616828  1
  In  In52  1  0.67320368  0.82687759  0.38051095  1
  In  In53  1  0.67228793  0.83097574  0.87970460  1
  In  In54  1  0.17702863  0.00677978  0.12457124  1
  In  In55  1  0.15541164  -0.01306504  0.61506079  1
  In  In56  1  0.17814120  0.32691921  0.13152064  1
  In  In57  1  0.16543776  0.32922201  0.61647980  1
  In  In58  1  0.14860482  0.66848858  0.12744126  1
  In  In59  1  0.15080626  0.67341850  0.62664307  1
  In  In60  1  0.49610863  -0.03515067  0.13124708  1
  In  In61  1  0.50893495  -0.00185844  0.62478042  1
  In  In62  1  0.49771817  0.33978562  0.12635860  1
  In  In63  1  0.50353844  0.34759058  0.62108572  1
  In  In64  1  0.51645372  0.67648652  0.11514393  1
  In  In65  1  0.50683862  0.67454427  0.61967058  1
  In  In66  1  0.83886181  -0.00639691  0.11974379  1
  In  In67  1  0.83481459  -0.00288983  0.62684326  1
  In  In68  1  0.81388944  0.34065755  0.13314336  1
  In  In69  1  0.83097334  0.31875137  0.62215854  1
  In  In70  1  0.82464856  0.67003523  0.11955110  1
  In  In71  1  0.82312205  0.67634376  0.63315195  1
  In  In72  1  -0.00637292  0.33563384  0.74831668  1
  In  In73  1  0.33568428  0.33373129  0.73835836  1
  In  In74  1  0.16878826  0.50187389  0.49989391  1
  In  In75  1  0.49779870  0.16325006  0.49510495  1
  In  In76  1  0.16654591  0.49696661  0.00849247  1
  In  In77  1  0.34010607  0.67373586  0.75117507  1
  In  In78  1  0.66119175  -0.00321894  0.24792785  1
  In  In79  1  0.49484335  0.16069953  -0.00219515  1
  In  In80  1  0.00225733  -0.00360196  0.25715692  1
  In  In81  1  0.34033674  -0.00152386  0.74519387  1
  In  In82  1  0.00174813  0.33232015  0.25317264  1
  In  In83  1  0.82948529  0.49926204  0.49438168  1
  In  In84  1  0.33675560  0.67160679  0.25276227  1
  In  In85  1  0.84085032  0.16112650  0.00197560  1
  Cu  Cu86  1  0.51403374  0.82322155  0.75571077  1
  Cu  Cu87  1  0.82328684  0.82346883  0.24272589  1
  Cu  Cu88  1  0.33386744  0.66830820  0.49277839  1
  Cu  Cu89  1  0.83700716  0.83343249  0.74966850  1
  Cu  Cu90  1  0.16494884  0.83819848  0.74815972  1
  Cu  Cu91  1  -0.00473614  0.67608780  0.49839682  1
  Cu  Cu92  1  -0.00317930  0.66782275  -0.00118736  1
  Cu  Cu93  1  -0.00131710  0.00053314  0.50459642  1
  Cu  Cu94  1  -0.00120359  0.32899383  0.00415778  1
  Cu  Cu95  1  0.82653928  0.50561745  0.75404326  1
  Cu  Cu96  1  0.50146497  0.17163967  0.24930867  1
  Cu  Cu97  1  0.15865690  0.83569147  0.25294458  1
  Cu  Cu98  1  0.66337021  0.33405558  0.49726824  1
  Cu  Cu99  1  0.67064763  -0.00545688  0.50634885  1
  Cu  Cu100  1  0.51088680  0.16347316  0.74771852  1
  Cu  Cu101  1  0.33473464  0.67034574  0.00592955  1
  Cu  Cu102  1  0.00489182  -0.00593431  -0.00341708  1
  Cu  Cu103  1  0.83066638  0.17053152  0.25766292  1
  Cu  Cu104  1  0.33162856  0.32836542  0.00584884  1
  Cu  Cu105  1  0.32579564  0.00173453  0.00398064  1
  Cu  Cu106  1  0.15744559  0.50500340  0.75215307  1
  Cu  Cu107  1  0.66537570  0.66763575  0.50420000  1
  Cu  Cu108  1  0.50824475  0.50305163  0.24577340  1
  Cu  Cu109  1  0.16157171  0.16269557  0.74753606  1
  Cu  Cu110  1  0.50504539  0.50352206  0.75339918  1
  Cu  Cu111  1  0.16453287  0.50000156  0.24784389  1
  Cu  Cu112  1  0.33843685  0.33090179  0.49203797  1
  Cu  Cu113  1  0.66634659  0.33993035  0.00155679  1
  Cu  Cu114  1  0.83794624  0.16531983  0.74795696  1
  Se  Se115  1  0.08389955  0.07803021  0.05342392  1
  Se  Se116  1  0.08604702  0.08789407  0.55221072  1
  Se  Se117  1  0.07552477  0.40875665  0.06919477  1
  Se  Se118  1  0.07076643  0.41738279  0.55777217  1
  Se  Se119  1  0.08428105  0.74991636  0.04918960  1
  Se  Se120  1  0.08251692  0.75581005  0.55171969  1
  Se  Se121  1  0.41120943  0.07602647  0.06513676  1
  Se  Se122  1  0.41095819  0.07007626  0.55579410  1
  Se  Se123  1  0.41886509  0.41500153  0.04981332  1
  Se  Se124  1  0.42141939  0.41566530  0.54406834  1
  Se  Se125  1  0.41633678  0.75622458  0.05763141  1
  Se  Se126  1  0.41772361  0.74792622  0.55052887  1
  Se  Se127  1  0.74151519  0.07653083  0.05713027  1
  Se  Se128  1  0.75344766  0.08233096  0.55567203  1
  Se  Se129  1  0.75155189  0.42054499  0.05403518  1
  Se  Se130  1  0.74097223  0.41430683  0.56094719  1
  Se  Se131  1  0.76556352  0.76551870  0.04678768  1
  Se  Se132  1  0.75221783  0.75055565  0.55403207  1
  Se  Se133  1  0.25035633  0.24397243  0.05748769  1
  Se  Se134  1  0.25234560  0.25351705  0.54765757  1
  Se  Se135  1  0.25592812  0.58951299  0.06759580  1
  Se  Se136  1  0.25612509  0.59503525  0.56189358  1
  Se  Se137  1  0.24631659  0.91284520  0.05606937  1
  Se  Se138  1  0.24890523  0.92084606  0.54688097  1
  Se  Se139  1  0.58905660  0.25107138  0.05707066  1
  Se  Se140  1  0.58796911  0.24965069  0.55990236  1
  Se  Se141  1  0.58104864  0.58409257  0.04490248  1
  Se  Se142  1  0.58241948  0.57982008  0.55418209  1
  Se  Se143  1  0.58505562  0.93519850  0.04909209  1
  Se  Se144  1  0.58405888  0.91166412  0.55564148  1
  Se  Se145  1  0.91827133  0.25508850  0.06957435  1
  Se  Se146  1  0.92015417  0.25924739  0.54915008  1
  Se  Se147  1  0.91425097  0.58483987  0.05236955  1
  Se  Se148  1  0.91636044  0.59237575  0.55725067  1
  Se  Se149  1  0.91558827  0.91488601  0.04662266  1
  Se  Se150  1  0.91473401  0.91492912  0.55521193  1
  Se  Se151  1  0.08532417  0.25810032  0.45278439  1
  Se  Se152  1  0.08417034  0.24427284  0.95623793  1
  Se  Se153  1  0.07402538  0.59086006  0.44034873  1
  Se  Se154  1  0.08204494  0.58495275  0.94141062  1
  Se  Se155  1  0.07804788  0.91933327  0.44494563  1
  Se  Se156  1  0.08760112  0.91045588  0.94229615  1
  Se  Se157  1  0.41268629  0.24883465  0.42971673  1
  Se  Se158  1  0.40762209  0.25572125  0.93572991  1
  Se  Se159  1  0.42062361  0.58133434  0.44856082  1
  Se  Se160  1  0.41735528  0.58173580  0.95731873  1
  Se  Se161  1  0.41705534  0.91644395  0.45276615  1
  Se  Se162  1  0.41231720  0.92377718  0.94867065  1
  Se  Se163  1  0.74861949  0.24661509  0.45081792  1
  Se  Se164  1  0.74617601  0.25365771  0.94409612  1
  Se  Se165  1  0.74138364  0.59132573  0.43709054  1
  Se  Se166  1  0.76038455  0.57365651  0.94318654  1
  Se  Se167  1  0.75266238  0.91191733  0.45030096  1
  Se  Se168  1  0.75797111  0.91345210  0.94793721  1
  Se  Se169  1  0.25062563  0.09673351  0.44084311  1
  Se  Se170  1  0.24362494  0.08559850  0.94975355  1
  Se  Se171  1  0.25657932  0.41578029  0.43524661  1
  Se  Se172  1  0.25436797  0.40980876  0.94051194  1
  Se  Se173  1  0.24439382  0.75125112  0.44683763  1
  Se  Se174  1  0.25008827  0.74985214  0.95140931  1
  Se  Se175  1  0.59397509  0.07203555  0.43953458  1
  Se  Se176  1  0.59536699  0.08112843  0.94006964  1
  Se  Se177  1  0.58424175  0.41752306  0.44123048  1
  Se  Se178  1  0.58143850  0.41924985  0.94665040  1
  Se  Se179  1  0.58292949  0.75116473  0.44949606  1
  Se  Se180  1  0.57119799  0.77316030  0.94987500  1
  Se  Se181  1  0.91396417  0.08512265  0.45263388  1
  Se  Se182  1  0.92207935  0.07267220  0.93585924  1
  Se  Se183  1  0.92802297  0.40992166  0.44258615  1
  Se  Se184  1  0.91557730  0.41430392  0.95437646  1
  Se  Se185  1  0.90839801  0.75135123  0.44170737  1
  Se  Se186  1  0.91882102  0.75041367  0.94052548  1
  Se  Se187  1  0.26500122  0.26810218  0.29603817  1
  Se  Se188  1  0.24497932  0.24551886  0.80359534  1
  Se  Se189  1  0.24391706  0.57971792  0.31163620  1
  Se  Se190  1  0.24452797  0.58067802  0.80874832  1
  Se  Se191  1  0.24401863  0.91290235  0.30847731  1
  Se  Se192  1  0.25277812  0.90950275  0.80864277  1
  Se  Se193  1  0.58766091  0.25444722  0.29904278  1
  Se  Se194  1  0.58790037  0.25462935  0.79820997  1
  Se  Se195  1  0.58645852  0.58543356  0.30328707  1
  Se  Se196  1  0.58213529  0.58688969  0.81170504  1
  Se  Se197  1  0.57848424  0.90887537  0.31288413  1
  Se  Se198  1  0.59244779  0.91490856  0.80500868  1
  Se  Se199  1  0.91840232  0.23994116  0.31761380  1
  Se  Se200  1  0.91080379  0.24574403  0.81468532  1
  Se  Se201  1  0.91026126  0.58139635  0.29380062  1
  Se  Se202  1  0.91627332  0.58613105  0.80288480  1
  Se  Se203  1  0.89996320  0.90684685  0.30548787  1
  Se  Se204  1  0.92236369  0.91961994  0.79924165  1
  Se  Se205  1  0.09113896  0.09043806  0.31111079  1
  Se  Se206  1  0.08340727  0.07970258  0.80380149  1
  Se  Se207  1  0.09181288  0.42182978  0.31542010  1
  Se  Se208  1  0.08441495  0.42195362  0.81362070  1
  Se  Se209  1  0.07192724  0.75118765  0.30103137  1
  Se  Se210  1  0.08397011  0.75140809  0.80061848  1
  Se  Se211  1  0.42384809  0.08172392  0.30029194  1
  Se  Se212  1  0.42923294  0.08721173  0.80931696  1
  Se  Se213  1  0.42159978  0.42026766  0.29668282  1
  Se  Se214  1  0.41820604  0.42211513  0.80788275  1
  Se  Se215  1  0.42212144  0.75545242  0.31751144  1
  Se  Se216  1  0.43220607  0.74827919  0.81781614  1
  Se  Se217  1  0.75175234  0.08392974  0.31370218  1
  Se  Se218  1  0.75178411  0.08276470  0.80010891  1
  Se  Se219  1  0.76487546  0.41851918  0.30454997  1
  Se  Se220  1  0.74619488  0.41504020  0.80231427  1
  Se  Se221  1  0.74182652  0.74680052  0.30237981  1
  Se  Se222  1  0.75193786  0.75270517  0.80497470  1
  Se  Se223  1  0.24677746  0.07978198  0.20339405  1
  Se  Se224  1  0.24473080  0.08570879  0.68799586  1
  Se  Se225  1  0.25179042  0.41839613  0.19876492  1
  Se  Se226  1  0.23568154  0.42853881  0.68893122  1
  Se  Se227  1  0.24036090  0.75534991  0.19218309  1
  Se  Se228  1  0.24927033  0.76064003  0.68835733  1
  Se  Se229  1  0.57241931  0.08720894  0.18522805  1
  Se  Se230  1  0.58955377  0.07398376  0.69742387  1
  Se  Se231  1  0.58862011  0.42069891  0.18866532  1
  Se  Se232  1  0.58329646  0.41670369  0.69790245  1
  Se  Se233  1  0.58504524  0.76346250  0.18711037  1
  Se  Se234  1  0.59053232  0.74176992  0.69556411  1
  Se  Se235  1  0.90590252  0.08745654  0.19722389  1
  Se  Se236  1  0.92069265  0.08254854  0.69480718  1
  Se  Se237  1  0.91226175  0.42192365  0.19423138  1
  Se  Se238  1  0.90359541  0.42743517  0.68822941  1
  Se  Se239  1  0.91483627  0.74698609  0.19131369  1
  Se  Se240  1  0.92046444  0.74942061  0.69617947  1
  Se  Se241  1  0.09025069  0.23681061  0.19679467  1
  Se  Se242  1  0.08437416  0.24648756  0.68881697  1
  Se  Se243  1  0.07886319  0.58728143  0.20354169  1
  Se  Se244  1  0.07757161  0.59329401  0.70230866  1
  Se  Se245  1  0.08123582  0.91089919  0.18635975  1
  Se  Se246  1  0.08087188  0.92026182  0.69545287  1
  Se  Se247  1  0.41782838  0.25288499  0.19335751  1
  Se  Se248  1  0.42886041  0.23815168  0.68487508  1
  Se  Se249  1  0.42483799  0.58478906  0.18810155  1
  Se  Se250  1  0.42031420  0.57460223  0.68991339  1
  Se  Se251  1  0.40397336  0.91952147  0.20809882  1
  Se  Se252  1  0.42927637  0.89874093  0.69326028  1
  Se  Se253  1  0.74530990  0.25198628  0.20575037  1
  Se  Se254  1  0.75113236  0.24984596  0.69887266  1
  Se  Se255  1  0.74610950  0.58944481  0.19114504  1
  Se  Se256  1  0.74393230  0.59114774  0.70202825  1
  Se  Se257  1  0.74985475  0.91067007  0.18491231  1
  Se  Se258  1  0.75121201  0.91506683  0.69556778  1
