# generated using pymatgen
data_In86Cu29Se144
_symmetry_space_group_name_H-M   'P 1'
_cell_length_a   17.58146262
_cell_length_b   17.57731911
_cell_length_c   23.44490325
_cell_angle_alpha   90.00208092
_cell_angle_beta   89.99180016
_cell_angle_gamma   90.00617014
_symmetry_Int_Tables_number   1
_chemical_formula_structural   In86Cu29Se144
_chemical_formula_sum   'In86 Cu29 Se144'
_cell_volume   7245.29506103
_cell_formula_units_Z   1
loop_
 _symmetry_equiv_pos_site_id
 _symmetry_equiv_pos_as_xyz
  1  'x, y, z'
loop_
 _atom_site_type_symbol
 _atom_site_label
 _atom_site_symmetry_multiplicity
 _atom_site_fract_x
 _atom_site_fract_y
 _atom_site_fract_z
 _atom_site_occupancy
  In  In0  1  -0.00508369  0.18847095  0.12942161  1
  In  In1  1  0.00647868  0.17654587  0.61857163  1
  In  In2  1  -0.00118943  0.49759327  0.12430207  1
  In  In3  1  -0.00103167  0.49628690  0.62090427  1
  In  In4  1  -0.01689862  0.83044182  0.12761107  1
  In  In5  1  -0.00324763  0.82968595  0.61861070  1
  In  In6  1  0.34855712  0.17701403  0.11895200  1
  In  In7  1  0.32713205  0.16911194  0.62574723  1
  In  In8  1  0.32065603  0.49156627  0.11544275  1
  In  In9  1  0.32462857  0.51774530  0.63569635  1
  In  In10  1  0.33663053  0.82329931  0.12190174  1
  In  In11  1  0.33474309  0.83698297  0.62080558  1
  In  In12  1  0.66690305  0.17156650  0.12065448  1
  In  In13  1  0.66759292  0.15236107  0.62780560  1
  In  In14  1  0.66783805  0.49665072  0.12018100  1
  In  In15  1  0.67015349  0.49111385  0.62337483  1
  In  In16  1  0.66544116  0.83187712  0.11870124  1
  In  In17  1  0.68042341  0.84656706  0.62455493  1
  In  In18  1  0.17074065  0.00450538  0.39298003  1
  In  In19  1  0.17122344  -0.01103616  0.86507045  1
  In  In20  1  0.16628075  0.33558522  0.37881222  1
  In  In21  1  0.16557212  0.35798328  0.86874721  1
  In  In22  1  0.15660991  0.67244012  0.38254513  1
  In  In23  1  0.17070939  0.64510751  0.86678014  1
  In  In24  1  0.48529423  -0.00025270  0.38198527  1
  In  In25  1  0.49899205  0.00048833  0.86981643  1
  In  In26  1  0.50491339  0.33144229  0.35701816  1
  In  In27  1  0.50381975  0.32652385  0.88767135  1
  In  In28  1  0.50897042  0.67612342  0.37572942  1
  In  In29  1  0.49659800  0.66961654  0.87646630  1
  In  In30  1  0.83356750  -0.00006750  0.38400826  1
  In  In31  1  0.82268937  0.00414485  0.87688697  1
  In  In32  1  0.83432703  0.33576222  0.37042345  1
  In  In33  1  0.83802812  0.32990636  0.88017916  1
  In  In34  1  0.84353426  0.64984863  0.38537851  1
  In  In35  1  0.83014807  0.67115999  0.88391202  1
  In  In36  1  -0.00609258  0.17607089  0.38146896  1
  In  In37  1  -0.01825603  0.17163249  0.87591441  1
  In  In38  1  -0.00330009  0.50088408  0.37196041  1
  In  In39  1  0.00759737  0.49431658  0.88209475  1
  In  In40  1  0.00662024  0.82242675  0.38482370  1
  In  In41  1  -0.00141257  0.82585451  0.87364247  1
  In  In42  1  0.33086048  0.17095125  0.37931507  1
  In  In43  1  0.34548379  0.16480641  0.87192846  1
  In  In44  1  0.33313922  0.48497127  0.37630098  1
  In  In45  1  0.33305032  0.50514334  0.87787636  1
  In  In46  1  0.33041115  0.84353678  0.39316162  1
  In  In47  1  0.34564069  0.84345010  0.86004403  1
  In  In48  1  0.66805679  0.18679491  0.36975038  1
  In  In49  1  0.66975481  0.16137894  0.87783909  1
  In  In50  1  0.67844596  0.49475389  0.37174928  1
  In  In51  1  0.66577110  0.50222939  0.88685061  1
  In  In52  1  0.66437445  0.83416193  0.38432011  1
  In  In53  1  0.66066504  0.83772184  0.87677267  1
  In  In54  1  0.16659477  0.00104528  0.12702568  1
  In  In55  1  0.17793096  0.00649948  0.61340242  1
  In  In56  1  0.15025733  0.34950093  0.13542138  1
  In  In57  1  0.15914462  0.32310103  0.61744035  1
  In  In58  1  0.16665184  0.64956571  0.12570692  1
  In  In59  1  0.17235321  0.67399956  0.61670045  1
  In  In60  1  0.50443400  0.00344608  0.11289627  1
  In  In61  1  0.51645572  -0.00262363  0.63612533  1
  In  In62  1  0.49653189  0.33177001  0.12305323  1
  In  In63  1  0.50100766  0.32984117  0.62890606  1
  In  In64  1  0.50492008  0.67010894  0.11375457  1
  In  In65  1  0.47585688  0.66886044  0.63557012  1
  In  In66  1  0.82316251  -0.00497111  0.11761851  1
  In  In67  1  0.82127794  -0.00735601  0.62322845  1
  In  In68  1  0.83663766  0.33518112  0.12145267  1
  In  In69  1  0.84446743  0.34715342  0.61547122  1
  In  In70  1  0.83558056  0.66286412  0.12537302  1
  In  In71  1  0.83778025  0.67077182  0.62087914  1
  In  In72  1  0.16188411  0.16860080  0.00080857  1
  In  In73  1  0.67074145  0.65817987  0.24300786  1
  In  In74  1  0.66479182  0.00566370  0.24245258  1
  In  In75  1  0.66716241  0.32855839  0.75709343  1
  In  In76  1  0.16862017  0.82726325  -0.01067303  1
  In  In77  1  -0.00244794  0.00788865  0.26290033  1
  In  In78  1  0.66441827  0.66980303  0.76057282  1
  In  In79  1  0.00078093  0.66753899  0.74265188  1
  In  In80  1  0.50315862  0.16342263  0.50267584  1
  In  In81  1  -0.00013818  0.00258944  0.74528199  1
  In  In82  1  0.33151309  0.00775061  0.26143757  1
  In  In83  1  0.33139228  0.66345198  0.24812308  1
  In  In84  1  0.33482473  0.32947132  0.75168505  1
  In  In85  1  0.49925994  0.50218058  0.50323673  1
  Cu  Cu86  1  0.50248341  0.83168529  0.75029320  1
  Cu  Cu87  1  0.33085135  0.33378656  0.50245981  1
  Cu  Cu88  1  0.00049616  0.66749867  0.00057116  1
  Cu  Cu89  1  0.66975063  0.00114949  0.50236196  1
  Cu  Cu90  1  0.33097823  0.33511633  -0.00114770  1
  Cu  Cu91  1  -0.00067999  0.33333221  0.49425584  1
  Cu  Cu92  1  0.83534782  0.17147022  0.24676137  1
  Cu  Cu93  1  0.33032480  0.66601572  0.50425361  1
  Cu  Cu94  1  0.67780165  0.33572048  0.49482498  1
  Cu  Cu95  1  -0.00301343  0.00265259  0.50524368  1
  Cu  Cu96  1  -0.00415946  0.65947519  0.50028644  1
  Cu  Cu97  1  0.16273991  0.49650956  0.25175654  1
  Cu  Cu98  1  0.49299532  0.84161431  0.25127719  1
  Cu  Cu99  1  0.66154571  -0.00390476  -0.00438613  1
  Cu  Cu100  1  0.49895824  0.49550174  0.24087726  1
  Cu  Cu101  1  0.66734483  0.33125595  0.00390801  1
  Cu  Cu102  1  0.83330855  0.17406797  0.75032036  1
  Cu  Cu103  1  0.15379935  0.82976613  0.25835221  1
  Cu  Cu104  1  0.17697248  0.82951070  0.74012900  1
  Cu  Cu105  1  0.16308300  0.16955974  0.74322139  1
  Cu  Cu106  1  0.66285985  0.67186035  0.50357979  1
  Cu  Cu107  1  0.67343835  0.66363190  0.00081100  1
  Cu  Cu108  1  0.83517798  0.81699458  0.25486286  1
  Cu  Cu109  1  0.33956067  0.66734131  -0.00441624  1
  Cu  Cu110  1  -0.01272262  0.00306059  0.00097429  1
  Cu  Cu111  1  0.17633694  0.17752864  0.25501132  1
  Cu  Cu112  1  0.83921955  0.50246846  0.74853655  1
  Cu  Cu113  1  0.33966662  -0.00491380  -0.00786710  1
  Cu  Cu114  1  -0.00150006  0.33814737  0.00337502  1
  Se  Se115  1  0.06981868  0.07826350  0.06275531  1
  Se  Se116  1  0.08490175  0.08754778  0.55195260  1
  Se  Se117  1  0.08699374  0.42146514  0.05177109  1
  Se  Se118  1  0.08195853  0.41445915  0.55137368  1
  Se  Se119  1  0.08196490  0.74881502  0.06095937  1
  Se  Se120  1  0.07879326  0.74725421  0.55057108  1
  Se  Se121  1  0.41375704  0.08303743  0.04884847  1
  Se  Se122  1  0.41892269  0.07696007  0.56655016  1
  Se  Se123  1  0.41651855  0.41745248  0.05219063  1
  Se  Se124  1  0.40876371  0.41312202  0.56505276  1
  Se  Se125  1  0.41987382  0.75487892  0.04764227  1
  Se  Se126  1  0.41809308  0.74758669  0.55372281  1
  Se  Se127  1  0.74236782  0.08037832  0.05223216  1
  Se  Se128  1  0.75325110  0.08715357  0.55252997  1
  Se  Se129  1  0.75371695  0.41667812  0.05165208  1
  Se  Se130  1  0.75401555  0.42530691  0.54790554  1
  Se  Se131  1  0.75363395  0.74766532  0.05696553  1
  Se  Se132  1  0.75048130  0.75275584  0.55575343  1
  Se  Se133  1  0.24580271  0.26079461  0.06214183  1
  Se  Se134  1  0.24932384  0.24441128  0.55069182  1
  Se  Se135  1  0.25125251  0.58824423  0.04839847  1
  Se  Se136  1  0.24843610  0.57708103  0.55208247  1
  Se  Se137  1  0.25423357  0.92155376  0.05472391  1
  Se  Se138  1  0.23991720  0.90291604  0.55170339  1
  Se  Se139  1  0.57848019  0.24815765  0.05229026  1
  Se  Se140  1  0.59697748  0.25919474  0.55834540  1
  Se  Se141  1  0.58634327  0.58107906  0.05131395  1
  Se  Se142  1  0.58458287  0.59273141  0.56664346  1
  Se  Se143  1  0.58005850  0.90968294  0.04965133  1
  Se  Se144  1  0.58680749  0.91990292  0.55722258  1
  Se  Se145  1  0.91505714  0.24758495  0.04886874  1
  Se  Se146  1  0.91586165  0.25130669  0.55003956  1
  Se  Se147  1  0.91892208  0.58325641  0.05486297  1
  Se  Se148  1  0.91174178  0.57874991  0.55476969  1
  Se  Se149  1  0.91159854  0.91217212  0.05325550  1
  Se  Se150  1  0.91284718  0.91768626  0.55548975  1
  Se  Se151  1  0.08850330  0.24743952  0.44788182  1
  Se  Se152  1  0.07746813  0.25988453  0.93796812  1
  Se  Se153  1  0.08021868  0.57826303  0.44572717  1
  Se  Se154  1  0.08607536  0.58751696  0.94651899  1
  Se  Se155  1  0.07890092  0.91825352  0.45017355  1
  Se  Se156  1  0.07364284  0.92843511  0.94124685  1
  Se  Se157  1  0.42279579  0.26469717  0.44300222  1
  Se  Se158  1  0.41178642  0.24474599  0.95067316  1
  Se  Se159  1  0.41085319  0.59136224  0.43844447  1
  Se  Se160  1  0.42319873  0.57978053  0.94679919  1
  Se  Se161  1  0.42919738  0.90999708  0.45611633  1
  Se  Se162  1  0.42153012  0.91013410  0.94048116  1
  Se  Se163  1  0.75736118  0.24793151  0.44351127  1
  Se  Se164  1  0.74815324  0.25010428  0.94496231  1
  Se  Se165  1  0.73883108  0.58428538  0.44757430  1
  Se  Se166  1  0.75864812  0.57847125  0.95139987  1
  Se  Se167  1  0.75222294  0.91413219  0.45024798  1
  Se  Se168  1  0.74984841  0.91354683  0.94630135  1
  Se  Se169  1  0.27623516  0.07273875  0.44869795  1
  Se  Se170  1  0.24913521  0.07426114  0.93996836  1
  Se  Se171  1  0.24779819  0.41905236  0.45081978  1
  Se  Se172  1  0.24894784  0.42050790  0.94644948  1
  Se  Se173  1  0.24645785  0.74885262  0.44978864  1
  Se  Se174  1  0.26080607  0.74278482  0.92928170  1
  Se  Se175  1  0.59509225  0.08034771  0.43627348  1
  Se  Se176  1  0.57954244  0.08106360  0.94265345  1
  Se  Se177  1  0.58335778  0.40984980  0.44005698  1
  Se  Se178  1  0.58297721  0.41632584  0.95249583  1
  Se  Se179  1  0.57738053  0.75505277  0.45266701  1
  Se  Se180  1  0.58922441  0.74345587  0.94395651  1
  Se  Se181  1  0.91686643  0.08561307  0.44824535  1
  Se  Se182  1  0.90735215  0.08659383  0.94622517  1
  Se  Se183  1  0.91481492  0.41672509  0.44204677  1
  Se  Se184  1  0.91480262  0.42011280  0.94791558  1
  Se  Se185  1  0.91212994  0.74843164  0.45014748  1
  Se  Se186  1  0.91902249  0.75411079  0.94898943  1
  Se  Se187  1  0.25796730  0.25902519  0.30961930  1
  Se  Se188  1  0.23857755  0.24362434  0.81304809  1
  Se  Se189  1  0.24350101  0.57813128  0.31223163  1
  Se  Se190  1  0.25484273  0.57075237  0.79780995  1
  Se  Se191  1  0.23895745  0.90956171  0.31395530  1
  Se  Se192  1  0.25512143  0.91903110  0.79206419  1
  Se  Se193  1  0.59200877  0.25308765  0.29177772  1
  Se  Se194  1  0.57227600  0.23885912  0.81030599  1
  Se  Se195  1  0.57291278  0.57571320  0.30612015  1
  Se  Se196  1  0.57739895  0.57028093  0.81102915  1
  Se  Se197  1  0.57840764  0.91722581  0.30954915  1
  Se  Se198  1  0.58552906  0.91655913  0.80229721  1
  Se  Se199  1  0.92021924  0.24916720  0.30322386  1
  Se  Se200  1  0.91665310  0.25876159  0.80122203  1
  Se  Se201  1  0.90770771  0.57864194  0.30430389  1
  Se  Se202  1  0.91324141  0.58525744  0.81106366  1
  Se  Se203  1  0.90950055  0.90587349  0.31275943  1
  Se  Se204  1  0.91407322  0.91572317  0.80963381  1
  Se  Se205  1  0.09906874  0.09307470  0.31532799  1
  Se  Se206  1  0.08580813  0.09316145  0.81071923  1
  Se  Se207  1  0.08249399  0.41336038  0.30758497  1
  Se  Se208  1  0.07556080  0.42542437  0.79971331  1
  Se  Se209  1  0.07325704  0.74135289  0.30605856  1
  Se  Se210  1  0.09644850  0.75573581  0.80469518  1
  Se  Se211  1  0.43102289  0.09971645  0.30885915  1
  Se  Se212  1  0.40144279  0.06807736  0.80276964  1
  Se  Se213  1  0.41434399  0.41931550  0.29868148  1
  Se  Se214  1  0.42441510  0.41277212  0.81549852  1
  Se  Se215  1  0.41389323  0.76005369  0.31057977  1
  Se  Se216  1  0.41940699  0.74329432  0.79906608  1
  Se  Se217  1  0.75933130  0.08650605  0.30644502  1
  Se  Se218  1  0.75195716  0.08856588  0.80235485  1
  Se  Se219  1  0.73653121  0.40017256  0.30193592  1
  Se  Se220  1  0.75682483  0.42707591  0.81086396  1
  Se  Se221  1  0.74759785  0.74631973  0.31439283  1
  Se  Se222  1  0.76140692  0.76110478  0.80961088  1
  Se  Se223  1  0.24659307  0.09359614  0.19168418  1
  Se  Se224  1  0.24577608  0.08381658  0.69395874  1
  Se  Se225  1  0.25203492  0.41985035  0.19761840  1
  Se  Se226  1  0.24356145  0.41158298  0.68852530  1
  Se  Se227  1  0.23688496  0.75871727  0.19303974  1
  Se  Se228  1  0.25942883  0.74349599  0.68993466  1
  Se  Se229  1  0.56874287  0.09328278  0.18921021  1
  Se  Se230  1  0.58696678  0.08930235  0.70455490  1
  Se  Se231  1  0.58506399  0.41550931  0.18900546  1
  Se  Se232  1  0.57836320  0.42239387  0.69655016  1
  Se  Se233  1  0.57378838  0.75814455  0.19416133  1
  Se  Se234  1  0.58345635  0.75295192  0.68858437  1
  Se  Se235  1  0.91060414  0.08322005  0.18841730  1
  Se  Se236  1  0.91016242  0.09371670  0.68652146  1
  Se  Se237  1  0.93816369  0.39385165  0.18862426  1
  Se  Se238  1  0.91916308  0.41766387  0.69521895  1
  Se  Se239  1  0.91913576  0.73917844  0.19949507  1
  Se  Se240  1  0.90521474  0.76406359  0.69565912  1
  Se  Se241  1  0.08393830  0.25184735  0.20301482  1
  Se  Se242  1  0.07811186  0.25486995  0.69612761  1
  Se  Se243  1  0.08083714  0.58028502  0.19746298  1
  Se  Se244  1  0.09275806  0.57960446  0.68635434  1
  Se  Se245  1  0.08212213  0.91531729  0.19611101  1
  Se  Se246  1  0.09003715  0.91094218  0.68639969  1
  Se  Se247  1  0.41096263  0.25766577  0.19572002  1
  Se  Se248  1  0.42756041  0.23565339  0.69582345  1
  Se  Se249  1  0.42149140  0.58076426  0.18313000  1
  Se  Se250  1  0.42705823  0.56678752  0.70401179  1
  Se  Se251  1  0.41459546  0.91942606  0.18975304  1
  Se  Se252  1  0.42054002  0.91260375  0.69312022  1
  Se  Se253  1  0.75246539  0.24919800  0.18947581  1
  Se  Se254  1  0.75698668  0.25392815  0.68599767  1
  Se  Se255  1  0.76439820  0.56366128  0.19421285  1
  Se  Se256  1  0.75389397  0.58149867  0.69284129  1
  Se  Se257  1  0.75721599  0.90173825  0.19579097  1
  Se  Se258  1  0.74576986  0.92642185  0.70285273  1
