# generated using pymatgen
data_In86Cu29Se144
_symmetry_space_group_name_H-M   'P 1'
_cell_length_a   17.59318142
_cell_length_b   17.59117990
_cell_length_c   23.44894070
_cell_angle_alpha   89.97580676
_cell_angle_beta   89.96385227
_cell_angle_gamma   89.98121650
_symmetry_Int_Tables_number   1
_chemical_formula_structural   In86Cu29Se144
_chemical_formula_sum   'In86 Cu29 Se144'
_cell_volume   7257.08869658
_cell_formula_units_Z   1
loop_
 _symmetry_equiv_pos_site_id
 _symmetry_equiv_pos_as_xyz
  1  'x, y, z'
loop_
 _atom_site_type_symbol
 _atom_site_label
 _atom_site_symmetry_multiplicity
 _atom_site_fract_x
 _atom_site_fract_y
 _atom_site_fract_z
 _atom_site_occupancy
  In  In0  1  0.00701565  0.16743085  0.12611800  1
  In  In1  1  0.00098568  0.16927924  0.60128487  1
  In  In2  1  -0.00824045  0.50330595  0.13364465  1
  In  In3  1  0.01503827  0.49323846  0.62176328  1
  In  In4  1  -0.01422277  0.82974201  0.13516686  1
  In  In5  1  -0.02790525  0.83322745  0.61926084  1
  In  In6  1  0.33684091  0.16539812  0.12655576  1
  In  In7  1  0.33686374  0.18387457  0.62229824  1
  In  In8  1  0.34782637  0.49468347  0.14693348  1
  In  In9  1  0.32189533  0.48339060  0.61501390  1
  In  In10  1  0.34249665  0.82805403  0.13227402  1
  In  In11  1  0.33757217  0.82925488  0.62135801  1
  In  In12  1  0.65709392  0.18305530  0.13674086  1
  In  In13  1  0.66966728  0.16163628  0.63053072  1
  In  In14  1  0.67037898  0.48610326  0.13828876  1
  In  In15  1  0.65901327  0.50625052  0.62246562  1
  In  In16  1  0.66196116  0.84958592  0.13699464  1
  In  In17  1  0.67339512  0.82625157  0.62829961  1
  In  In18  1  0.17272787  0.00610830  0.37138324  1
  In  In19  1  0.17624378  0.01632345  0.87564647  1
  In  In20  1  0.16227145  0.32954182  0.37369489  1
  In  In21  1  0.16693324  0.31687002  0.87743096  1
  In  In22  1  0.15646726  0.65609146  0.37053689  1
  In  In23  1  0.16021287  0.67215539  0.87224360  1
  In  In24  1  0.50621098  0.00396327  0.36748941  1
  In  In25  1  0.50369496  -0.00806484  0.88949345  1
  In  In26  1  0.50947615  0.34983574  0.36047846  1
  In  In27  1  0.49538146  0.32836048  0.86739679  1
  In  In28  1  0.49288931  0.64847957  0.35810653  1
  In  In29  1  0.51387082  0.66426901  0.87983359  1
  In  In30  1  0.82751367  0.00671676  0.38060631  1
  In  In31  1  0.82575474  0.01262053  0.87673812  1
  In  In32  1  0.83397225  0.32177252  0.36988216  1
  In  In33  1  0.83702177  0.35121425  0.87640490  1
  In  In34  1  0.84015263  0.67651142  0.36604009  1
  In  In35  1  0.82219361  0.66105653  0.87152553  1
  In  In36  1  -0.01858943  0.17980202  0.39398556  1
  In  In37  1  0.01549181  0.18210692  0.87743742  1
  In  In38  1  0.01078921  0.50284856  0.37587254  1
  In  In39  1  -0.01757730  0.49353070  0.87555613  1
  In  In40  1  0.00024411  0.82389499  0.37579893  1
  In  In41  1  0.00814858  0.82115777  0.87391015  1
  In  In42  1  0.32967129  0.16654850  0.36546986  1
  In  In43  1  0.32492550  0.16994782  0.88407565  1
  In  In44  1  0.33142658  0.49069567  0.36709807  1
  In  In45  1  0.34853133  0.49327835  0.87496039  1
  In  In46  1  0.33314005  0.83883679  0.36488699  1
  In  In47  1  0.33488478  0.84771511  0.88238250  1
  In  In48  1  0.68709182  0.17738720  0.35501545  1
  In  In49  1  0.66157218  0.15981613  0.86779669  1
  In  In50  1  0.65933115  0.49441304  0.36606844  1
  In  In51  1  0.66832225  0.50922741  0.87132177  1
  In  In52  1  0.67805643  0.83757864  0.36331144  1
  In  In53  1  0.66119975  0.82925247  0.87658320  1
  In  In54  1  0.16939819  0.01956989  0.12367556  1
  In  In55  1  0.14794434  0.00933666  0.61965254  1
  In  In56  1  0.17416223  0.32764594  0.12989650  1
  In  In57  1  0.16583181  0.33914470  0.61304879  1
  In  In58  1  0.16463569  0.66844275  0.13399097  1
  In  In59  1  0.16633432  0.64776039  0.62213940  1
  In  In60  1  0.49888655  0.00365128  0.12377446  1
  In  In61  1  0.50438502  0.01399609  0.62662366  1
  In  In62  1  0.50621019  0.32697214  0.13317775  1
  In  In63  1  0.49270380  0.33588329  0.62771655  1
  In  In64  1  0.49400291  0.67267538  0.13340749  1
  In  In65  1  0.51546993  0.66652522  0.62461830  1
  In  In66  1  0.81936210  0.00192977  0.13801537  1
  In  In67  1  0.83095158  -0.00800039  0.61284729  1
  In  In68  1  0.82218350  0.33807510  0.13612806  1
  In  In69  1  0.83163099  0.32211517  0.62083176  1
  In  In70  1  0.84268919  0.66025419  0.13769137  1
  In  In71  1  0.82120908  0.67161903  0.62503184  1
  In  In72  1  0.50750678  0.82702474  0.49650919  1
  In  In73  1  0.83231513  0.49926224  0.49147471  1
  In  In74  1  0.33576440  0.00261334  0.75796007  1
  In  In75  1  0.16827536  0.50339482  0.00990899  1
  In  In76  1  0.83423729  0.17271939  0.00349420  1
  In  In77  1  0.50782926  0.49773274  0.00733931  1
  In  In78  1  0.16374824  0.82737267  0.49145062  1
  In  In79  1  0.33998723  0.65778538  0.75452084  1
  In  In80  1  -0.00293308  0.33270503  0.74564005  1
  In  In81  1  -0.00096185  0.00558107  0.25024047  1
  In  In82  1  0.16836723  0.83774596  0.00991350  1
  In  In83  1  -0.01587544  -0.00558297  0.74357529  1
  In  In84  1  0.49993265  0.17309023  0.49222916  1
  In  In85  1  0.83212399  0.83405560  0.01466501  1
  Cu  Cu86  1  0.66464052  0.32962612  0.48837001  1
  Cu  Cu87  1  -0.00585735  0.66591525  0.49664375  1
  Cu  Cu88  1  0.50754256  0.83787127  0.75583010  1
  Cu  Cu89  1  0.15765407  0.82024534  0.74736072  1
  Cu  Cu90  1  0.66168418  0.00337753  0.00474021  1
  Cu  Cu91  1  -0.01027425  0.65897672  0.00343575  1
  Cu  Cu92  1  0.16287949  0.50038946  0.25073180  1
  Cu  Cu93  1  0.83694493  0.49540067  0.25797428  1
  Cu  Cu94  1  0.33045020  0.32813539  0.00298313  1
  Cu  Cu95  1  0.82541994  0.83256876  0.74973195  1
  Cu  Cu96  1  0.66756545  0.33104324  0.00552084  1
  Cu  Cu97  1  0.50096007  0.49540947  0.74641280  1
  Cu  Cu98  1  0.50260744  0.83739357  0.25151228  1
  Cu  Cu99  1  0.82811990  0.50719876  0.74915099  1
  Cu  Cu100  1  0.83050302  0.16616302  0.74512650  1
  Cu  Cu101  1  0.33164300  0.33963889  0.49395231  1
  Cu  Cu102  1  0.49634171  0.15833436  0.24588436  1
  Cu  Cu103  1  0.00804684  0.00395895  0.00284074  1
  Cu  Cu104  1  0.66654800  0.67217926  0.49579223  1
  Cu  Cu105  1  0.16615727  0.17344514  0.25064083  1
  Cu  Cu106  1  0.33742292  0.64969385  0.48969007  1
  Cu  Cu107  1  0.67254320  0.66420495  0.00214637  1
  Cu  Cu108  1  0.17050176  0.83615730  0.25172383  1
  Cu  Cu109  1  0.16695738  0.16793066  0.74644220  1
  Cu  Cu110  1  0.16754518  0.49216902  0.74389926  1
  Cu  Cu111  1  0.33596987  0.67195304  0.01090240  1
  Cu  Cu112  1  0.50568987  0.16962485  0.75073781  1
  Cu  Cu113  1  0.32828077  -0.00246650  0.49549540  1
  Cu  Cu114  1  0.67080289  0.00044455  0.49793757  1
  Se  Se115  1  0.08826507  0.09414209  0.05022373  1
  Se  Se116  1  0.09586536  0.09189824  0.53985858  1
  Se  Se117  1  0.07897267  0.41424335  0.06681389  1
  Se  Se118  1  0.07886152  0.41428353  0.54482382  1
  Se  Se119  1  0.07025727  0.74396713  0.06036726  1
  Se  Se120  1  0.07698614  0.74367489  0.56143374  1
  Se  Se121  1  0.43166710  0.10031640  0.05715993  1
  Se  Se122  1  0.40878411  0.07920703  0.55446187  1
  Se  Se123  1  0.40907222  0.41146595  0.06225300  1
  Se  Se124  1  0.42087259  0.41436157  0.55015739  1
  Se  Se125  1  0.42414055  0.75508537  0.05647327  1
  Se  Se126  1  0.40992940  0.73437277  0.55231825  1
  Se  Se127  1  0.74272511  0.08369185  0.06302172  1
  Se  Se128  1  0.74689722  0.08674722  0.55471829  1
  Se  Se129  1  0.74716026  0.41637694  0.05867821  1
  Se  Se130  1  0.74033792  0.41135380  0.55371453  1
  Se  Se131  1  0.74354125  0.74167727  0.07010166  1
  Se  Se132  1  0.74927444  0.75462689  0.54945516  1
  Se  Se133  1  0.24877968  0.24576794  0.05664821  1
  Se  Se134  1  0.25341122  0.25279342  0.54898220  1
  Se  Se135  1  0.26353407  0.58728334  0.07033664  1
  Se  Se136  1  0.24938391  0.57753302  0.54817083  1
  Se  Se137  1  0.25983350  0.92532435  0.06591389  1
  Se  Se138  1  0.25104728  0.91839354  0.55818189  1
  Se  Se139  1  0.58052692  0.25003698  0.05594109  1
  Se  Se140  1  0.58919491  0.25465490  0.55824694  1
  Se  Se141  1  0.59310532  0.58901550  0.06741362  1
  Se  Se142  1  0.58365603  0.58689967  0.54714210  1
  Se  Se143  1  0.58393893  0.91527319  0.05706230  1
  Se  Se144  1  0.58670627  0.92475931  0.55909348  1
  Se  Se145  1  0.91818460  0.26102003  0.06560994  1
  Se  Se146  1  0.91722529  0.26208978  0.54577552  1
  Se  Se147  1  0.90893944  0.57863067  0.05881790  1
  Se  Se148  1  0.91744384  0.58553019  0.56075418  1
  Se  Se149  1  0.92492195  0.93404264  0.06483118  1
  Se  Se150  1  0.93301058  0.93303905  0.54655772  1
  Se  Se151  1  0.10043163  0.23211411  0.44392911  1
  Se  Se152  1  0.08293429  0.25757813  0.95454021  1
  Se  Se153  1  0.08511592  0.58430030  0.45107523  1
  Se  Se154  1  0.07791105  0.58832088  0.94350916  1
  Se  Se155  1  0.07905736  0.92476677  0.43722651  1
  Se  Se156  1  0.08041234  0.92145421  0.93963653  1
  Se  Se157  1  0.41356771  0.26314481  0.43131168  1
  Se  Se158  1  0.41666620  0.25599802  0.94341526  1
  Se  Se159  1  0.42156264  0.57108685  0.43600920  1
  Se  Se160  1  0.41230441  0.59039468  0.94798184  1
  Se  Se161  1  0.41506558  0.92089706  0.44074085  1
  Se  Se162  1  0.41215425  0.91849297  0.95627132  1
  Se  Se163  1  0.74977147  0.24328946  0.44226212  1
  Se  Se164  1  0.74413215  0.25597286  0.93820492  1
  Se  Se165  1  0.74420105  0.59086084  0.43382308  1
  Se  Se166  1  0.75111805  0.57961752  0.94743169  1
  Se  Se167  1  0.74776991  0.91119157  0.44496556  1
  Se  Se168  1  0.74743886  0.92355809  0.94771770  1
  Se  Se169  1  0.25477355  0.08673952  0.44172404  1
  Se  Se170  1  0.25631417  0.07677653  0.95259056  1
  Se  Se171  1  0.24531003  0.41842792  0.44034690  1
  Se  Se172  1  0.25633123  0.41481022  0.94298114  1
  Se  Se173  1  0.26070579  0.74059693  0.43507431  1
  Se  Se174  1  0.25265091  0.74234680  0.94551169  1
  Se  Se175  1  0.59352340  0.08238268  0.43789956  1
  Se  Se176  1  0.58641526  0.08902167  0.94705534  1
  Se  Se177  1  0.58207489  0.41843921  0.44258628  1
  Se  Se178  1  0.58929295  0.41022385  0.94017625  1
  Se  Se179  1  0.58615929  0.74205155  0.42809106  1
  Se  Se180  1  0.58719056  0.74844029  0.95188075  1
  Se  Se181  1  0.91099133  0.07910861  0.45372559  1
  Se  Se182  1  0.92808949  0.08182344  0.94117109  1
  Se  Se183  1  0.92342577  0.40791188  0.43711739  1
  Se  Se184  1  0.92385065  0.40892802  0.95196056  1
  Se  Se185  1  0.91202291  0.75107497  0.44676201  1
  Se  Se186  1  0.91590062  0.74702114  0.94486825  1
  Se  Se187  1  0.25199844  0.25798305  0.30032660  1
  Se  Se188  1  0.25099522  0.24493595  0.80401333  1
  Se  Se189  1  0.24826215  0.58335105  0.30334195  1
  Se  Se190  1  0.24190719  0.56886607  0.81229811  1
  Se  Se191  1  0.25184569  0.92544728  0.29932737  1
  Se  Se192  1  0.23451970  0.90630156  0.80693946  1
  Se  Se193  1  0.57553007  0.24211461  0.30192331  1
  Se  Se194  1  0.58988193  0.25543313  0.80132339  1
  Se  Se195  1  0.59767402  0.58927640  0.29536678  1
  Se  Se196  1  0.57735894  0.58276037  0.80157584  1
  Se  Se197  1  0.58921007  0.92189077  0.30005690  1
  Se  Se198  1  0.58458820  0.92271015  0.81153900  1
  Se  Se199  1  0.92176095  0.23903394  0.30529746  1
  Se  Se200  1  0.90935933  0.24197291  0.80898126  1
  Se  Se201  1  0.92208098  0.58048519  0.30793965  1
  Se  Se202  1  0.91434908  0.58401423  0.80527932  1
  Se  Se203  1  0.91554771  0.91503826  0.31265614  1
  Se  Se204  1  0.90565871  0.90645312  0.81588910  1
  Se  Se205  1  0.08407355  0.09673160  0.31083042  1
  Se  Se206  1  0.08227349  0.08604935  0.80193092  1
  Se  Se207  1  0.08128543  0.41463995  0.30387944  1
  Se  Se208  1  0.08792801  0.41772391  0.81087421  1
  Se  Se209  1  0.08671451  0.75276024  0.30373903  1
  Se  Se210  1  0.07254974  0.73699832  0.79720051  1
  Se  Se211  1  0.41315560  0.07767621  0.30160066  1
  Se  Se212  1  0.42642443  0.09119188  0.81537729  1
  Se  Se213  1  0.41875385  0.42132489  0.29316787  1
  Se  Se214  1  0.41433534  0.41374936  0.79762177  1
  Se  Se215  1  0.41765421  0.75300068  0.30206318  1
  Se  Se216  1  0.42140022  0.75865197  0.81385962  1
  Se  Se217  1  0.74283499  0.06324806  0.30090365  1
  Se  Se218  1  0.74962605  0.08028598  0.79840935  1
  Se  Se219  1  0.75056908  0.40933629  0.30557086  1
  Se  Se220  1  0.74972938  0.42101565  0.80454732  1
  Se  Se221  1  0.74272042  0.73760700  0.29833903  1
  Se  Se222  1  0.74394415  0.75039097  0.80583813  1
  Se  Se223  1  0.25041962  0.08765758  0.19955247  1
  Se  Se224  1  0.24741796  0.08455641  0.68738520  1
  Se  Se225  1  0.24748491  0.41521783  0.20084466  1
  Se  Se226  1  0.24760928  0.40624776  0.69208198  1
  Se  Se227  1  0.25178710  0.75029998  0.19860081  1
  Se  Se228  1  0.24893854  0.74841651  0.69132710  1
  Se  Se229  1  0.58719093  0.07869006  0.19535311  1
  Se  Se230  1  0.58666876  0.08061939  0.70158716  1
  Se  Se231  1  0.56681416  0.42513297  0.20165638  1
  Se  Se232  1  0.58491668  0.41545959  0.69126800  1
  Se  Se233  1  0.58442011  0.75328992  0.19814779  1
  Se  Se234  1  0.58369964  0.75286562  0.69830581  1
  Se  Se235  1  0.90618266  0.09736668  0.19393945  1
  Se  Se236  1  0.91288981  0.09490109  0.68119484  1
  Se  Se237  1  0.91770976  0.41235986  0.20182928  1
  Se  Se238  1  0.90646709  0.42615693  0.68748523  1
  Se  Se239  1  0.92253710  0.74322571  0.20751262  1
  Se  Se240  1  0.90875839  0.74985491  0.69609327  1
  Se  Se241  1  0.08069171  0.25356080  0.19725982  1
  Se  Se242  1  0.08411813  0.24167764  0.68414500  1
  Se  Se243  1  0.07950687  0.58584134  0.19909997  1
  Se  Se244  1  0.08224197  0.57898866  0.69723806  1
  Se  Se245  1  0.09104850  0.91527725  0.18803411  1
  Se  Se246  1  0.08310830  0.90593724  0.68794140  1
  Se  Se247  1  0.41442226  0.24940517  0.19847292  1
  Se  Se248  1  0.41756658  0.24921932  0.69934343  1
  Se  Se249  1  0.41390247  0.59645227  0.20602494  1
  Se  Se250  1  0.41946622  0.57481331  0.68344986  1
  Se  Se251  1  0.41942307  0.92060073  0.19659978  1
  Se  Se252  1  0.42387824  0.91055515  0.69280135  1
  Se  Se253  1  0.74644117  0.25258055  0.20615663  1
  Se  Se254  1  0.74755158  0.25431970  0.69621231  1
  Se  Se255  1  0.75437773  0.57540966  0.20101150  1
  Se  Se256  1  0.74250504  0.58581300  0.69343571  1
  Se  Se257  1  0.77846226  0.88864487  0.19842659  1
  Se  Se258  1  0.75352532  0.91968399  0.69101032  1
