# generated using pymatgen
data_In86Cu29Se144
_symmetry_space_group_name_H-M   'P 1'
_cell_length_a   17.58752525
_cell_length_b   17.58179639
_cell_length_c   23.45437651
_cell_angle_alpha   89.97046155
_cell_angle_beta   90.00469664
_cell_angle_gamma   90.00498586
_symmetry_Int_Tables_number   1
_chemical_formula_structural   In86Cu29Se144
_chemical_formula_sum   'In86 Cu29 Se144'
_cell_volume   7252.56804169
_cell_formula_units_Z   1
loop_
 _symmetry_equiv_pos_site_id
 _symmetry_equiv_pos_as_xyz
  1  'x, y, z'
loop_
 _atom_site_type_symbol
 _atom_site_label
 _atom_site_symmetry_multiplicity
 _atom_site_fract_x
 _atom_site_fract_y
 _atom_site_fract_z
 _atom_site_occupancy
  In  In0  1  -0.02220602  0.14545119  0.10933312  1
  In  In1  1  0.01172329  0.15765520  0.63217789  1
  In  In2  1  0.00977174  0.50577901  0.12878806  1
  In  In3  1  0.00073361  0.49408080  0.62190070  1
  In  In4  1  0.00150143  0.84393567  0.12887272  1
  In  In5  1  0.00881868  0.83777343  0.62181239  1
  In  In6  1  0.32653577  0.16486573  0.11240328  1
  In  In7  1  0.33478116  0.16385687  0.63025972  1
  In  In8  1  0.33216870  0.49202648  0.12097192  1
  In  In9  1  0.32115558  0.51297720  0.63745962  1
  In  In10  1  0.33079319  0.84181345  0.11078174  1
  In  In11  1  0.33420107  0.84109629  0.62888842  1
  In  In12  1  0.66555882  0.15084757  0.12626111  1
  In  In13  1  0.65183937  0.16309742  0.61974452  1
  In  In14  1  0.68267995  0.50788229  0.12714903  1
  In  In15  1  0.67111387  0.49789145  0.61910701  1
  In  In16  1  0.67134538  0.83541735  0.12557390  1
  In  In17  1  0.67046199  0.83786379  0.62270000  1
  In  In18  1  0.16292217  -0.00065275  0.38100802  1
  In  In19  1  0.16625360  0.00325345  0.87836500  1
  In  In20  1  0.16579699  0.32576806  0.38688263  1
  In  In21  1  0.16212322  0.32942536  0.86180156  1
  In  In22  1  0.14283323  0.69103464  0.39996276  1
  In  In23  1  0.17791545  0.66956146  0.87275222  1
  In  In24  1  0.50504934  -0.01156699  0.38655638  1
  In  In25  1  0.47696507  -0.03926055  0.84379522  1
  In  In26  1  0.48700803  0.33401643  0.38313444  1
  In  In27  1  0.49648139  0.33544904  0.86696151  1
  In  In28  1  0.51392021  0.67342386  0.37582925  1
  In  In29  1  0.49692483  0.68015310  0.86707945  1
  In  In30  1  0.81766873  -0.01074403  0.36143655  1
  In  In31  1  0.83320939  -0.00064856  0.87279126  1
  In  In32  1  0.84667706  0.33342153  0.37579847  1
  In  In33  1  0.83034988  0.30807572  0.87554800  1
  In  In34  1  0.83333479  0.67222947  0.37605819  1
  In  In35  1  0.84576139  0.67420522  0.87935567  1
  In  In36  1  0.00310070  0.16694732  0.37359124  1
  In  In37  1  0.00042945  0.16565366  0.87297466  1
  In  In38  1  -0.01202456  0.51117017  0.38619783  1
  In  In39  1  0.01697586  0.50317218  0.87107054  1
  In  In40  1  0.00163208  0.83001786  0.37486062  1
  In  In41  1  -0.01103485  0.84507970  0.88168723  1
  In  In42  1  0.32924548  0.16779920  0.38943716  1
  In  In43  1  0.31564361  0.14333302  0.86482733  1
  In  In44  1  0.32825123  0.49872940  0.38390572  1
  In  In45  1  0.34038009  0.50253400  0.85042093  1
  In  In46  1  0.32438097  0.83796077  0.39269424  1
  In  In47  1  0.32813520  0.83454705  0.87461103  1
  In  In48  1  0.66682685  0.14548373  0.37380738  1
  In  In49  1  0.68589690  0.15259050  0.88368201  1
  In  In50  1  0.66519544  0.52104062  0.37380586  1
  In  In51  1  0.66217207  0.49363884  0.87628323  1
  In  In52  1  0.66967473  0.83738982  0.37638834  1
  In  In53  1  0.65404583  0.84523182  0.88425335  1
  In  In54  1  0.14557414  -0.02012966  0.10390923  1
  In  In55  1  0.16363542  0.00111713  0.62684103  1
  In  In56  1  0.17556130  0.33375953  0.12232325  1
  In  In57  1  0.16952847  0.32877537  0.62689306  1
  In  In58  1  0.15174169  0.67965198  0.13731257  1
  In  In59  1  0.19975729  0.68752930  0.60073951  1
  In  In60  1  0.51647357  -0.00141686  0.12555171  1
  In  In61  1  0.49683309  -0.00576881  0.63036067  1
  In  In62  1  0.48895179  0.32385402  0.12345433  1
  In  In63  1  0.50572356  0.32652623  0.62880419  1
  In  In64  1  0.50082320  0.68839213  0.12518801  1
  In  In65  1  0.47551626  0.68179472  0.63530174  1
  In  In66  1  0.83613546  0.00012457  0.12626380  1
  In  In67  1  0.84628142  -0.00698323  0.62892449  1
  In  In68  1  0.83831755  0.33212034  0.11889962  1
  In  In69  1  0.83269476  0.34573262  0.62192763  1
  In  In70  1  0.82711261  0.68237536  0.13755135  1
  In  In71  1  0.83619913  0.67027397  0.61527207  1
  In  In72  1  0.50395953  0.15843488  -0.00846715  1
  In  In73  1  0.83670745  0.49774306  0.00244577  1
  In  In74  1  0.01104609  0.66554391  0.74272821  1
  In  In75  1  0.66803844  0.32593902  0.74854791  1
  In  In76  1  0.66239398  0.66941079  0.74554285  1
  In  In77  1  0.00181734  0.32812032  0.24982422  1
  In  In78  1  0.33011912  0.33611837  0.25472152  1
  In  In79  1  0.66496359  0.33266916  0.24482364  1
  In  In80  1  0.32861255  -0.00204672  0.25238161  1
  In  In81  1  0.83524407  0.16419169  0.49391201  1
  In  In82  1  0.50110150  0.50667736  0.50971506  1
  In  In83  1  0.50431562  0.50492732  -0.01501412  1
  In  In84  1  0.17139920  0.50354552  0.00026429  1
  In  In85  1  0.33188573  0.67096594  0.25709261  1
  Cu  Cu86  1  0.50345484  0.16107976  0.74813888  1
  Cu  Cu87  1  -0.00135160  0.68255450  0.00807443  1
  Cu  Cu88  1  0.33055440  0.67616447  -0.00127024  1
  Cu  Cu89  1  0.50849416  0.83970398  0.25332302  1
  Cu  Cu90  1  0.83912425  0.49414416  0.74741388  1
  Cu  Cu91  1  -0.00050510  -0.00753429  0.50049786  1
  Cu  Cu92  1  0.50545713  0.51272275  0.24763394  1
  Cu  Cu93  1  0.15933087  0.15707021  0.24741677  1
  Cu  Cu94  1  0.16484524  0.49843776  0.73963258  1
  Cu  Cu95  1  0.66984617  0.67514440  0.49916755  1
  Cu  Cu96  1  -0.00084859  0.32704258  -0.01048489  1
  Cu  Cu97  1  -0.00354333  0.65881741  0.50122166  1
  Cu  Cu98  1  0.66650764  0.67060500  0.00178956  1
  Cu  Cu99  1  0.66989730  -0.00629745  0.00085292  1
  Cu  Cu100  1  0.83823917  0.83292727  0.25038630  1
  Cu  Cu101  1  0.00368164  0.32790995  0.50276801  1
  Cu  Cu102  1  0.32602443  0.32833864  -0.01223870  1
  Cu  Cu103  1  0.83287587  0.50788026  0.25595563  1
  Cu  Cu104  1  0.16687689  0.16495177  0.75059191  1
  Cu  Cu105  1  0.33241383  0.00308643  0.50984325  1
  Cu  Cu106  1  0.16718000  0.83619262  0.74698850  1
  Cu  Cu107  1  0.66392149  -0.00262065  0.50041308  1
  Cu  Cu108  1  -0.00364457  0.00420441  -0.00362679  1
  Cu  Cu109  1  0.33399230  0.32759768  0.50881172  1
  Cu  Cu110  1  0.50079735  0.16028926  0.25730574  1
  Cu  Cu111  1  0.82841339  0.83516806  0.75244397  1
  Cu  Cu112  1  0.15495666  0.51000162  0.26227233  1
  Cu  Cu113  1  0.66842291  0.33618156  0.50013159  1
  Cu  Cu114  1  0.83894616  0.16288527  0.74889138  1
  Se  Se115  1  0.08440033  0.09013170  0.04577051  1
  Se  Se116  1  0.07928407  0.07916575  0.55365260  1
  Se  Se117  1  0.07358537  0.40941558  0.05400347  1
  Se  Se118  1  0.08683533  0.41084776  0.55591589  1
  Se  Se119  1  0.08814621  0.76033257  0.05877344  1
  Se  Se120  1  0.07836781  0.74391358  0.55394681  1
  Se  Se121  1  0.41744857  0.07228680  0.05758159  1
  Se  Se122  1  0.42061057  0.08405305  0.56028871  1
  Se  Se123  1  0.41026670  0.40806346  0.04633777  1
  Se  Se124  1  0.41298795  0.41278805  0.56624184  1
  Se  Se125  1  0.42038058  0.75582171  0.04893433  1
  Se  Se126  1  0.40483268  0.75068114  0.55614407  1
  Se  Se127  1  0.75039108  0.07937714  0.05364633  1
  Se  Se128  1  0.74842760  0.07764135  0.55913191  1
  Se  Se129  1  0.73737400  0.40778950  0.05447988  1
  Se  Se130  1  0.75353425  0.42152658  0.54722042  1
  Se  Se131  1  0.75207404  0.74828293  0.05610658  1
  Se  Se132  1  0.75420798  0.75800174  0.55201994  1
  Se  Se133  1  0.24407545  0.25120786  0.04644550  1
  Se  Se134  1  0.24983635  0.24223561  0.55836969  1
  Se  Se135  1  0.25469390  0.59709576  0.06467533  1
  Se  Se136  1  0.25630783  0.57056630  0.54973013  1
  Se  Se137  1  0.25768828  0.93028252  0.04399978  1
  Se  Se138  1  0.24604716  0.91795005  0.55815365  1
  Se  Se139  1  0.58516941  0.24868585  0.06054259  1
  Se  Se140  1  0.58225255  0.25446259  0.55037899  1
  Se  Se141  1  0.58630622  0.58714168  0.05986430  1
  Se  Se142  1  0.58915201  0.60284577  0.56616153  1
  Se  Se143  1  0.58524394  0.91113184  0.05319091  1
  Se  Se144  1  0.58118129  0.91757663  0.55664135  1
  Se  Se145  1  0.91303056  0.25079491  0.04655430  1
  Se  Se146  1  0.92004805  0.24882670  0.56191684  1
  Se  Se147  1  0.92156673  0.59272167  0.06344636  1
  Se  Se148  1  0.91338525  0.57513161  0.55439919  1
  Se  Se149  1  0.91898194  0.92029067  0.05510062  1
  Se  Se150  1  0.91540868  0.91010558  0.55311533  1
  Se  Se151  1  0.08180513  0.23856400  0.45081204  1
  Se  Se152  1  0.08912025  0.25108746  0.93829622  1
  Se  Se153  1  0.08664479  0.57425744  0.45336220  1
  Se  Se154  1  0.07553378  0.59912022  0.94680715  1
  Se  Se155  1  0.08497740  0.90981587  0.44798044  1
  Se  Se156  1  0.08220526  0.91866673  0.94712463  1
  Se  Se157  1  0.41944056  0.24670542  0.45506465  1
  Se  Se158  1  0.40994147  0.24742971  0.93228065  1
  Se  Se159  1  0.41855784  0.59112307  0.44132983  1
  Se  Se160  1  0.40091737  0.58950934  0.93584271  1
  Se  Se161  1  0.41497796  0.91774075  0.45590066  1
  Se  Se162  1  0.42455355  0.91089851  0.93753793  1
  Se  Se163  1  0.74135884  0.25527382  0.43522131  1
  Se  Se164  1  0.74633702  0.24984537  0.95261309  1
  Se  Se165  1  0.75114434  0.58749576  0.44741806  1
  Se  Se166  1  0.74425715  0.58929988  0.94141029  1
  Se  Se167  1  0.75232461  0.92130523  0.44601725  1
  Se  Se168  1  0.75615871  0.91353741  0.94532423  1
  Se  Se169  1  0.24619422  0.07996701  0.45162912  1
  Se  Se170  1  0.25195431  0.07983692  0.95002905  1
  Se  Se171  1  0.25313174  0.40901338  0.45080657  1
  Se  Se172  1  0.25465749  0.42109918  0.93064164  1
  Se  Se173  1  0.25991404  0.73799950  0.45593268  1
  Se  Se174  1  0.24223808  0.75534876  0.94750242  1
  Se  Se175  1  0.58097774  0.08535448  0.45067226  1
  Se  Se176  1  0.58742158  0.06234798  0.93412184  1
  Se  Se177  1  0.58862355  0.41904987  0.43975272  1
  Se  Se178  1  0.59228936  0.39620159  0.94401361  1
  Se  Se179  1  0.58453994  0.75838465  0.44844004  1
  Se  Se180  1  0.57991516  0.74529537  0.94469595  1
  Se  Se181  1  0.91994073  0.06940258  0.43659876  1
  Se  Se182  1  0.91347216  0.08626758  0.94144739  1
  Se  Se183  1  0.91804547  0.41155817  0.45129990  1
  Se  Se184  1  0.92365382  0.41547967  0.93337225  1
  Se  Se185  1  0.91945350  0.74780101  0.44663326  1
  Se  Se186  1  0.91176565  0.75951884  0.95346334  1
  Se  Se187  1  0.24052415  0.23849333  0.30867300  1
  Se  Se188  1  0.25573411  0.24883466  0.80054555  1
  Se  Se189  1  0.24175122  0.58472471  0.31873052  1
  Se  Se190  1  0.24203913  0.58514961  0.79645668  1
  Se  Se191  1  0.24271983  0.90560769  0.31210094  1
  Se  Se192  1  0.24442307  0.91868026  0.80608347  1
  Se  Se193  1  0.57445175  0.25078546  0.31279117  1
  Se  Se194  1  0.58507334  0.23465240  0.81249636  1
  Se  Se195  1  0.58806305  0.59631867  0.29849219  1
  Se  Se196  1  0.57782405  0.57543872  0.80805311  1
  Se  Se197  1  0.58728559  0.92497225  0.30765505  1
  Se  Se198  1  0.60012588  0.91370833  0.79653344  1
  Se  Se199  1  0.90522423  0.23710965  0.30253181  1
  Se  Se200  1  0.91958602  0.25033433  0.80049039  1
  Se  Se201  1  0.91900090  0.58794554  0.30763123  1
  Se  Se202  1  0.91415032  0.57925450  0.80633192  1
  Se  Se203  1  0.92082331  0.91536834  0.30495711  1
  Se  Se204  1  0.91668643  0.91695584  0.80200862  1
  Se  Se205  1  0.08178500  0.07829243  0.30711226  1
  Se  Se206  1  0.08410212  0.08227986  0.80542562  1
  Se  Se207  1  0.08388985  0.41723098  0.31778419  1
  Se  Se208  1  0.08107407  0.41889695  0.79557972  1
  Se  Se209  1  0.08758597  0.74566257  0.30881909  1
  Se  Se210  1  0.08480929  0.75877772  0.81070613  1
  Se  Se211  1  0.41632319  0.08602589  0.31792995  1
  Se  Se212  1  0.41480954  0.07939206  0.79711036  1
  Se  Se213  1  0.42570927  0.43183154  0.30702493  1
  Se  Se214  1  0.42355357  0.41176615  0.79270682  1
  Se  Se215  1  0.42216340  0.76546882  0.31434607  1
  Se  Se216  1  0.39825795  0.74279333  0.80330660  1
  Se  Se217  1  0.75215097  0.08973866  0.29703320  1
  Se  Se218  1  0.75218572  0.08211057  0.80090384  1
  Se  Se219  1  0.75299779  0.42139523  0.31135197  1
  Se  Se220  1  0.75954733  0.41846599  0.81000720  1
  Se  Se221  1  0.75129142  0.75427017  0.30634276  1
  Se  Se222  1  0.75375326  0.75093604  0.81142188  1
  Se  Se223  1  0.24564394  0.08648642  0.18677803  1
  Se  Se224  1  0.24834887  0.08117661  0.69649903  1
  Se  Se225  1  0.23568095  0.43254002  0.19918021  1
  Se  Se226  1  0.25285763  0.40921815  0.69781422  1
  Se  Se227  1  0.25341647  0.76389584  0.19175788  1
  Se  Se228  1  0.24776329  0.75070019  0.69355465  1
  Se  Se229  1  0.58456352  0.07998454  0.20276960  1
  Se  Se230  1  0.58777229  0.07876683  0.69557464  1
  Se  Se231  1  0.57252662  0.42451687  0.18449062  1
  Se  Se232  1  0.58452742  0.42599127  0.69322252  1
  Se  Se233  1  0.58785992  0.75397264  0.19837348  1
  Se  Se234  1  0.57305450  0.76671719  0.69467875  1
  Se  Se235  1  0.92095898  0.08065137  0.19546129  1
  Se  Se236  1  0.92301224  0.07842603  0.69856898  1
  Se  Se237  1  0.90854012  0.42592522  0.19315248  1
  Se  Se238  1  0.92161890  0.41153114  0.69505214  1
  Se  Se239  1  0.92664478  0.75278758  0.19897386  1
  Se  Se240  1  0.91003185  0.75426425  0.69219189  1
  Se  Se241  1  0.08889099  0.24399819  0.18509737  1
  Se  Se242  1  0.08394076  0.25086164  0.69868783  1
  Se  Se243  1  0.07477686  0.59020484  0.20478357  1
  Se  Se244  1  0.09821815  0.58573854  0.67648185  1
  Se  Se245  1  0.09023007  0.92435893  0.19486756  1
  Se  Se246  1  0.07949258  0.91833841  0.69760751  1
  Se  Se247  1  0.41533442  0.23616010  0.19772958  1
  Se  Se248  1  0.42154816  0.24824574  0.69750843  1
  Se  Se249  1  0.41677143  0.58181341  0.18702587  1
  Se  Se250  1  0.42531722  0.57522974  0.69898450  1
  Se  Se251  1  0.42304324  0.91172774  0.19079322  1
  Se  Se252  1  0.40767729  0.92456551  0.70207918  1
  Se  Se253  1  0.75739004  0.24462465  0.18810945  1
  Se  Se254  1  0.75836193  0.23944442  0.68444795  1
  Se  Se255  1  0.74824332  0.59010050  0.20296095  1
  Se  Se256  1  0.76050253  0.57822039  0.69114782  1
  Se  Se257  1  0.75446769  0.91532004  0.19548667  1
  Se  Se258  1  0.75159446  0.91798852  0.69416970  1
