# generated using pymatgen
data_In86Cu29Se144
_symmetry_space_group_name_H-M   'P 1'
_cell_length_a   17.58341908
_cell_length_b   17.58302748
_cell_length_c   23.45451948
_cell_angle_alpha   89.99446694
_cell_angle_beta   90.04823896
_cell_angle_gamma   89.99062590
_symmetry_Int_Tables_number   1
_chemical_formula_structural   In86Cu29Se144
_chemical_formula_sum   'In86 Cu29 Se144'
_cell_volume   7251.42500782
_cell_formula_units_Z   1
loop_
 _symmetry_equiv_pos_site_id
 _symmetry_equiv_pos_as_xyz
  1  'x, y, z'
loop_
 _atom_site_type_symbol
 _atom_site_label
 _atom_site_symmetry_multiplicity
 _atom_site_fract_x
 _atom_site_fract_y
 _atom_site_fract_z
 _atom_site_occupancy
  In  In0  1  0.00602972  0.17842474  0.12169558  1
  In  In1  1  0.00221638  0.15428110  0.62467078  1
  In  In2  1  0.00520644  0.50187009  0.11900220  1
  In  In3  1  0.02340247  0.50612844  0.62832944  1
  In  In4  1  -0.00089021  0.82879029  0.12165792  1
  In  In5  1  -0.00220676  0.83434634  0.62470136  1
  In  In6  1  0.32977178  0.16875599  0.13170641  1
  In  In7  1  0.32396190  0.17906963  0.62642580  1
  In  In8  1  0.32210079  0.50781709  0.12916886  1
  In  In9  1  0.31068535  0.51650746  0.64487021  1
  In  In10  1  0.31477253  0.84486727  0.14022011  1
  In  In11  1  0.31815237  0.82140070  0.61806717  1
  In  In12  1  0.67340455  0.15731541  0.11780601  1
  In  In13  1  0.66513006  0.16364357  0.63717585  1
  In  In14  1  0.67127189  0.48982980  0.11928230  1
  In  In15  1  0.66145174  0.50829424  0.63710842  1
  In  In16  1  0.67082090  0.82327243  0.12012872  1
  In  In17  1  0.67277026  0.83037549  0.62305746  1
  In  In18  1  0.17899212  -0.01640487  0.39449009  1
  In  In19  1  0.15302231  0.00840644  0.87127441  1
  In  In20  1  0.16265586  0.33649384  0.37262872  1
  In  In21  1  0.18321433  0.33722141  0.86836343  1
  In  In22  1  0.16337294  0.66637805  0.37655199  1
  In  In23  1  0.16977361  0.66643050  0.87361430  1
  In  In24  1  0.48280773  -0.00321265  0.37647274  1
  In  In25  1  0.49747407  -0.01227321  0.87015713  1
  In  In26  1  0.49095814  0.35044948  0.37997826  1
  In  In27  1  0.49444500  0.32741604  0.87199935  1
  In  In28  1  0.48867587  0.68608791  0.38529259  1
  In  In29  1  0.49354295  0.65730314  0.86536414  1
  In  In30  1  0.82606708  -0.00581685  0.37370237  1
  In  In31  1  0.83703457  -0.00388311  0.87341343  1
  In  In32  1  0.83836418  0.32117879  0.37374685  1
  In  In33  1  0.83017023  0.34150874  0.87879000  1
  In  In34  1  0.84521196  0.66498618  0.37675973  1
  In  In35  1  0.84052100  0.66962211  0.87323800  1
  In  In36  1  0.00043407  0.17973514  0.36826509  1
  In  In37  1  0.00851726  0.14531351  0.86928484  1
  In  In38  1  0.01081478  0.51890240  0.36389972  1
  In  In39  1  -0.00087247  0.50515800  0.87692199  1
  In  In40  1  0.02196571  0.81331741  0.39630418  1
  In  In41  1  0.00304834  0.83142485  0.87272017  1
  In  In42  1  0.31760565  0.15594206  0.36861007  1
  In  In43  1  0.31501923  0.18488962  0.87518301  1
  In  In44  1  0.31687050  0.48969372  0.36589328  1
  In  In45  1  0.31911439  0.48851825  0.86292876  1
  In  In46  1  0.32610662  0.83432849  0.37640235  1
  In  In47  1  0.33723337  0.82221263  0.87829896  1
  In  In48  1  0.67537541  0.16064938  0.37882554  1
  In  In49  1  0.67473999  0.17362678  0.86924051  1
  In  In50  1  0.67127790  0.49714191  0.37616159  1
  In  In51  1  0.67832827  0.51153348  0.86450031  1
  In  In52  1  0.67089675  0.82119115  0.39454438  1
  In  In53  1  0.67549953  0.84256174  0.86489798  1
  In  In54  1  0.17862651  -0.01001179  0.12646421  1
  In  In55  1  0.15047776  -0.00699393  0.61406269  1
  In  In56  1  0.16003691  0.33794769  0.12871605  1
  In  In57  1  0.17302909  0.34330195  0.62050853  1
  In  In58  1  0.16616521  0.66731704  0.12240183  1
  In  In59  1  0.16186100  0.66708418  0.63186869  1
  In  In60  1  0.48971064  -0.00826435  0.12404335  1
  In  In61  1  0.51311988  -0.00312317  0.63000958  1
  In  In62  1  0.49420116  0.32908990  0.12692425  1
  In  In63  1  0.48866916  0.34305126  0.63796053  1
  In  In64  1  0.49329186  0.65761581  0.12510433  1
  In  In65  1  0.49867438  0.67554299  0.62316409  1
  In  In66  1  0.83357189  -0.00262199  0.11424284  1
  In  In67  1  0.85578775  -0.02281474  0.63702009  1
  In  In68  1  0.84696190  0.34395191  0.10769061  1
  In  In69  1  0.83434270  0.32373533  0.63301226  1
  In  In70  1  0.84677694  0.67431512  0.11269097  1
  In  In71  1  0.82416338  0.68326199  0.63508442  1
  In  In72  1  0.66468158  0.33022043  0.25330327  1
  In  In73  1  0.00198953  0.33289096  0.75526862  1
  In  In74  1  0.33211540  0.00083779  0.74827213  1
  In  In75  1  0.50318318  0.83052896  -0.00513129  1
  In  In76  1  0.48958112  0.50952186  0.51629012  1
  In  In77  1  0.49882275  0.16652656  0.00061717  1
  In  In78  1  0.83900165  0.15999985  0.50458709  1
  In  In79  1  0.65927879  0.66359066  0.24930535  1
  In  In80  1  0.16157318  0.16406564  -0.00197173  1
  In  In81  1  0.84061906  0.50628174  0.50045620  1
  In  In82  1  0.65680703  0.00020942  0.25155159  1
  In  In83  1  0.49563871  0.16168819  0.50085271  1
  In  In84  1  0.50158013  0.50014664  0.00363382  1
  In  In85  1  0.00916855  -0.00563651  0.25391905  1
  Cu  Cu86  1  0.84414912  0.17719660  0.23945554  1
  Cu  Cu87  1  0.00058964  0.33133908  -0.00363174  1
  Cu  Cu88  1  -0.00355197  -0.00833535  -0.00539977  1
  Cu  Cu89  1  0.50480002  0.49612888  0.75137520  1
  Cu  Cu90  1  0.67647104  0.00246372  -0.00790703  1
  Cu  Cu91  1  0.67911356  0.67142579  -0.01000767  1
  Cu  Cu92  1  0.67298591  0.33847331  -0.00900339  1
  Cu  Cu93  1  0.83783524  0.83024245  0.24827920  1
  Cu  Cu94  1  0.83890944  0.83220407  0.75180928  1
  Cu  Cu95  1  0.83692777  0.50279792  0.75342307  1
  Cu  Cu96  1  0.32305766  0.66617367  0.00233037  1
  Cu  Cu97  1  0.32337486  0.66064145  0.50192498  1
  Cu  Cu98  1  0.16467820  0.83049502  0.74681247  1
  Cu  Cu99  1  0.66229008  0.33701410  0.51555155  1
  Cu  Cu100  1  0.84470985  0.50293424  0.23849600  1
  Cu  Cu101  1  0.48769457  0.83834858  0.25561687  1
  Cu  Cu102  1  0.48851297  0.17276548  0.25269074  1
  Cu  Cu103  1  0.50154453  0.16547098  0.75211246  1
  Cu  Cu104  1  0.00151772  0.67012328  0.50423980  1
  Cu  Cu105  1  0.33289092  -0.00500989  0.50222212  1
  Cu  Cu106  1  0.16429788  0.16952039  0.25063367  1
  Cu  Cu107  1  0.67331705  -0.00937806  0.50941232  1
  Cu  Cu108  1  0.32072499  0.33259310  0.49775356  1
  Cu  Cu109  1  0.50498340  0.82923580  0.74582200  1
  Cu  Cu110  1  0.15928785  0.50266584  0.24642134  1
  Cu  Cu111  1  0.48653426  0.50417498  0.25415684  1
  Cu  Cu112  1  0.00819206  0.34058573  0.49567277  1
  Cu  Cu113  1  0.82734334  0.16200757  0.75154340  1
  Cu  Cu114  1  0.00410392  0.66667549  -0.00326558  1
  Se  Se115  1  0.07597224  0.06970147  0.06038999  1
  Se  Se116  1  0.07889376  0.08709569  0.54705459  1
  Se  Se117  1  0.08407927  0.41208486  0.05140393  1
  Se  Se118  1  0.08839628  0.42417780  0.55058393  1
  Se  Se119  1  0.08450147  0.75029221  0.05231168  1
  Se  Se120  1  0.08604369  0.75025868  0.55892304  1
  Se  Se121  1  0.40493029  0.07743747  0.05740988  1
  Se  Se122  1  0.40973340  0.07446591  0.56615820  1
  Se  Se123  1  0.40810285  0.41286430  0.06088942  1
  Se  Se124  1  0.39905812  0.40954805  0.56266057  1
  Se  Se125  1  0.41281741  0.74497342  0.05716947  1
  Se  Se126  1  0.40995200  0.74494031  0.55115735  1
  Se  Se127  1  0.75834987  0.08745464  0.04546009  1
  Se  Se128  1  0.74749956  0.07768640  0.56767650  1
  Se  Se129  1  0.75467068  0.42409270  0.04386872  1
  Se  Se130  1  0.75123939  0.41677699  0.56604210  1
  Se  Se131  1  0.75649004  0.75579584  0.04736634  1
  Se  Se132  1  0.76111801  0.75567017  0.55343058  1
  Se  Se133  1  0.24950759  0.25303124  0.05974592  1
  Se  Se134  1  0.24064421  0.24658543  0.55057273  1
  Se  Se135  1  0.24246614  0.57691451  0.05178262  1
  Se  Se136  1  0.24346011  0.58124073  0.56043485  1
  Se  Se137  1  0.25331866  0.91044252  0.05375315  1
  Se  Se138  1  0.24455492  0.91323269  0.55167392  1
  Se  Se139  1  0.59416016  0.26219389  0.05575129  1
  Se  Se140  1  0.58013571  0.25217995  0.56687882  1
  Se  Se141  1  0.59854057  0.59679141  0.05546945  1
  Se  Se142  1  0.59833181  0.59435237  0.55839142  1
  Se  Se143  1  0.59427915  0.92659375  0.05608973  1
  Se  Se144  1  0.58085108  0.91149942  0.55641820  1
  Se  Se145  1  0.91890549  0.24273369  0.04628655  1
  Se  Se146  1  0.92717040  0.26272830  0.55683473  1
  Se  Se147  1  0.91978223  0.58054932  0.04786508  1
  Se  Se148  1  0.92420137  0.59096852  0.56789564  1
  Se  Se149  1  0.91537679  0.90935119  0.05144722  1
  Se  Se150  1  0.92587540  0.92224238  0.55173451  1
  Se  Se151  1  0.08342037  0.25004805  0.44300515  1
  Se  Se152  1  0.07824910  0.25390701  0.93223532  1
  Se  Se153  1  0.07940233  0.58436904  0.44796659  1
  Se  Se154  1  0.08771405  0.58322222  0.94421996  1
  Se  Se155  1  0.07026388  0.92696908  0.45450208  1
  Se  Se156  1  0.08634623  0.91681983  0.94210411  1
  Se  Se157  1  0.40759572  0.25489113  0.44037677  1
  Se  Se158  1  0.40511271  0.26056342  0.94874298  1
  Se  Se159  1  0.40437315  0.58076047  0.44008206  1
  Se  Se160  1  0.41152521  0.58917364  0.94439720  1
  Se  Se161  1  0.41480189  0.91074379  0.44899918  1
  Se  Se162  1  0.40731452  0.92600784  0.94618527  1
  Se  Se163  1  0.74161481  0.25900239  0.45096374  1
  Se  Se164  1  0.75423321  0.24719671  0.94467290  1
  Se  Se165  1  0.74215195  0.59275462  0.44301676  1
  Se  Se166  1  0.75852269  0.58108564  0.94129431  1
  Se  Se167  1  0.75674643  0.91489617  0.45071748  1
  Se  Se168  1  0.75433146  0.91146586  0.94320853  1
  Se  Se169  1  0.25357046  0.08700196  0.45293332  1
  Se  Se170  1  0.25564424  0.07665545  0.93966516  1
  Se  Se171  1  0.24192506  0.42007701  0.44507006  1
  Se  Se172  1  0.25242079  0.41628321  0.94416913  1
  Se  Se173  1  0.24672523  0.74844506  0.44625955  1
  Se  Se174  1  0.24553475  0.75345229  0.94762942  1
  Se  Se175  1  0.59297193  0.07051668  0.44552363  1
  Se  Se176  1  0.58614327  0.07695702  0.93705082  1
  Se  Se177  1  0.58725678  0.41782932  0.45236808  1
  Se  Se178  1  0.58778917  0.41724766  0.93429111  1
  Se  Se179  1  0.57930705  0.74633551  0.45740188  1
  Se  Se180  1  0.58996427  0.74233551  0.93113452  1
  Se  Se181  1  0.92116864  0.08120248  0.43303852  1
  Se  Se182  1  0.91883438  0.08147523  0.94332426  1
  Se  Se183  1  0.92287148  0.41474071  0.43515416  1
  Se  Se184  1  0.91892114  0.41897128  0.94515200  1
  Se  Se185  1  0.91139361  0.74892121  0.45259206  1
  Se  Se186  1  0.92041741  0.75151428  0.94463366  1
  Se  Se187  1  0.24816217  0.25349895  0.30407795  1
  Se  Se188  1  0.24244887  0.24622163  0.79310020  1
  Se  Se189  1  0.24200126  0.58397072  0.30290821  1
  Se  Se190  1  0.27405305  0.60638259  0.80842262  1
  Se  Se191  1  0.24660154  0.92268105  0.31013824  1
  Se  Se192  1  0.24602971  0.90921955  0.81023421  1
  Se  Se193  1  0.57468007  0.24240233  0.31745309  1
  Se  Se194  1  0.58379978  0.25192299  0.80438632  1
  Se  Se195  1  0.57067826  0.57846940  0.31592800  1
  Se  Se196  1  0.58703953  0.58647362  0.79816979  1
  Se  Se197  1  0.57893269  0.90662960  0.31624758  1
  Se  Se198  1  0.58308172  0.91803368  0.79820923  1
  Se  Se199  1  0.92221799  0.26082032  0.29516292  1
  Se  Se200  1  0.91061402  0.24111769  0.81276671  1
  Se  Se201  1  0.91569007  0.59100962  0.29730699  1
  Se  Se202  1  0.92231948  0.58564199  0.80361726  1
  Se  Se203  1  0.91416412  0.90752599  0.31112569  1
  Se  Se204  1  0.92200665  0.91778391  0.80358123  1
  Se  Se205  1  0.09453464  0.08541493  0.31478786  1
  Se  Se206  1  0.08990437  0.08429688  0.79071090  1
  Se  Se207  1  0.07867329  0.41712362  0.30180883  1
  Se  Se208  1  0.09298580  0.42846741  0.80683736  1
  Se  Se209  1  0.07828111  0.74952113  0.30927708  1
  Se  Se210  1  0.08391316  0.74720075  0.80369384  1
  Se  Se211  1  0.41241991  0.08172434  0.30341068  1
  Se  Se212  1  0.41660098  0.09348485  0.81415945  1
  Se  Se213  1  0.40952686  0.41034400  0.30089838  1
  Se  Se214  1  0.41833466  0.41375344  0.80245346  1
  Se  Se215  1  0.40908716  0.74873964  0.30624348  1
  Se  Se216  1  0.41804421  0.75270406  0.80157231  1
  Se  Se217  1  0.76173904  0.09521986  0.29834106  1
  Se  Se218  1  0.74787958  0.07648063  0.80580635  1
  Se  Se219  1  0.76437176  0.42578047  0.30380027  1
  Se  Se220  1  0.75328916  0.41423845  0.80116419  1
  Se  Se221  1  0.75016249  0.75529477  0.30868884  1
  Se  Se222  1  0.75371089  0.74837968  0.80308281  1
  Se  Se223  1  0.24479603  0.08461978  0.19619472  1
  Se  Se224  1  0.24073602  0.08124771  0.68423200  1
  Se  Se225  1  0.24607618  0.41788506  0.19714794  1
  Se  Se226  1  0.25972257  0.40050214  0.69908974  1
  Se  Se227  1  0.26759772  0.72643354  0.19106443  1
  Se  Se228  1  0.25308311  0.74744947  0.69966018  1
  Se  Se229  1  0.57109805  0.09618389  0.18983786  1
  Se  Se230  1  0.58499460  0.07778452  0.70489269  1
  Se  Se231  1  0.57418735  0.42737139  0.19478137  1
  Se  Se232  1  0.58988560  0.41052245  0.70038646  1
  Se  Se233  1  0.56901697  0.76213071  0.19169188  1
  Se  Se234  1  0.58893486  0.74724056  0.69318421  1
  Se  Se235  1  0.91725593  0.08246726  0.18677128  1
  Se  Se236  1  0.91581544  0.08562589  0.69781215  1
  Se  Se237  1  0.92115620  0.41408813  0.18716592  1
  Se  Se238  1  0.91589091  0.42535774  0.69007435  1
  Se  Se239  1  0.91693525  0.74718278  0.19324810  1
  Se  Se240  1  0.92468774  0.74933189  0.69947041  1
  Se  Se241  1  0.08011890  0.25227688  0.19851545  1
  Se  Se242  1  0.08404926  0.25104676  0.68569515  1
  Se  Se243  1  0.07898152  0.58649094  0.19159863  1
  Se  Se244  1  0.09429838  0.57858609  0.70593371  1
  Se  Se245  1  0.09371377  0.90106467  0.19376309  1
  Se  Se246  1  0.08364339  0.91609579  0.69481444  1
  Se  Se247  1  0.40931913  0.25742761  0.19896496  1
  Se  Se248  1  0.41497762  0.24435627  0.69869930  1
  Se  Se249  1  0.40933050  0.58786014  0.19831844  1
  Se  Se250  1  0.42847361  0.57937474  0.69146174  1
  Se  Se251  1  0.41038287  0.92579503  0.20167550  1
  Se  Se252  1  0.41777879  0.90599616  0.68705467  1
  Se  Se253  1  0.75428888  0.25167565  0.18237021  1
  Se  Se254  1  0.74691740  0.25189545  0.70262187  1
  Se  Se255  1  0.75342457  0.58089671  0.18492536  1
  Se  Se256  1  0.75232938  0.58692931  0.70075636  1
  Se  Se257  1  0.75339792  0.91133543  0.19181684  1
  Se  Se258  1  0.75094127  0.91278914  0.69741263  1
