# generated using pymatgen
data_In86Cu29Se144
_symmetry_space_group_name_H-M   'P 1'
_cell_length_a   17.59565713
_cell_length_b   17.59278399
_cell_length_c   23.45067598
_cell_angle_alpha   90.00495203
_cell_angle_beta   90.00190386
_cell_angle_gamma   89.99430316
_symmetry_Int_Tables_number   1
_chemical_formula_structural   In86Cu29Se144
_chemical_formula_sum   'In86 Cu29 Se144'
_cell_volume   7259.31134243
_cell_formula_units_Z   1
loop_
 _symmetry_equiv_pos_site_id
 _symmetry_equiv_pos_as_xyz
  1  'x, y, z'
loop_
 _atom_site_type_symbol
 _atom_site_label
 _atom_site_symmetry_multiplicity
 _atom_site_fract_x
 _atom_site_fract_y
 _atom_site_fract_z
 _atom_site_occupancy
  In  In0  1  -0.01578315  0.15990255  0.11361630  1
  In  In1  1  -0.00249641  0.17542808  0.63838988  1
  In  In2  1  -0.00091551  0.49594830  0.12134910  1
  In  In3  1  -0.00486863  0.50418423  0.63088527  1
  In  In4  1  0.01286517  0.83881115  0.12670195  1
  In  In5  1  -0.00221338  0.83349096  0.62254041  1
  In  In6  1  0.33870984  0.17825540  0.12525583  1
  In  In7  1  0.33380838  0.16218091  0.63181082  1
  In  In8  1  0.33222060  0.49263504  0.14308411  1
  In  In9  1  0.33854848  0.48835712  0.61712582  1
  In  In10  1  0.31799179  0.83210745  0.13147179  1
  In  In11  1  0.34386802  0.84276140  0.61551285  1
  In  In12  1  0.68473554  0.15595134  0.13786288  1
  In  In13  1  0.66350700  0.16027118  0.61918679  1
  In  In14  1  0.66031861  0.50372356  0.13816746  1
  In  In15  1  0.67520439  0.50430832  0.61480648  1
  In  In16  1  0.66431460  0.83654524  0.13489250  1
  In  In17  1  0.66606772  0.83491560  0.62105035  1
  In  In18  1  0.15174971  0.00236129  0.37613195  1
  In  In19  1  0.16728257  0.01424104  0.85908699  1
  In  In20  1  0.17018561  0.33257984  0.37114775  1
  In  In21  1  0.13652370  0.28117396  0.82279093  1
  In  In22  1  0.18096546  0.66471345  0.37552444  1
  In  In23  1  0.15945527  0.67374600  0.87268557  1
  In  In24  1  0.51148632  -0.01085329  0.38410616  1
  In  In25  1  0.50252787  0.00982475  0.86324853  1
  In  In26  1  0.49982758  0.33067339  0.38416717  1
  In  In27  1  0.49131156  0.33877979  0.86875843  1
  In  In28  1  0.50285785  0.66586719  0.37813276  1
  In  In29  1  0.50645260  0.65797954  0.86809227  1
  In  In30  1  0.83252057  0.00216991  0.37832149  1
  In  In31  1  0.83644348  0.00270025  0.86728862  1
  In  In32  1  0.82746948  0.34611072  0.39105760  1
  In  In33  1  0.83645608  0.31596290  0.87921519  1
  In  In34  1  0.82102631  0.67735062  0.38391563  1
  In  In35  1  0.83791638  0.67304262  0.86354781  1
  In  In36  1  0.00447392  0.15814656  0.37831475  1
  In  In37  1  -0.00705874  0.16121713  0.86985671  1
  In  In38  1  -0.01208838  0.48873017  0.38206185  1
  In  In39  1  0.00396652  0.49660226  0.86549166  1
  In  In40  1  -0.01363496  0.84278587  0.38679561  1
  In  In41  1  -0.00445506  0.83392031  0.86419771  1
  In  In42  1  0.33815609  0.18238737  0.37836089  1
  In  In43  1  0.31717096  0.15923443  0.85450410  1
  In  In44  1  0.33553576  0.50781456  0.37192930  1
  In  In45  1  0.33913083  0.48342815  0.87228955  1
  In  In46  1  0.34606901  0.82558654  0.38641597  1
  In  In47  1  0.31931012  0.83945385  0.87262363  1
  In  In48  1  0.66827926  0.16594793  0.37816758  1
  In  In49  1  0.67951777  0.16358110  0.87691773  1
  In  In50  1  0.66614469  0.49959464  0.37901463  1
  In  In51  1  0.65674852  0.50316403  0.86928729  1
  In  In52  1  0.66780472  0.83520969  0.37574392  1
  In  In53  1  0.67354410  0.83920405  0.86279139  1
  In  In54  1  0.15123617  0.00073645  0.12482278  1
  In  In55  1  0.17736195  0.00121322  0.63669105  1
  In  In56  1  0.17794438  0.33205817  0.12330417  1
  In  In57  1  0.17065489  0.32571863  0.63729694  1
  In  In58  1  0.16802953  0.67204046  0.13183363  1
  In  In59  1  0.15134709  0.67026693  0.62499114  1
  In  In60  1  0.50895085  0.01007521  0.12975540  1
  In  In61  1  0.50156404  0.00134009  0.62323274  1
  In  In62  1  0.49490029  0.33884306  0.13823016  1
  In  In63  1  0.48700094  0.32386800  0.60458240  1
  In  In64  1  0.50247070  0.65992201  0.13718810  1
  In  In65  1  0.51299911  0.67826131  0.61211287  1
  In  In66  1  0.82485335  0.01126139  0.13306251  1
  In  In67  1  0.83226353  -0.00080458  0.62290304  1
  In  In68  1  0.83846907  0.31707438  0.12917572  1
  In  In69  1  0.84866263  0.33630153  0.61204121  1
  In  In70  1  0.82919285  0.65851226  0.12933546  1
  In  In71  1  0.83124479  0.66595861  0.62149851  1
  In  In72  1  0.50085445  0.49427432  0.00572554  1
  In  In73  1  0.83886064  0.83994789  -0.00811783  1
  In  In74  1  0.83602440  0.49443746  -0.00094476  1
  In  In75  1  0.16341489  0.49895231  0.50215632  1
  In  In76  1  0.16428694  0.49164526  -0.00292425  1
  In  In77  1  0.50639320  0.17113140  0.00154141  1
  In  In78  1  0.33827345  -0.00187849  0.25298591  1
  In  In79  1  0.16120533  0.83649013  0.00206563  1
  In  In80  1  0.33366155  0.66826484  0.75045474  1
  In  In81  1  0.16508263  0.16720143  0.50620540  1
  In  In82  1  0.00079599  0.66763374  0.24808211  1
  In  In83  1  0.00184840  0.32957876  0.25075112  1
  In  In84  1  0.50172477  0.83748072  0.00798689  1
  In  In85  1  0.66589354  0.33469863  0.74645607  1
  Cu  Cu86  1  -0.00406955  0.66770933  0.50475077  1
  Cu  Cu87  1  0.16743184  0.83097768  0.25587764  1
  Cu  Cu88  1  0.33357262  0.65820561  0.00769657  1
  Cu  Cu89  1  0.67264295  0.67483723  -0.00423926  1
  Cu  Cu90  1  -0.00233803  -0.00181028  0.50302849  1
  Cu  Cu91  1  0.49993529  0.83815097  0.74052006  1
  Cu  Cu92  1  0.82495467  0.50280378  0.25719665  1
  Cu  Cu93  1  0.82879399  0.82926012  0.73953771  1
  Cu  Cu94  1  0.83373467  0.83915535  0.25923695  1
  Cu  Cu95  1  0.67008464  0.32774038  0.00882530  1
  Cu  Cu96  1  0.83334335  0.16719759  0.25560917  1
  Cu  Cu97  1  0.66889851  0.33010316  0.49972355  1
  Cu  Cu98  1  0.50059573  0.16771200  0.74006492  1
  Cu  Cu99  1  0.33059748  0.00806458  -0.01293110  1
  Cu  Cu100  1  0.33489615  0.66903996  0.49661377  1
  Cu  Cu101  1  0.32501940  0.32287704  -0.00269782  1
  Cu  Cu102  1  0.66802339  0.66668756  0.49717786  1
  Cu  Cu103  1  -0.00167248  0.00612119  -0.00558398  1
  Cu  Cu104  1  0.83129254  0.49814521  0.74346341  1
  Cu  Cu105  1  0.50110171  0.49779096  0.26226577  1
  Cu  Cu106  1  0.16309509  0.83554823  0.74753779  1
  Cu  Cu107  1  0.16671315  0.50074044  0.74300218  1
  Cu  Cu108  1  0.50537621  0.17139961  0.25557005  1
  Cu  Cu109  1  0.82855630  0.16258853  0.74700220  1
  Cu  Cu110  1  0.66889404  -0.00174755  0.50010487  1
  Cu  Cu111  1  0.33170982  0.00466879  0.50590631  1
  Cu  Cu112  1  0.51126487  0.50983733  0.73704467  1
  Cu  Cu113  1  0.16534611  0.16517211  0.25150521  1
  Cu  Cu114  1  0.50254849  0.82861487  0.25911091  1
  Se  Se115  1  0.08339184  0.08472919  0.05063004  1
  Se  Se116  1  0.07789836  0.07622108  0.56574711  1
  Se  Se117  1  0.07352623  0.40021242  0.05669488  1
  Se  Se118  1  0.08214725  0.40894574  0.56759948  1
  Se  Se119  1  0.07456170  0.73702807  0.05649823  1
  Se  Se120  1  0.08310097  0.75377019  0.55048226  1
  Se  Se121  1  0.41092291  0.07575122  0.05646223  1
  Se  Se122  1  0.41542347  0.08756984  0.55788701  1
  Se  Se123  1  0.40311582  0.40550947  0.05883715  1
  Se  Se124  1  0.42482389  0.42807640  0.54204523  1
  Se  Se125  1  0.40945690  0.74233911  0.06571667  1
  Se  Se126  1  0.41952295  0.75436326  0.54753696  1
  Se  Se127  1  0.75548257  0.08982702  0.05625911  1
  Se  Se128  1  0.75272500  0.08291910  0.55181356  1
  Se  Se129  1  0.74286815  0.41665581  0.06630032  1
  Se  Se130  1  0.75482045  0.41487940  0.54964429  1
  Se  Se131  1  0.74905271  0.75139731  0.05920052  1
  Se  Se132  1  0.74915189  0.75003331  0.55305772  1
  Se  Se133  1  0.24581934  0.23931636  0.05242275  1
  Se  Se134  1  0.25825821  0.25878148  0.55982267  1
  Se  Se135  1  0.25315008  0.57878158  0.06515639  1
  Se  Se136  1  0.25415449  0.59353313  0.56110943  1
  Se  Se137  1  0.25792512  0.92932737  0.05598462  1
  Se  Se138  1  0.24554237  0.92219234  0.55696592  1
  Se  Se139  1  0.58752569  0.25542944  0.07148431  1
  Se  Se140  1  0.58461403  0.24340596  0.54834167  1
  Se  Se141  1  0.59321301  0.59371464  0.05694618  1
  Se  Se142  1  0.58370222  0.58092391  0.54786587  1
  Se  Se143  1  0.59686576  0.92982015  0.05877155  1
  Se  Se144  1  0.58138775  0.91726768  0.55284625  1
  Se  Se145  1  0.91597556  0.25752106  0.04932421  1
  Se  Se146  1  0.92233095  0.23478268  0.55482707  1
  Se  Se147  1  0.92295957  0.59349572  0.05573829  1
  Se  Se148  1  0.91622915  0.57921910  0.55532087  1
  Se  Se149  1  0.92486901  0.92474893  0.05972464  1
  Se  Se150  1  0.91237661  0.91333170  0.55343199  1
  Se  Se151  1  0.07993281  0.25881116  0.44261892  1
  Se  Se152  1  0.08830005  0.24998363  0.92306818  1
  Se  Se153  1  0.07482775  0.59063596  0.44004271  1
  Se  Se154  1  0.07592321  0.58832080  0.94124584  1
  Se  Se155  1  0.08418979  0.91713847  0.45031861  1
  Se  Se156  1  0.07766480  0.92268005  0.93558572  1
  Se  Se157  1  0.41831684  0.24800619  0.45425102  1
  Se  Se158  1  0.41278715  0.24986781  0.93780029  1
  Se  Se159  1  0.41671252  0.58291212  0.44578830  1
  Se  Se160  1  0.41174203  0.58613898  0.94200158  1
  Se  Se161  1  0.41599944  0.92095601  0.45203171  1
  Se  Se162  1  0.41388636  0.92164054  0.93793479  1
  Se  Se163  1  0.75359881  0.24418508  0.44936016  1
  Se  Se164  1  0.74967530  0.24655535  0.95220506  1
  Se  Se165  1  0.75336124  0.57887143  0.44876818  1
  Se  Se166  1  0.74629376  0.58806632  0.93781100  1
  Se  Se167  1  0.75194207  0.91494430  0.44587293  1
  Se  Se168  1  0.74026011  0.92602850  0.93971783  1
  Se  Se169  1  0.25362696  0.07980319  0.43974840  1
  Se  Se170  1  0.24529750  0.08850061  0.93582000  1
  Se  Se171  1  0.25499210  0.41262967  0.44215138  1
  Se  Se172  1  0.24901834  0.40305518  0.93579851  1
  Se  Se173  1  0.24649009  0.75261470  0.44922369  1
  Se  Se174  1  0.25748309  0.74038737  0.94689757  1
  Se  Se175  1  0.58477738  0.08382269  0.44863983  1
  Se  Se176  1  0.58906697  0.07555438  0.94229319  1
  Se  Se177  1  0.58597739  0.41659733  0.44909631  1
  Se  Se178  1  0.59219302  0.40447271  0.94372699  1
  Se  Se179  1  0.58465989  0.75238878  0.44504730  1
  Se  Se180  1  0.58559256  0.74957638  0.93860107  1
  Se  Se181  1  0.91828408  0.08327281  0.44818176  1
  Se  Se182  1  0.90856783  0.08360285  0.94292974  1
  Se  Se183  1  0.92422885  0.41051752  0.45932614  1
  Se  Se184  1  0.92704653  0.40838857  0.93915017  1
  Se  Se185  1  0.91089439  0.75139255  0.45230767  1
  Se  Se186  1  0.92703651  0.74132949  0.94021851  1
  Se  Se187  1  0.24980646  0.24697496  0.30310627  1
  Se  Se188  1  0.28254764  0.28615673  0.80781479  1
  Se  Se189  1  0.24424372  0.57821745  0.30245319  1
  Se  Se190  1  0.24457227  0.57517251  0.81061758  1
  Se  Se191  1  0.24835043  0.91222931  0.31573395  1
  Se  Se192  1  0.24966740  0.91946272  0.79808122  1
  Se  Se193  1  0.58564094  0.25351535  0.31176612  1
  Se  Se194  1  0.57769071  0.24214497  0.80887500  1
  Se  Se195  1  0.58706438  0.58473176  0.30860566  1
  Se  Se196  1  0.59192214  0.58987589  0.79411377  1
  Se  Se197  1  0.58558288  0.91846237  0.30450667  1
  Se  Se198  1  0.58188048  0.91858439  0.79945821  1
  Se  Se199  1  0.91173407  0.24888966  0.31635290  1
  Se  Se200  1  0.91035213  0.24835606  0.79963175  1
  Se  Se201  1  0.91075008  0.58247999  0.31287410  1
  Se  Se202  1  0.91508468  0.57912121  0.80100060  1
  Se  Se203  1  0.92025888  0.92227305  0.30784430  1
  Se  Se204  1  0.90853150  0.91207518  0.79797461  1
  Se  Se205  1  0.07925004  0.08242831  0.30068573  1
  Se  Se206  1  0.05772598  0.06600658  0.79919951  1
  Se  Se207  1  0.08527050  0.42744658  0.30887825  1
  Se  Se208  1  0.08167485  0.41658280  0.79310087  1
  Se  Se209  1  0.08188909  0.75565003  0.31583526  1
  Se  Se210  1  0.08134552  0.74872436  0.79896660  1
  Se  Se211  1  0.42516591  0.08724626  0.31446263  1
  Se  Se212  1  0.41549023  0.08407941  0.79408933  1
  Se  Se213  1  0.41735421  0.41238434  0.31219453  1
  Se  Se214  1  0.42992202  0.42957425  0.79490232  1
  Se  Se215  1  0.41517557  0.74699162  0.30847574  1
  Se  Se216  1  0.42427853  0.76201966  0.80974297  1
  Se  Se217  1  0.74948389  0.08225570  0.30729307  1
  Se  Se218  1  0.74448326  0.08066040  0.80019479  1
  Se  Se219  1  0.75035885  0.41342042  0.31118513  1
  Se  Se220  1  0.75729769  0.42011192  0.81136585  1
  Se  Se221  1  0.74926217  0.75086432  0.30482596  1
  Se  Se222  1  0.74673582  0.74663366  0.79686361  1
  Se  Se223  1  0.24749685  0.08514394  0.18985327  1
  Se  Se224  1  0.24034299  0.10041627  0.70306804  1
  Se  Se225  1  0.24635230  0.40543555  0.20191838  1
  Se  Se226  1  0.25616610  0.42125934  0.69360483  1
  Se  Se227  1  0.25107952  0.74582785  0.20522015  1
  Se  Se228  1  0.24717393  0.75703156  0.68776213  1
  Se  Se229  1  0.58695381  0.08456512  0.20347221  1
  Se  Se230  1  0.58664645  0.08186169  0.69382018  1
  Se  Se231  1  0.58347486  0.41592793  0.20497685  1
  Se  Se232  1  0.58014672  0.41724866  0.67921245  1
  Se  Se233  1  0.58526709  0.74792445  0.20054612  1
  Se  Se234  1  0.58327710  0.75131401  0.69226774  1
  Se  Se235  1  0.91825976  0.08888702  0.19746291  1
  Se  Se236  1  0.91422953  0.07935040  0.69550216  1
  Se  Se237  1  0.90690337  0.42616661  0.19489400  1
  Se  Se238  1  0.91469187  0.41120514  0.69452882  1
  Se  Se239  1  0.90919214  0.76249071  0.19070536  1
  Se  Se240  1  0.91706899  0.74646541  0.69090530  1
  Se  Se241  1  0.08514020  0.23964405  0.18648209  1
  Se  Se242  1  0.09159965  0.24375385  0.70758179  1
  Se  Se243  1  0.08911820  0.57055081  0.19221585  1
  Se  Se244  1  0.07984254  0.58775743  0.69852994  1
  Se  Se245  1  0.08643543  0.91659531  0.20225641  1
  Se  Se246  1  0.08015885  0.91663707  0.69295754  1
  Se  Se247  1  0.41500792  0.24874934  0.20312821  1
  Se  Se248  1  0.42137592  0.25652545  0.69006779  1
  Se  Se249  1  0.41813261  0.57975429  0.20443555  1
  Se  Se250  1  0.42142492  0.58748166  0.68258622  1
  Se  Se251  1  0.42728474  0.90586276  0.19037934  1
  Se  Se252  1  0.41285193  0.92192463  0.69318850  1
  Se  Se253  1  0.75095806  0.25473195  0.20468482  1
  Se  Se254  1  0.75563531  0.24798853  0.68519971  1
  Se  Se255  1  0.74562328  0.58923063  0.20298291  1
  Se  Se256  1  0.74844533  0.58193972  0.69187493  1
  Se  Se257  1  0.75136142  0.91868131  0.19968071  1
  Se  Se258  1  0.74606329  0.91808694  0.69179857  1
