# generated using pymatgen
data_In86Cu29Se144
_symmetry_space_group_name_H-M   'P 1'
_cell_length_a   17.58924125
_cell_length_b   17.59349427
_cell_length_c   23.45456655
_cell_angle_alpha   89.94757323
_cell_angle_beta   90.01027520
_cell_angle_gamma   89.99690413
_symmetry_Int_Tables_number   1
_chemical_formula_structural   In86Cu29Se144
_chemical_formula_sum   'In86 Cu29 Se144'
_cell_volume   7258.15822949
_cell_formula_units_Z   1
loop_
 _symmetry_equiv_pos_site_id
 _symmetry_equiv_pos_as_xyz
  1  'x, y, z'
loop_
 _atom_site_type_symbol
 _atom_site_label
 _atom_site_symmetry_multiplicity
 _atom_site_fract_x
 _atom_site_fract_y
 _atom_site_fract_z
 _atom_site_occupancy
  In  In0  1  0.00004307  0.16724643  0.12893568  1
  In  In1  1  0.00295600  0.18273652  0.60908802  1
  In  In2  1  -0.00743788  0.49166038  0.11894945  1
  In  In3  1  0.00286627  0.48429285  0.62952881  1
  In  In4  1  0.01040037  0.84395111  0.11835717  1
  In  In5  1  0.00163574  0.83694924  0.61616701  1
  In  In6  1  0.32618367  0.16817334  0.12939002  1
  In  In7  1  0.32475684  0.17401346  0.61896125  1
  In  In8  1  0.32136765  0.48723676  0.11499145  1
  In  In9  1  0.32716382  0.51866140  0.62205704  1
  In  In10  1  0.32201749  0.84813646  0.13078622  1
  In  In11  1  0.32497293  0.81691295  0.61342810  1
  In  In12  1  0.68577296  0.16722862  0.12166021  1
  In  In13  1  0.66472146  0.15244373  0.62317006  1
  In  In14  1  0.66127823  0.49351415  0.11690275  1
  In  In15  1  0.67536948  0.50750149  0.63197572  1
  In  In16  1  0.66655548  0.82217175  0.12529811  1
  In  In17  1  0.67059326  0.83215516  0.62066211  1
  In  In18  1  0.16597419  0.00720620  0.37460897  1
  In  In19  1  0.16950801  0.00430658  0.89175560  1
  In  In20  1  0.15969700  0.32892935  0.37033671  1
  In  In21  1  0.15488344  0.34562505  0.88258093  1
  In  In22  1  0.17415963  0.66501708  0.39342761  1
  In  In23  1  0.17910892  0.65389759  0.87647270  1
  In  In24  1  0.48564656  0.00412676  0.37558079  1
  In  In25  1  0.50365735  -0.01965163  0.87437895  1
  In  In26  1  0.49843854  0.33726044  0.36559461  1
  In  In27  1  0.51371433  0.33879284  0.87925832  1
  In  In28  1  0.50441503  0.66945670  0.38562440  1
  In  In29  1  0.48884603  0.66858994  0.86342846  1
  In  In30  1  0.84364929  -0.00572224  0.37552626  1
  In  In31  1  0.83155549  0.00388495  0.87812044  1
  In  In32  1  0.83040675  0.32595856  0.37118659  1
  In  In33  1  0.84884393  0.32509561  0.88058682  1
  In  In34  1  0.83778524  0.66982547  0.38116932  1
  In  In35  1  0.82656243  0.67529256  0.87859745  1
  In  In36  1  0.00234946  0.16927411  0.37241199  1
  In  In37  1  -0.00297071  0.17540958  0.88056209  1
  In  In38  1  0.01023927  0.49901511  0.37446694  1
  In  In39  1  0.01449980  0.48492044  0.87971626  1
  In  In40  1  -0.00515361  0.84421036  0.38064435  1
  In  In41  1  -0.00173642  0.83550839  0.88308231  1
  In  In42  1  0.32172002  0.16160225  0.36638905  1
  In  In43  1  0.31700614  0.15941272  0.88144615  1
  In  In44  1  0.33417442  0.48661017  0.37070774  1
  In  In45  1  0.32229040  0.51511612  0.88127083  1
  In  In46  1  0.31516768  0.84968761  0.39306329  1
  In  In47  1  0.33724669  0.82188939  0.87623040  1
  In  In48  1  0.67245402  0.18687093  0.37740064  1
  In  In49  1  0.68345970  0.16536846  0.87617670  1
  In  In50  1  0.67405163  0.49240319  0.37708663  1
  In  In51  1  0.65873666  0.51156991  0.88132765  1
  In  In52  1  0.66726247  0.82796142  0.38924071  1
  In  In53  1  0.66713637  0.84278458  0.86143043  1
  In  In54  1  0.16424854  -0.00107974  0.12677372  1
  In  In55  1  0.16387607  0.00254541  0.61894484  1
  In  In56  1  0.16513898  0.32947853  0.12693782  1
  In  In57  1  0.15586194  0.32877995  0.61149460  1
  In  In58  1  0.16849386  0.66740115  0.11609700  1
  In  In59  1  0.17191571  0.66634288  0.61865299  1
  In  In60  1  0.49158484  -0.00929034  0.13029672  1
  In  In61  1  0.51907989  -0.00827600  0.63062918  1
  In  In62  1  0.49334026  0.33878151  0.12855758  1
  In  In63  1  0.49815573  0.33041132  0.62189508  1
  In  In64  1  0.50961238  0.66365320  0.12273003  1
  In  In65  1  0.49586988  0.67988026  0.63265194  1
  In  In66  1  0.84633996  0.01391555  0.11629639  1
  In  In67  1  0.83057894  -0.00658620  0.61680063  1
  In  In68  1  0.83746047  0.33165982  0.12698915  1
  In  In69  1  0.84668315  0.34022046  0.61841148  1
  In  In70  1  0.83588314  0.66717826  0.11500301  1
  In  In71  1  0.81158069  0.66929995  0.62709447  1
  In  In72  1  0.49744133  0.50228786  0.50491203  1
  In  In73  1  0.83354657  0.50557860  0.50234318  1
  In  In74  1  0.00030677  0.66215437  0.74978887  1
  In  In75  1  0.33821001  -0.00784786  0.75261887  1
  In  In76  1  0.33163370  0.34126900  0.74826927  1
  In  In77  1  0.00192233  0.66752396  0.25605497  1
  In  In78  1  0.33800470  0.66449707  0.25545827  1
  In  In79  1  0.66785572  0.66231357  0.25917561  1
  In  In80  1  -0.00188407  0.00730615  0.75090140  1
  In  In81  1  0.49993185  0.16384435  0.50054137  1
  In  In82  1  0.67475425  0.33605087  0.74852270  1
  In  In83  1  0.49555741  0.82858127  -0.00390601  1
  In  In84  1  0.49565363  0.16754943  0.00637562  1
  In  In85  1  0.66701469  0.00353860  0.24718171  1
  Cu  Cu86  1  0.16234973  0.17318842  0.74658077  1
  Cu  Cu87  1  0.49592375  0.50933174  0.75235254  1
  Cu  Cu88  1  0.16418607  0.49372356  0.24652601  1
  Cu  Cu89  1  0.00272206  0.32937976  0.00574747  1
  Cu  Cu90  1  0.67862163  0.33791931  -0.00053505  1
  Cu  Cu91  1  0.00434215  0.00804896  0.49558436  1
  Cu  Cu92  1  -0.00264355  0.00079888  0.00385317  1
  Cu  Cu93  1  0.49701324  0.49169323  0.24409538  1
  Cu  Cu94  1  0.82741980  0.49018156  0.24601992  1
  Cu  Cu95  1  0.50324458  0.15747365  0.75001621  1
  Cu  Cu96  1  0.83731574  0.16989604  0.24868355  1
  Cu  Cu97  1  0.33576249  0.66567996  -0.00273507  1
  Cu  Cu98  1  0.83855590  0.49776700  0.75382428  1
  Cu  Cu99  1  0.49150688  0.83937433  0.25955543  1
  Cu  Cu100  1  0.33489989  0.33661969  0.00522133  1
  Cu  Cu101  1  0.66895313  -0.00315454  -0.00505470  1
  Cu  Cu102  1  0.32143944  0.33122172  0.49210697  1
  Cu  Cu103  1  0.16338877  0.83980376  0.25563606  1
  Cu  Cu104  1  -0.00013154  0.66447378  -0.00530437  1
  Cu  Cu105  1  0.33506605  -0.00521592  0.50111089  1
  Cu  Cu106  1  0.83547322  0.16307124  0.75078820  1
  Cu  Cu107  1  0.49786178  0.16930040  0.25242749  1
  Cu  Cu108  1  0.82554886  0.83408222  0.74512195  1
  Cu  Cu109  1  0.84168584  0.84098747  0.24773252  1
  Cu  Cu110  1  -0.00142118  0.66929180  0.50420015  1
  Cu  Cu111  1  0.67267169  -0.00073790  0.49915463  1
  Cu  Cu112  1  0.67001366  0.66690124  -0.00203114  1
  Cu  Cu113  1  0.16361460  0.16629679  0.24909511  1
  Cu  Cu114  1  0.16928433  0.82697295  0.74980690  1
  Se  Se115  1  0.07990018  0.08305091  0.05894303  1
  Se  Se116  1  0.08748502  0.08895496  0.55049448  1
  Se  Se117  1  0.08752168  0.41559255  0.05573482  1
  Se  Se118  1  0.06784385  0.41270121  0.54846220  1
  Se  Se119  1  0.08013204  0.74784447  0.05191800  1
  Se  Se120  1  0.08692973  0.75249499  0.55276795  1
  Se  Se121  1  0.40737206  0.07175553  0.06007897  1
  Se  Se122  1  0.41386874  0.07385205  0.56490095  1
  Se  Se123  1  0.42406997  0.42034979  0.05156750  1
  Se  Se124  1  0.40138607  0.40531441  0.55738412  1
  Se  Se125  1  0.40715258  0.74548333  0.06518545  1
  Se  Se126  1  0.42144544  0.74380891  0.55064294  1
  Se  Se127  1  0.75212181  0.08233448  0.04661422  1
  Se  Se128  1  0.75298669  0.08592327  0.55063371  1
  Se  Se129  1  0.75982186  0.41942249  0.05613704  1
  Se  Se130  1  0.73878843  0.41390643  0.55884989  1
  Se  Se131  1  0.74954167  0.75345636  0.05123040  1
  Se  Se132  1  0.76524335  0.76267360  0.55177221  1
  Se  Se133  1  0.25206592  0.25138417  0.05617922  1
  Se  Se134  1  0.24281249  0.24399044  0.54548834  1
  Se  Se135  1  0.24973776  0.58206523  0.04940519  1
  Se  Se136  1  0.24084471  0.57735515  0.54623918  1
  Se  Se137  1  0.23498141  0.90654365  0.05656628  1
  Se  Se138  1  0.24693391  0.91644477  0.55440812  1
  Se  Se139  1  0.59383326  0.25760341  0.05883631  1
  Se  Se140  1  0.59269819  0.25593963  0.55672997  1
  Se  Se141  1  0.58389026  0.58438376  0.04965157  1
  Se  Se142  1  0.58907754  0.58850365  0.56366666  1
  Se  Se143  1  0.58838918  0.92175605  0.05784767  1
  Se  Se144  1  0.58666306  0.91733714  0.55098153  1
  Se  Se145  1  0.91623430  0.24640766  0.05705967  1
  Se  Se146  1  0.90109894  0.24684546  0.54509820  1
  Se  Se147  1  0.91792819  0.58122746  0.05024481  1
  Se  Se148  1  0.92106301  0.59162225  0.56897325  1
  Se  Se149  1  0.91206811  0.91250697  0.05233184  1
  Se  Se150  1  0.92208570  0.92153931  0.54836211  1
  Se  Se151  1  0.09147931  0.24086510  0.44262225  1
  Se  Se152  1  0.08708670  0.24854714  0.94950121  1
  Se  Se153  1  0.07696473  0.58314116  0.44980209  1
  Se  Se154  1  0.08678913  0.58157203  0.94454825  1
  Se  Se155  1  0.08758573  0.92061222  0.44516948  1
  Se  Se156  1  0.08112239  0.91675198  0.95108514  1
  Se  Se157  1  0.41190544  0.25312808  0.43754734  1
  Se  Se158  1  0.41103268  0.25751698  0.93933233  1
  Se  Se159  1  0.40456683  0.58327857  0.44073088  1
  Se  Se160  1  0.42302615  0.58795864  0.94294579  1
  Se  Se161  1  0.42465866  0.91579927  0.45060765  1
  Se  Se162  1  0.40218274  0.92572013  0.94607151  1
  Se  Se163  1  0.75605508  0.25423579  0.45073171  1
  Se  Se164  1  0.75652523  0.24865864  0.94769665  1
  Se  Se165  1  0.73679933  0.59489856  0.44457839  1
  Se  Se166  1  0.75488897  0.58193043  0.94733162  1
  Se  Se167  1  0.75711610  0.91717760  0.44541857  1
  Se  Se168  1  0.74749030  0.91203089  0.93937951  1
  Se  Se169  1  0.25686755  0.08123644  0.44561502  1
  Se  Se170  1  0.24597341  0.08946293  0.95978420  1
  Se  Se171  1  0.24222721  0.41702230  0.43885528  1
  Se  Se172  1  0.25342505  0.41707193  0.94623708  1
  Se  Se173  1  0.25798768  0.74671929  0.45766150  1
  Se  Se174  1  0.24964108  0.74792507  0.94561978  1
  Se  Se175  1  0.59252194  0.07843402  0.43675768  1
  Se  Se176  1  0.58433543  0.07933832  0.93959254  1
  Se  Se177  1  0.58405296  0.40843607  0.44367802  1
  Se  Se178  1  0.58798315  0.41940424  0.95178923  1
  Se  Se179  1  0.58278001  0.74863492  0.45509388  1
  Se  Se180  1  0.58923319  0.74600998  0.93560993  1
  Se  Se181  1  0.91714510  0.08646436  0.44173505  1
  Se  Se182  1  0.91815665  0.08331827  0.94478476  1
  Se  Se183  1  0.91722624  0.41708292  0.43836701  1
  Se  Se184  1  0.92227607  0.41453667  0.94964921  1
  Se  Se185  1  0.91867212  0.75262107  0.44806711  1
  Se  Se186  1  0.91372558  0.75160043  0.94817306  1
  Se  Se187  1  0.24812260  0.25296254  0.29946362  1
  Se  Se188  1  0.24431273  0.24871119  0.80865420  1
  Se  Se189  1  0.23747218  0.57808337  0.30898771  1
  Se  Se190  1  0.25506219  0.58384060  0.79898728  1
  Se  Se191  1  0.25141701  0.91894906  0.30823759  1
  Se  Se192  1  0.23833272  0.91345196  0.81298757  1
  Se  Se193  1  0.58458627  0.25077447  0.30241460  1
  Se  Se194  1  0.58234369  0.24252954  0.80757115  1
  Se  Se195  1  0.56991123  0.57042665  0.31097291  1
  Se  Se196  1  0.58576279  0.58679683  0.80393278  1
  Se  Se197  1  0.58389875  0.91335380  0.31345166  1
  Se  Se198  1  0.57170782  0.91115348  0.79464704  1
  Se  Se199  1  0.92005229  0.25321085  0.30199925  1
  Se  Se200  1  0.91956738  0.24710425  0.80230419  1
  Se  Se201  1  0.90311879  0.57447923  0.30761363  1
  Se  Se202  1  0.91527325  0.57721470  0.81692202  1
  Se  Se203  1  0.92587612  0.92129669  0.30062917  1
  Se  Se204  1  0.91080569  0.90907124  0.80557736  1
  Se  Se205  1  0.08101636  0.08177370  0.30252297  1
  Se  Se206  1  0.09347381  0.08930502  0.81176107  1
  Se  Se207  1  0.07801353  0.41458539  0.29992348  1
  Se  Se208  1  0.08627389  0.41362051  0.80062927  1
  Se  Se209  1  0.09370669  0.75311370  0.31751725  1
  Se  Se210  1  0.08574790  0.75427937  0.81218502  1
  Se  Se211  1  0.41355757  0.08292960  0.30037212  1
  Se  Se212  1  0.42085361  0.08903796  0.81522287  1
  Se  Se213  1  0.40970995  0.41047292  0.29513548  1
  Se  Se214  1  0.42381447  0.42319490  0.81305093  1
  Se  Se215  1  0.41607025  0.75754482  0.32021595  1
  Se  Se216  1  0.42271845  0.76758913  0.79885137  1
  Se  Se217  1  0.75492133  0.09079879  0.30986505  1
  Se  Se218  1  0.75193760  0.07964928  0.80233791  1
  Se  Se219  1  0.74476348  0.41102332  0.30293966  1
  Se  Se220  1  0.75667247  0.42036017  0.81692787  1
  Se  Se221  1  0.76049563  0.76225968  0.30830397  1
  Se  Se222  1  0.74949801  0.74784861  0.80131733  1
  Se  Se223  1  0.24725367  0.08096659  0.19697297  1
  Se  Se224  1  0.24604911  0.08835582  0.69387630  1
  Se  Se225  1  0.25172337  0.41389401  0.19474669  1
  Se  Se226  1  0.24357518  0.41779540  0.68076403  1
  Se  Se227  1  0.24007795  0.75144942  0.19774686  1
  Se  Se228  1  0.24852993  0.74655191  0.69326610  1
  Se  Se229  1  0.57663868  0.09389656  0.18628349  1
  Se  Se230  1  0.59207232  0.07801474  0.70187916  1
  Se  Se231  1  0.58849323  0.41489240  0.19338601  1
  Se  Se232  1  0.57198031  0.42286716  0.69329777  1
  Se  Se233  1  0.57211552  0.75690826  0.20143190  1
  Se  Se234  1  0.60292325  0.74044329  0.69152663  1
  Se  Se235  1  0.91730109  0.08107074  0.19799736  1
  Se  Se236  1  0.91461712  0.09098799  0.68363719  1
  Se  Se237  1  0.92076007  0.41471946  0.19672818  1
  Se  Se238  1  0.91567265  0.41073332  0.70083486  1
  Se  Se239  1  0.91512530  0.75295177  0.18955625  1
  Se  Se240  1  0.91420425  0.75734500  0.68953207  1
  Se  Se241  1  0.08041296  0.25214107  0.19773263  1
  Se  Se242  1  0.08090572  0.25062481  0.68875269  1
  Se  Se243  1  0.08697488  0.58078908  0.18925276  1
  Se  Se244  1  0.09126506  0.57613990  0.69064505  1
  Se  Se245  1  0.07993374  0.91745954  0.19855048  1
  Se  Se246  1  0.08895235  0.91135890  0.69413020  1
  Se  Se247  1  0.41566334  0.24938539  0.19416870  1
  Se  Se248  1  0.42271123  0.23874904  0.69360258  1
  Se  Se249  1  0.41935024  0.57695556  0.18656672  1
  Se  Se250  1  0.41333279  0.58720224  0.69523627  1
  Se  Se251  1  0.40902647  0.91862462  0.20391895  1
  Se  Se252  1  0.41491714  0.90810471  0.68247671  1
  Se  Se253  1  0.75055776  0.25141868  0.19719651  1
  Se  Se254  1  0.75749742  0.24327105  0.68707726  1
  Se  Se255  1  0.75394626  0.58131120  0.18976247  1
  Se  Se256  1  0.75283657  0.58349222  0.70645742  1
  Se  Se257  1  0.75599730  0.91358032  0.18620839  1
  Se  Se258  1  0.74855554  0.92207213  0.69153472  1
