# generated using pymatgen
data_In86Cu29Se144
_symmetry_space_group_name_H-M   'P 1'
_cell_length_a   17.56766089
_cell_length_b   17.57156561
_cell_length_c   23.43028278
_cell_angle_alpha   90.02575669
_cell_angle_beta   89.96560071
_cell_angle_gamma   89.99738320
_symmetry_Int_Tables_number   1
_chemical_formula_structural   In86Cu29Se144
_chemical_formula_sum   'In86 Cu29 Se144'
_cell_volume   7232.72254512
_cell_formula_units_Z   1
loop_
 _symmetry_equiv_pos_site_id
 _symmetry_equiv_pos_as_xyz
  1  'x, y, z'
loop_
 _atom_site_type_symbol
 _atom_site_label
 _atom_site_symmetry_multiplicity
 _atom_site_fract_x
 _atom_site_fract_y
 _atom_site_fract_z
 _atom_site_occupancy
  In  In0  1  -0.00199058  0.16182190  0.11468758  1
  In  In1  1  -0.00142023  0.16551789  0.62647352  1
  In  In2  1  -0.01067105  0.51985887  0.13082188  1
  In  In3  1  -0.00613807  0.50237764  0.62876349  1
  In  In4  1  -0.01483122  0.83685744  0.11951361  1
  In  In5  1  0.00362359  0.82792875  0.63016348  1
  In  In6  1  0.32925549  0.16205877  0.11684398  1
  In  In7  1  0.32807227  0.15282483  0.62084179  1
  In  In8  1  0.32804465  0.49653021  0.12378935  1
  In  In9  1  0.35084473  0.50514422  0.62750459  1
  In  In10  1  0.34871657  0.83353590  0.12242709  1
  In  In11  1  0.33484029  0.83574797  0.62945879  1
  In  In12  1  0.66896912  0.16877364  0.12413441  1
  In  In13  1  0.67139197  0.16710414  0.61410598  1
  In  In14  1  0.68022170  0.49547963  0.13434696  1
  In  In15  1  0.67566885  0.50386273  0.61943039  1
  In  In16  1  0.68371223  0.81544229  0.13993073  1
  In  In17  1  0.65689892  0.83430195  0.62500046  1
  In  In18  1  0.14335928  0.00836710  0.39496667  1
  In  In19  1  0.16591818  0.00250764  0.86759910  1
  In  In20  1  0.14806664  0.32280628  0.38454997  1
  In  In21  1  0.15178986  0.33962718  0.87186188  1
  In  In22  1  0.15713276  0.67722116  0.38187976  1
  In  In23  1  0.16512401  0.67095201  0.86780297  1
  In  In24  1  0.50360351  -0.00668730  0.38157537  1
  In  In25  1  0.50210510  0.01106176  0.87082835  1
  In  In26  1  0.51080949  0.32645618  0.37991067  1
  In  In27  1  0.49428524  0.32941360  0.87589289  1
  In  In28  1  0.50905845  0.65830967  0.38594821  1
  In  In29  1  0.50646205  0.66624146  0.86420700  1
  In  In30  1  0.82951081  0.01900462  0.37863555  1
  In  In31  1  0.84371422  -0.00535755  0.87802880  1
  In  In32  1  0.82407469  0.34188533  0.38291156  1
  In  In33  1  0.83780213  0.32472408  0.88202622  1
  In  In34  1  0.82163495  0.65460084  0.36460748  1
  In  In35  1  0.83034685  0.66060154  0.87608035  1
  In  In36  1  -0.02594860  0.18964869  0.41415377  1
  In  In37  1  0.00101258  0.17032749  0.87248310  1
  In  In38  1  -0.05089505  0.50243319  0.38476578  1
  In  In39  1  -0.00738111  0.48841122  0.86791566  1
  In  In40  1  0.00747360  0.83384766  0.38189717  1
  In  In41  1  -0.03006400  0.81570382  0.84822218  1
  In  In42  1  0.33173912  0.16978964  0.38155054  1
  In  In43  1  0.33822134  0.15544494  0.87552596  1
  In  In44  1  0.33382391  0.51881754  0.38166047  1
  In  In45  1  0.33492047  0.50383283  0.86533196  1
  In  In46  1  0.32654462  0.83705435  0.38552414  1
  In  In47  1  0.32842618  0.82908816  0.86538181  1
  In  In48  1  0.66454638  0.16721507  0.37187827  1
  In  In49  1  0.66293480  0.16613567  0.88356842  1
  In  In50  1  0.67287485  0.49704802  0.37538004  1
  In  In51  1  0.67948270  0.53229933  0.87142090  1
  In  In52  1  0.65924154  0.82551856  0.37156031  1
  In  In53  1  0.68506661  0.81978567  0.87960476  1
  In  In54  1  0.15359815  0.00315610  0.12048688  1
  In  In55  1  0.16544103  0.00494619  0.62399646  1
  In  In56  1  0.17064039  0.32658255  0.12166036  1
  In  In57  1  0.16304854  0.31732091  0.62188144  1
  In  In58  1  0.16412293  0.65714654  0.12348745  1
  In  In59  1  0.15767084  0.67812987  0.63142404  1
  In  In60  1  0.50345237  0.01057514  0.12283400  1
  In  In61  1  0.49594694  -0.01079904  0.61972199  1
  In  In62  1  0.51873773  0.34132637  0.12432407  1
  In  In63  1  0.50744508  0.33793303  0.61310541  1
  In  In64  1  0.51229685  0.67490959  0.12019367  1
  In  In65  1  0.50083891  0.66555747  0.62995044  1
  In  In66  1  0.82531302  -0.00993776  0.11790657  1
  In  In67  1  0.83174675  0.01059686  0.62664691  1
  In  In68  1  0.83212235  0.32859527  0.12249022  1
  In  In69  1  0.84363338  0.33471722  0.61365537  1
  In  In70  1  0.82766505  0.67355823  0.11855373  1
  In  In71  1  0.84501250  0.65950135  0.63459746  1
  In  In72  1  0.16606419  0.49836323  0.50524082  1
  In  In73  1  0.34081107  0.33622564  0.25030726  1
  In  In74  1  0.67030518  -0.00710906  0.75119964  1
  In  In75  1  0.32844611  0.33416791  0.74422320  1
  In  In76  1  0.50814182  0.83333843  -0.00650188  1
  In  In77  1  0.50532273  0.49548447  -0.00546847  1
  In  In78  1  0.16084151  0.83991514  -0.01634742  1
  In  In79  1  -0.00483588  0.00073330  0.25951690  1
  In  In80  1  0.66871226  0.33964020  0.74248337  1
  In  In81  1  0.83744631  0.83486397  0.50718258  1
  In  In82  1  -0.00737427  0.33909814  0.25689560  1
  In  In83  1  0.16122841  0.49522715  0.00145963  1
  In  In84  1  0.33239995  0.00071289  0.26544990  1
  In  In85  1  0.34308249  0.66918159  0.24418572  1
  Cu  Cu86  1  0.82895442  0.16782803  0.24964076  1
  Cu  Cu87  1  0.34156196  0.33725687  0.50003661  1
  Cu  Cu88  1  -0.00695234  0.66148797  0.50541352  1
  Cu  Cu89  1  0.16270898  0.82837310  0.25509971  1
  Cu  Cu90  1  0.16108017  0.16351737  0.25170219  1
  Cu  Cu91  1  0.66642791  0.00241749  0.49777643  1
  Cu  Cu92  1  0.15396363  0.50524373  0.25558025  1
  Cu  Cu93  1  0.49983515  0.83123322  0.74738835  1
  Cu  Cu94  1  0.50550715  0.83457544  0.25747882  1
  Cu  Cu95  1  0.51131238  0.50103195  0.25533320  1
  Cu  Cu96  1  -0.00537064  0.67176105  -0.00451197  1
  Cu  Cu97  1  0.66739673  0.33197597  0.49657513  1
  Cu  Cu98  1  0.84191408  0.16873893  0.75256536  1
  Cu  Cu99  1  0.66774225  0.66519081  0.49726451  1
  Cu  Cu100  1  0.32680863  0.00004414  -0.00373632  1
  Cu  Cu101  1  0.16157045  0.50543479  0.74660208  1
  Cu  Cu102  1  -0.00423461  0.33247277  -0.00253079  1
  Cu  Cu103  1  0.16966429  0.83944976  0.74640604  1
  Cu  Cu104  1  0.66716410  0.33212575  0.00274367  1
  Cu  Cu105  1  0.00037019  0.00665896  -0.00899344  1
  Cu  Cu106  1  0.51290956  0.17397808  0.24735000  1
  Cu  Cu107  1  0.66444169  0.00187096  0.00225888  1
  Cu  Cu108  1  0.33903010  0.67483107  0.50698862  1
  Cu  Cu109  1  0.49850423  0.16471289  0.74496968  1
  Cu  Cu110  1  0.33125738  0.32122701  -0.00419410  1
  Cu  Cu111  1  0.33772961  -0.00254606  0.50516998  1
  Cu  Cu112  1  0.16366398  0.16543077  0.74644642  1
  Cu  Cu113  1  0.83380265  0.49910567  0.74919604  1
  Cu  Cu114  1  0.83347969  0.83027548  0.24657872  1
  Se  Se115  1  0.08684492  0.08601869  0.04515966  1
  Se  Se116  1  0.10225499  0.10710930  0.55825307  1
  Se  Se117  1  0.06903696  0.41146702  0.06550880  1
  Se  Se118  1  0.07368336  0.40719180  0.55966182  1
  Se  Se119  1  0.08107054  0.74797656  0.05438209  1
  Se  Se120  1  0.07823899  0.74706758  0.55344584  1
  Se  Se121  1  0.41371342  0.07845844  0.05112693  1
  Se  Se122  1  0.42388685  0.08418848  0.55323521  1
  Se  Se123  1  0.40828028  0.40509127  0.05662302  1
  Se  Se124  1  0.42111425  0.42545371  0.55042466  1
  Se  Se125  1  0.41168105  0.73931005  0.04998102  1
  Se  Se126  1  0.42305045  0.75560622  0.56109439  1
  Se  Se127  1  0.75041319  0.08527208  0.05396887  1
  Se  Se128  1  0.75531967  0.08229749  0.54801453  1
  Se  Se129  1  0.74975603  0.41583836  0.05612958  1
  Se  Se130  1  0.75122720  0.41481394  0.55067700  1
  Se  Se131  1  0.75218348  0.76586368  0.05191727  1
  Se  Se132  1  0.74682368  0.74060649  0.56297712  1
  Se  Se133  1  0.24318815  0.24328278  0.04938054  1
  Se  Se134  1  0.26206516  0.25367222  0.55564971  1
  Se  Se135  1  0.26028562  0.59004294  0.05182737  1
  Se  Se136  1  0.25415457  0.59157776  0.56347735  1
  Se  Se137  1  0.25281407  0.91766024  0.05880422  1
  Se  Se138  1  0.25192479  0.91730037  0.55932640  1
  Se  Se139  1  0.58131071  0.24838118  0.05340713  1
  Se  Se140  1  0.58347321  0.24655981  0.54762246  1
  Se  Se141  1  0.59317488  0.58048237  0.05882465  1
  Se  Se142  1  0.58463080  0.58672545  0.55688479  1
  Se  Se143  1  0.59098515  0.91581462  0.06360129  1
  Se  Se144  1  0.58576737  0.91556407  0.54991199  1
  Se  Se145  1  0.91336984  0.24762564  0.05144377  1
  Se  Se146  1  0.90521530  0.22853628  0.55315809  1
  Se  Se147  1  0.91464282  0.58742594  0.05114511  1
  Se  Se148  1  0.90944041  0.57667509  0.55521652  1
  Se  Se149  1  0.91829330  0.92280082  0.04640653  1
  Se  Se150  1  0.92744252  0.92663315  0.56283909  1
  Se  Se151  1  0.10298482  0.22636420  0.46004473  1
  Se  Se152  1  0.08348550  0.25318097  0.94493388  1
  Se  Se153  1  0.07047093  0.57982099  0.44144905  1
  Se  Se154  1  0.07663339  0.58807601  0.93886206  1
  Se  Se155  1  0.09082832  0.89950131  0.45688996  1
  Se  Se156  1  0.06324996  0.91857423  0.92551299  1
  Se  Se157  1  0.42058147  0.24972955  0.44639915  1
  Se  Se158  1  0.41933856  0.24178615  0.94411025  1
  Se  Se159  1  0.41860539  0.58556690  0.45580130  1
  Se  Se160  1  0.41424764  0.58748065  0.93782110  1
  Se  Se161  1  0.41892589  0.91296598  0.44992434  1
  Se  Se162  1  0.40908549  0.92098960  0.93724244  1
  Se  Se163  1  0.74910328  0.24446341  0.44416738  1
  Se  Se164  1  0.74969454  0.24652060  0.94948162  1
  Se  Se165  1  0.75400373  0.58191453  0.44685688  1
  Se  Se166  1  0.76452849  0.57404088  0.95279205  1
  Se  Se167  1  0.74689830  0.91797376  0.43981615  1
  Se  Se168  1  0.74628369  0.92360425  0.94326602  1
  Se  Se169  1  0.25684924  0.07635346  0.44552164  1
  Se  Se170  1  0.24411934  0.08217721  0.94212392  1
  Se  Se171  1  0.25537229  0.41082961  0.43846760  1
  Se  Se172  1  0.25764991  0.41072090  0.93830515  1
  Se  Se173  1  0.24852294  0.74679072  0.45120210  1
  Se  Se174  1  0.25784381  0.74085388  0.94227375  1
  Se  Se175  1  0.58296397  0.08620685  0.44400808  1
  Se  Se176  1  0.57736635  0.08206167  0.94949198  1
  Se  Se177  1  0.58512743  0.42026315  0.44535321  1
  Se  Se178  1  0.59716667  0.40939093  0.93308965  1
  Se  Se179  1  0.58374705  0.75401110  0.45044267  1
  Se  Se180  1  0.59480527  0.73145247  0.94405585  1
  Se  Se181  1  0.94365747  0.05172325  0.44192336  1
  Se  Se182  1  0.91376447  0.09252533  0.94284658  1
  Se  Se183  1  0.94162635  0.38159037  0.44454899  1
  Se  Se184  1  0.91464848  0.41980962  0.94681422  1
  Se  Se185  1  0.91468034  0.74026332  0.44128712  1
  Se  Se186  1  0.91425547  0.75467930  0.93951733  1
  Se  Se187  1  0.24108303  0.24939075  0.30791399  1
  Se  Se188  1  0.24420623  0.24539828  0.80940671  1
  Se  Se189  1  0.24402676  0.58757786  0.30652964  1
  Se  Se190  1  0.24709802  0.58434636  0.80093052  1
  Se  Se191  1  0.23122718  0.91470988  0.31677623  1
  Se  Se192  1  0.25314142  0.92150920  0.80070984  1
  Se  Se193  1  0.59142029  0.25989968  0.30167619  1
  Se  Se194  1  0.58007110  0.24369578  0.80404322  1
  Se  Se195  1  0.58863263  0.58760888  0.30974017  1
  Se  Se196  1  0.57811622  0.57056584  0.79979280  1
  Se  Se197  1  0.58704773  0.92344625  0.30602634  1
  Se  Se198  1  0.58037835  0.90467090  0.81447855  1
  Se  Se199  1  0.91239495  0.23823214  0.31525098  1
  Se  Se200  1  0.91969982  0.25826517  0.80425905  1
  Se  Se201  1  0.92783064  0.59359088  0.30221928  1
  Se  Se202  1  0.91721287  0.58210818  0.80408737  1
  Se  Se203  1  0.90465832  0.90681210  0.31531615  1
  Se  Se204  1  0.91387639  0.93068844  0.79471902  1
  Se  Se205  1  0.07907582  0.09671576  0.31701038  1
  Se  Se206  1  0.07923507  0.08503285  0.80188946  1
  Se  Se207  1  0.08084351  0.42713023  0.32018132  1
  Se  Se208  1  0.08014828  0.41597326  0.79532052  1
  Se  Se209  1  0.07599113  0.74790255  0.30583678  1
  Se  Se210  1  0.08599550  0.75314658  0.79782818  1
  Se  Se211  1  0.42906309  0.09852272  0.30960949  1
  Se  Se212  1  0.41562407  0.08163884  0.79800330  1
  Se  Se213  1  0.42141361  0.42978459  0.31412534  1
  Se  Se214  1  0.42690700  0.41959966  0.80108812  1
  Se  Se215  1  0.42005862  0.75592247  0.31520230  1
  Se  Se216  1  0.41597315  0.74738350  0.80066419  1
  Se  Se217  1  0.74600856  0.08225862  0.30130935  1
  Se  Se218  1  0.75228511  0.09268854  0.80952717  1
  Se  Se219  1  0.76700259  0.42767110  0.30670200  1
  Se  Se220  1  0.75500899  0.41967686  0.81202594  1
  Se  Se221  1  0.74678163  0.75049785  0.30173967  1
  Se  Se222  1  0.75042621  0.74093006  0.80301216  1
  Se  Se223  1  0.24315552  0.08357309  0.19427497  1
  Se  Se224  1  0.25152880  0.08151098  0.69821226  1
  Se  Se225  1  0.23501766  0.42440929  0.19721440  1
  Se  Se226  1  0.23989378  0.42570147  0.68348325  1
  Se  Se227  1  0.24542734  0.76068473  0.18847700  1
  Se  Se228  1  0.25240180  0.75010555  0.69743882  1
  Se  Se229  1  0.58806715  0.08289962  0.19478035  1
  Se  Se230  1  0.58458369  0.08578552  0.68779039  1
  Se  Se231  1  0.59100910  0.41439983  0.20185710  1
  Se  Se232  1  0.57440132  0.42788066  0.68794619  1
  Se  Se233  1  0.58056553  0.74623001  0.20165014  1
  Se  Se234  1  0.58754861  0.74890669  0.69851033  1
  Se  Se235  1  0.91141886  0.08674527  0.19035954  1
  Se  Se236  1  0.91941962  0.08152674  0.69862807  1
  Se  Se237  1  0.90575780  0.42591142  0.19371008  1
  Se  Se238  1  0.91169703  0.41230689  0.69377990  1
  Se  Se239  1  0.91716875  0.75043762  0.19135679  1
  Se  Se240  1  0.91954138  0.75026297  0.69971906  1
  Se  Se241  1  0.08120413  0.24519144  0.19221777  1
  Se  Se242  1  0.07940240  0.25142333  0.69800163  1
  Se  Se243  1  0.07994894  0.59283371  0.19976630  1
  Se  Se244  1  0.07569913  0.58824222  0.69547275  1
  Se  Se245  1  0.08488961  0.91116487  0.19354641  1
  Se  Se246  1  0.08424324  0.92035901  0.69347943  1
  Se  Se247  1  0.42241708  0.24331610  0.18673628  1
  Se  Se248  1  0.42389507  0.24846513  0.68465400  1
  Se  Se249  1  0.43080568  0.57074280  0.18737377  1
  Se  Se250  1  0.41193584  0.59258194  0.70126146  1
  Se  Se251  1  0.42363457  0.91545520  0.19855350  1
  Se  Se252  1  0.41883315  0.92075375  0.69869973  1
  Se  Se253  1  0.74942226  0.25244180  0.19515582  1
  Se  Se254  1  0.75809242  0.24229497  0.68973599  1
  Se  Se255  1  0.74335555  0.60172294  0.19251608  1
  Se  Se256  1  0.74865804  0.58137742  0.69674740  1
  Se  Se257  1  0.75111292  0.92193260  0.19921271  1
  Se  Se258  1  0.75974566  0.90611177  0.68985838  1
