# generated using pymatgen
data_In86Cu29Se144
_symmetry_space_group_name_H-M   'P 1'
_cell_length_a   17.57886283
_cell_length_b   17.58568918
_cell_length_c   23.44250437
_cell_angle_alpha   89.99987645
_cell_angle_beta   90.00464924
_cell_angle_gamma   89.99494280
_symmetry_Int_Tables_number   1
_chemical_formula_structural   In86Cu29Se144
_chemical_formula_sum   'In86 Cu29 Se144'
_cell_volume   7246.93177521
_cell_formula_units_Z   1
loop_
 _symmetry_equiv_pos_site_id
 _symmetry_equiv_pos_as_xyz
  1  'x, y, z'
loop_
 _atom_site_type_symbol
 _atom_site_label
 _atom_site_symmetry_multiplicity
 _atom_site_fract_x
 _atom_site_fract_y
 _atom_site_fract_z
 _atom_site_occupancy
  In  In0  1  0.00259094  0.16622944  0.12331382  1
  In  In1  1  -0.00818780  0.15912223  0.62553613  1
  In  In2  1  0.01450411  0.48962193  0.13488641  1
  In  In3  1  0.01272908  0.51490884  0.60999391  1
  In  In4  1  0.00689891  0.83844922  0.12936633  1
  In  In5  1  0.00739833  0.83140935  0.62637571  1
  In  In6  1  0.31063091  0.18524981  0.13115029  1
  In  In7  1  0.33931667  0.15557426  0.63059257  1
  In  In8  1  0.32568942  0.50475138  0.13237097  1
  In  In9  1  0.32239875  0.50755991  0.62351865  1
  In  In10  1  0.29045547  0.86399837  0.16643635  1
  In  In11  1  0.33263185  0.83938244  0.61650595  1
  In  In12  1  0.67828025  0.16738228  0.12443852  1
  In  In13  1  0.65635705  0.16118856  0.62224333  1
  In  In14  1  0.65897206  0.50447567  0.13537914  1
  In  In15  1  0.66550720  0.48753320  0.61516058  1
  In  In16  1  0.67027899  0.81942276  0.12783386  1
  In  In17  1  0.66938163  0.84801495  0.62441380  1
  In  In18  1  0.16408059  -0.01337997  0.36395783  1
  In  In19  1  0.16834377  -0.00396015  0.87337910  1
  In  In20  1  0.17211308  0.34312344  0.36480493  1
  In  In21  1  0.18202021  0.32077833  0.89325957  1
  In  In22  1  0.16935397  0.67444127  0.36780238  1
  In  In23  1  0.16214858  0.67497730  0.88942719  1
  In  In24  1  0.48828711  0.00821026  0.38481150  1
  In  In25  1  0.49333695  -0.00277468  0.86696075  1
  In  In26  1  0.49184715  0.32242886  0.36957253  1
  In  In27  1  0.48156835  0.33551022  0.87187496  1
  In  In28  1  0.50351632  0.67270091  0.37819304  1
  In  In29  1  0.50092288  0.66347388  0.87467457  1
  In  In30  1  0.84453078  -0.00912379  0.37418006  1
  In  In31  1  0.84255479  -0.00440614  0.87545949  1
  In  In32  1  0.84655718  0.34561314  0.36258783  1
  In  In33  1  0.82354592  0.32627417  0.88032098  1
  In  In34  1  0.82422997  0.65804186  0.36794264  1
  In  In35  1  0.85137606  0.66762737  0.87910041  1
  In  In36  1  0.00232903  0.16775809  0.36293273  1
  In  In37  1  0.01171620  0.15381973  0.88517430  1
  In  In38  1  0.00079391  0.50488715  0.36757705  1
  In  In39  1  0.01323661  0.51256123  0.87722486  1
  In  In40  1  0.01659541  0.83774959  0.35826982  1
  In  In41  1  -0.00306531  0.84248686  0.87936826  1
  In  In42  1  0.33604433  0.17267146  0.36941077  1
  In  In43  1  0.32627175  0.16226528  0.87329492  1
  In  In44  1  0.32603016  0.49192278  0.37087987  1
  In  In45  1  0.32792659  0.48658765  0.87285673  1
  In  In46  1  0.32880368  0.83375420  0.37440546  1
  In  In47  1  0.31860918  0.84314579  0.87792880  1
  In  In48  1  0.65135667  0.16237404  0.37568330  1
  In  In49  1  0.68185747  0.16506792  0.88143547  1
  In  In50  1  0.68051516  0.51475360  0.37258072  1
  In  In51  1  0.66289093  0.49452379  0.87271807  1
  In  In52  1  0.66096666  0.81299649  0.37749128  1
  In  In53  1  0.67541686  0.84828424  0.86718621  1
  In  In54  1  0.15916267  0.00094970  0.12662681  1
  In  In55  1  0.17725444  -0.01445051  0.64391021  1
  In  In56  1  0.16921322  0.32999658  0.12166094  1
  In  In57  1  0.17056056  0.34963351  0.62464282  1
  In  In58  1  0.16933975  0.67199499  0.13306530  1
  In  In59  1  0.18235393  0.67861879  0.60057841  1
  In  In60  1  0.49021044  -0.01373917  0.12477641  1
  In  In61  1  0.49672247  -0.00046075  0.62306466  1
  In  In62  1  0.48958463  0.34437499  0.13597833  1
  In  In63  1  0.50250916  0.31891149  0.62164724  1
  In  In64  1  0.49431487  0.67022843  0.13716950  1
  In  In65  1  0.48167857  0.67712531  0.60990514  1
  In  In66  1  0.84867583  0.00864990  0.11760816  1
  In  In67  1  0.83908749  -0.01649001  0.64517908  1
  In  In68  1  0.83936248  0.32700466  0.13224477  1
  In  In69  1  0.82578339  0.33509038  0.62057549  1
  In  In70  1  0.82983701  0.67443192  0.13210974  1
  In  In71  1  0.84528368  0.66682792  0.61516821  1
  In  In72  1  0.49569031  0.16200672  -0.00377719  1
  In  In73  1  0.82581023  0.16754494  0.50396106  1
  In  In74  1  0.50037970  0.50013597  0.49314403  1
  In  In75  1  0.66092400  0.32225121  0.74511558  1
  In  In76  1  0.66772659  0.00104057  0.25231237  1
  In  In77  1  0.66414298  0.66858362  0.74739082  1
  In  In78  1  0.49991855  0.82213913  0.00320501  1
  In  In79  1  0.84237615  0.49520112  0.00562012  1
  In  In80  1  0.83144099  0.82722815  0.49534150  1
  In  In81  1  0.33191728  0.67142802  0.74021802  1
  In  In82  1  0.16836550  0.16459796  0.49905022  1
  In  In83  1  0.49247294  0.50195072  0.00518942  1
  In  In84  1  0.00697436  0.67460996  0.74848236  1
  In  In85  1  0.00498826  0.33293212  0.75124115  1
  Cu  Cu86  1  0.66360550  0.32826210  0.00584208  1
  Cu  Cu87  1  0.00279553  -0.00230189  0.00073768  1
  Cu  Cu88  1  0.33097761  -0.00374851  0.50162036  1
  Cu  Cu89  1  0.83418544  0.17055544  0.24494404  1
  Cu  Cu90  1  0.83714091  0.15540243  0.75814440  1
  Cu  Cu91  1  0.00511471  -0.00329091  0.49713929  1
  Cu  Cu92  1  0.16211546  0.49993239  0.24894760  1
  Cu  Cu93  1  0.00189095  0.66696775  0.48811632  1
  Cu  Cu94  1  0.33558050  0.33006750  0.49430704  1
  Cu  Cu95  1  0.50186422  0.49666601  0.26052293  1
  Cu  Cu96  1  0.32294085  0.00073190  0.00557302  1
  Cu  Cu97  1  0.67989256  -0.00555188  -0.00116507  1
  Cu  Cu98  1  0.83528963  0.49600849  0.73933729  1
  Cu  Cu99  1  0.00208079  0.34527658  0.49056499  1
  Cu  Cu100  1  0.49961211  0.83160732  0.25606566  1
  Cu  Cu101  1  0.16552201  0.16395677  0.24618316  1
  Cu  Cu102  1  0.67822991  0.66936723  0.00228488  1
  Cu  Cu103  1  0.67326467  0.33707831  0.49386455  1
  Cu  Cu104  1  0.49161073  0.83576768  0.74407654  1
  Cu  Cu105  1  0.65960087  -0.00172407  0.50296472  1
  Cu  Cu106  1  0.83154756  0.50537879  0.24798965  1
  Cu  Cu107  1  0.49757009  0.16573752  0.24945880  1
  Cu  Cu108  1  0.16625657  0.17076275  0.75852657  1
  Cu  Cu109  1  0.32813089  0.67046227  0.01149440  1
  Cu  Cu110  1  0.49780525  0.16266553  0.74728311  1
  Cu  Cu111  1  0.00577528  0.67058002  0.00928293  1
  Cu  Cu112  1  0.17282998  0.50423302  0.74924688  1
  Cu  Cu113  1  -0.00016283  0.33069374  0.00826432  1
  Cu  Cu114  1  0.83882292  0.83630140  0.25085654  1
  Se  Se115  1  0.08442000  0.08407006  0.05311103  1
  Se  Se116  1  0.08136050  0.07492133  0.56110912  1
  Se  Se117  1  0.08450580  0.41780429  0.05475197  1
  Se  Se118  1  0.08918188  0.41875407  0.54829809  1
  Se  Se119  1  0.09021999  0.75427071  0.06030959  1
  Se  Se120  1  0.07516391  0.75259391  0.54812843  1
  Se  Se121  1  0.40709696  0.07978497  0.06305950  1
  Se  Se122  1  0.41467071  0.08332378  0.55265794  1
  Se  Se123  1  0.40166110  0.40918770  0.05849861  1
  Se  Se124  1  0.41365944  0.41028242  0.55792791  1
  Se  Se125  1  0.40649836  0.75220315  0.07027260  1
  Se  Se126  1  0.38237799  0.73771137  0.54510910  1
  Se  Se127  1  0.75341267  0.08437845  0.05312735  1
  Se  Se128  1  0.74989378  0.06628841  0.56453031  1
  Se  Se129  1  0.74080006  0.41502031  0.06324636  1
  Se  Se130  1  0.75809655  0.41901548  0.54547731  1
  Se  Se131  1  0.75895665  0.75418605  0.05361647  1
  Se  Se132  1  0.73954028  0.74447636  0.55887810  1
  Se  Se133  1  0.24334217  0.24733547  0.04714938  1
  Se  Se134  1  0.25669348  0.25451673  0.56070502  1
  Se  Se135  1  0.24515592  0.58327125  0.06040024  1
  Se  Se136  1  0.24005196  0.56673974  0.54579928  1
  Se  Se137  1  0.25176666  0.91332838  0.06529261  1
  Se  Se138  1  0.23886903  0.92323324  0.55514711  1
  Se  Se139  1  0.57766892  0.25336622  0.06402084  1
  Se  Se140  1  0.59289879  0.25245199  0.54920033  1
  Se  Se141  1  0.58867276  0.59519852  0.05856788  1
  Se  Se142  1  0.58621433  0.58956775  0.55747577  1
  Se  Se143  1  0.59413924  0.91893427  0.05810491  1
  Se  Se144  1  0.57631326  0.91240029  0.55360621  1
  Se  Se145  1  0.91216913  0.24817394  0.05650677  1
  Se  Se146  1  0.92799357  0.26122315  0.55388533  1
  Se  Se147  1  0.92485114  0.58733349  0.06729440  1
  Se  Se148  1  0.91812874  0.58415429  0.54234773  1
  Se  Se149  1  0.92143241  0.91213234  0.05467251  1
  Se  Se150  1  0.91675242  0.92267573  0.55669678  1
  Se  Se151  1  0.07931105  0.25464727  0.43717509  1
  Se  Se152  1  0.08190899  0.24766936  0.95236646  1
  Se  Se153  1  0.08689700  0.58495369  0.43557852  1
  Se  Se154  1  0.08595999  0.58373241  0.95616681  1
  Se  Se155  1  0.08264626  0.91451614  0.43993531  1
  Se  Se156  1  0.08826340  0.91600345  0.94692099  1
  Se  Se157  1  0.41858530  0.24311183  0.44623699  1
  Se  Se158  1  0.40283817  0.25773916  0.94636928  1
  Se  Se159  1  0.40524379  0.58626640  0.43796750  1
  Se  Se160  1  0.40469535  0.59452614  0.94408830  1
  Se  Se161  1  0.41389736  0.91265773  0.44759457  1
  Se  Se162  1  0.41318072  0.92435472  0.94839212  1
  Se  Se163  1  0.75029857  0.25428928  0.43244890  1
  Se  Se164  1  0.75259331  0.24733786  0.95672859  1
  Se  Se165  1  0.75136842  0.59170915  0.44937402  1
  Se  Se166  1  0.74877848  0.58219771  0.94070407  1
  Se  Se167  1  0.74001256  0.92422798  0.43857993  1
  Se  Se168  1  0.75901036  0.90961956  0.94505720  1
  Se  Se169  1  0.25372946  0.07466344  0.43641569  1
  Se  Se170  1  0.24687435  0.08205525  0.94509182  1
  Se  Se171  1  0.24812926  0.41127220  0.44497406  1
  Se  Se172  1  0.23772997  0.43446024  0.94851996  1
  Se  Se173  1  0.24004592  0.75795329  0.44297573  1
  Se  Se174  1  0.25289221  0.75653407  0.95253838  1
  Se  Se175  1  0.57878118  0.08635874  0.45255415  1
  Se  Se176  1  0.59024777  0.06885088  0.94100357  1
  Se  Se177  1  0.58955050  0.41064843  0.43183479  1
  Se  Se178  1  0.58444237  0.40662253  0.94411454  1
  Se  Se179  1  0.58108444  0.74769507  0.45396983  1
  Se  Se180  1  0.59726283  0.74367799  0.93784088  1
  Se  Se181  1  0.92483559  0.08348066  0.44335471  1
  Se  Se182  1  0.91518260  0.08137001  0.94897564  1
  Se  Se183  1  0.91505043  0.42537735  0.43998562  1
  Se  Se184  1  0.92850584  0.40854982  0.93785429  1
  Se  Se185  1  0.92332171  0.75025468  0.42863882  1
  Se  Se186  1  0.92427501  0.74981995  0.95057568  1
  Se  Se187  1  0.24780576  0.24855912  0.30109644  1
  Se  Se188  1  0.25002349  0.25758563  0.80751781  1
  Se  Se189  1  0.24824342  0.57920116  0.30296859  1
  Se  Se190  1  0.24447184  0.59085193  0.81156978  1
  Se  Se191  1  0.26066254  0.91869483  0.29765588  1
  Se  Se192  1  0.25614359  0.92392025  0.80119678  1
  Se  Se193  1  0.58412782  0.24718946  0.30100178  1
  Se  Se194  1  0.57572197  0.23828270  0.81501447  1
  Se  Se195  1  0.58332042  0.58692298  0.30823682  1
  Se  Se196  1  0.57351080  0.57107472  0.80321584  1
  Se  Se197  1  0.57923751  0.91516703  0.31601753  1
  Se  Se198  1  0.57739347  0.91348717  0.80094867  1
  Se  Se199  1  0.92099672  0.25325279  0.29653257  1
  Se  Se200  1  0.91377812  0.24450212  0.81323656  1
  Se  Se201  1  0.91713175  0.58874556  0.29904184  1
  Se  Se202  1  0.91428178  0.57278287  0.80192882  1
  Se  Se203  1  0.92331470  0.92372970  0.29754695  1
  Se  Se204  1  0.91530662  0.90971248  0.80359899  1
  Se  Se205  1  0.08372315  0.07935972  0.30000959  1
  Se  Se206  1  0.08303128  0.08272118  0.80562411  1
  Se  Se207  1  0.07660535  0.41346659  0.29896308  1
  Se  Se208  1  0.09464272  0.42314798  0.81052157  1
  Se  Se209  1  0.08786824  0.74690579  0.29159791  1
  Se  Se210  1  0.09472426  0.76015954  0.81141448  1
  Se  Se211  1  0.41748437  0.08180128  0.30468101  1
  Se  Se212  1  0.41162539  0.08426174  0.80327650  1
  Se  Se213  1  0.41214164  0.41019802  0.30356396  1
  Se  Se214  1  0.42294159  0.42882610  0.80159830  1
  Se  Se215  1  0.41609814  0.74811948  0.30835398  1
  Se  Se216  1  0.41971947  0.75649206  0.81039109  1
  Se  Se217  1  0.76049952  0.09140679  0.31200784  1
  Se  Se218  1  0.74853140  0.07735162  0.80956474  1
  Se  Se219  1  0.74829670  0.42162935  0.30198453  1
  Se  Se220  1  0.75756448  0.41815810  0.80203162  1
  Se  Se221  1  0.75113297  0.75453131  0.30164256  1
  Se  Se222  1  0.76052078  0.74655979  0.80972466  1
  Se  Se223  1  0.25047420  0.08084291  0.19446962  1
  Se  Se224  1  0.24871221  0.08831481  0.70212392  1
  Se  Se225  1  0.24501237  0.41355048  0.19604829  1
  Se  Se226  1  0.25627898  0.41870265  0.69861548  1
  Se  Se227  1  0.27468023  0.72681921  0.20012956  1
  Se  Se228  1  0.23601941  0.75989581  0.68688458  1
  Se  Se229  1  0.57668306  0.08588485  0.18709187  1
  Se  Se230  1  0.58193472  0.07987108  0.69486798  1
  Se  Se231  1  0.58390473  0.41485707  0.20272707  1
  Se  Se232  1  0.57599223  0.42013072  0.68991437  1
  Se  Se233  1  0.58474966  0.75113914  0.20167629  1
  Se  Se234  1  0.57009035  0.75353913  0.68526249  1
  Se  Se235  1  0.91934123  0.08494590  0.19557606  1
  Se  Se236  1  0.92299706  0.07939033  0.70179516  1
  Se  Se237  1  0.91468681  0.41867250  0.19742752  1
  Se  Se238  1  0.92209214  0.42147210  0.68210316  1
  Se  Se239  1  0.92056887  0.75308068  0.19650933  1
  Se  Se240  1  0.90515479  0.75651187  0.69233378  1
  Se  Se241  1  0.08409222  0.25008943  0.19220384  1
  Se  Se242  1  0.09241167  0.24356903  0.68742644  1
  Se  Se243  1  0.08037707  0.58918178  0.19953394  1
  Se  Se244  1  0.09751741  0.58603169  0.68712368  1
  Se  Se245  1  0.09696315  0.90801531  0.20025678  1
  Se  Se246  1  0.06606386  0.92430798  0.69827636  1
  Se  Se247  1  0.41210981  0.24911000  0.19723272  1
  Se  Se248  1  0.41736300  0.24969679  0.69557160  1
  Se  Se249  1  0.42080476  0.57458673  0.20007684  1
  Se  Se250  1  0.42645739  0.57950935  0.68681113  1
  Se  Se251  1  0.41901654  0.92017510  0.20578192  1
  Se  Se252  1  0.40923514  0.91876423  0.69084193  1
  Se  Se253  1  0.74404162  0.25364797  0.19912623  1
  Se  Se254  1  0.76192615  0.23370364  0.69136475  1
  Se  Se255  1  0.74534369  0.58974718  0.19818337  1
  Se  Se256  1  0.75405504  0.57751008  0.68368449  1
  Se  Se257  1  0.75729380  0.91620624  0.18869712  1
  Se  Se258  1  0.74045381  0.91328510  0.70596204  1
