# generated using pymatgen
data_In86Cu29Se144
_symmetry_space_group_name_H-M   'P 1'
_cell_length_a   17.58778847
_cell_length_b   17.58778430
_cell_length_c   23.44254275
_cell_angle_alpha   89.98747186
_cell_angle_beta   90.01777560
_cell_angle_gamma   90.00080981
_symmetry_Int_Tables_number   1
_chemical_formula_structural   In86Cu29Se144
_chemical_formula_sum   'In86 Cu29 Se144'
_cell_volume   7251.48661512
_cell_formula_units_Z   1
loop_
 _symmetry_equiv_pos_site_id
 _symmetry_equiv_pos_as_xyz
  1  'x, y, z'
loop_
 _atom_site_type_symbol
 _atom_site_label
 _atom_site_symmetry_multiplicity
 _atom_site_fract_x
 _atom_site_fract_y
 _atom_site_fract_z
 _atom_site_occupancy
  In  In0  1  0.01230403  0.17161069  0.12236393  1
  In  In1  1  -0.00665015  0.16116725  0.62319115  1
  In  In2  1  0.00271977  0.49103114  0.12694451  1
  In  In3  1  0.00690259  0.52229515  0.60849204  1
  In  In4  1  0.00002454  0.83464054  0.11513145  1
  In  In5  1  -0.00772375  0.83789838  0.63162928  1
  In  In6  1  0.33036613  0.16440758  0.11328639  1
  In  In7  1  0.31465307  0.18355354  0.64656768  1
  In  In8  1  0.33037609  0.51082382  0.12679536  1
  In  In9  1  0.31327950  0.50977623  0.64303002  1
  In  In10  1  0.32387250  0.83872954  0.12032460  1
  In  In11  1  0.33199830  0.82987963  0.63298799  1
  In  In12  1  0.66400556  0.17119913  0.12931518  1
  In  In13  1  0.68316366  0.16130384  0.62084826  1
  In  In14  1  0.65968861  0.49479298  0.12928326  1
  In  In15  1  0.67744103  0.49835657  0.62059434  1
  In  In16  1  0.68250776  0.83169463  0.12242563  1
  In  In17  1  0.65221479  0.83016586  0.60226574  1
  In  In18  1  0.18018805  0.00566670  0.38022983  1
  In  In19  1  0.16602163  -0.00083255  0.86639832  1
  In  In20  1  0.15106708  0.34437536  0.38483953  1
  In  In21  1  0.17661613  0.32200156  0.88009599  1
  In  In22  1  0.16297739  0.64181055  0.37652704  1
  In  In23  1  0.16915916  0.66592008  0.87324775  1
  In  In24  1  0.50430422  -0.02015911  0.38224011  1
  In  In25  1  0.50459223  0.01872456  0.87873357  1
  In  In26  1  0.50008797  0.31947238  0.37285506  1
  In  In27  1  0.49166713  0.32339338  0.86888912  1
  In  In28  1  0.50091734  0.67830761  0.38014530  1
  In  In29  1  0.49373745  0.65446869  0.86361278  1
  In  In30  1  0.81743899  0.00562760  0.39543723  1
  In  In31  1  0.83071373  -0.01819693  0.87466091  1
  In  In32  1  0.83773757  0.33268247  0.37593128  1
  In  In33  1  0.83222000  0.34772934  0.86831599  1
  In  In34  1  0.83529159  0.66539918  0.40039512  1
  In  In35  1  0.84468248  0.67992423  0.86233479  1
  In  In36  1  -0.01085342  0.17489392  0.38175074  1
  In  In37  1  0.02245465  0.16760171  0.86688180  1
  In  In38  1  0.01221983  0.49175802  0.39045512  1
  In  In39  1  0.00609897  0.51766765  0.86816067  1
  In  In40  1  -0.01256840  0.82207370  0.38089859  1
  In  In41  1  0.00084558  0.83583802  0.86939632  1
  In  In42  1  0.33009513  0.15759918  0.38086212  1
  In  In43  1  0.33092610  0.16854753  0.86882780  1
  In  In44  1  0.30850723  0.50560556  0.37780658  1
  In  In45  1  0.31429849  0.48384139  0.85637781  1
  In  In46  1  0.34498922  0.83023064  0.37734071  1
  In  In47  1  0.32459019  0.81766554  0.86399992  1
  In  In48  1  0.67741007  0.17401487  0.36632263  1
  In  In49  1  0.65313034  0.16075019  0.87646545  1
  In  In50  1  0.68145959  0.49787949  0.38087219  1
  In  In51  1  0.66336492  0.49791776  0.86193961  1
  In  In52  1  0.66327981  0.83154356  0.38820897  1
  In  In53  1  0.68204082  0.83788762  0.87437200  1
  In  In54  1  0.16910873  0.00162981  0.11134434  1
  In  In55  1  0.15164304  0.01625376  0.64646406  1
  In  In56  1  0.16673620  0.33255779  0.12158054  1
  In  In57  1  0.16695575  0.34378137  0.62880635  1
  In  In58  1  0.16995420  0.67258690  0.11702492  1
  In  In59  1  0.16536659  0.65584801  0.63657779  1
  In  In60  1  0.50076280  0.00990714  0.12216985  1
  In  In61  1  0.50030812  -0.01279233  0.62048706  1
  In  In62  1  0.51002227  0.32987665  0.12733982  1
  In  In63  1  0.49727872  0.33751461  0.63081781  1
  In  In64  1  0.49673730  0.65321211  0.12351182  1
  In  In65  1  0.49394087  0.67741912  0.62596992  1
  In  In66  1  0.83416566  -0.01132332  0.12719351  1
  In  In67  1  0.83255535  0.00674129  0.61548677  1
  In  In68  1  0.83531443  0.33422298  0.13735419  1
  In  In69  1  0.82824344  0.32779349  0.61960799  1
  In  In70  1  0.82810920  0.67597978  0.12214507  1
  In  In71  1  0.82891700  0.67341092  0.61758759  1
  In  In72  1  0.66819836  0.66136334  0.25570303  1
  In  In73  1  0.33247513  0.33458644  0.24901083  1
  In  In74  1  -0.00239339  0.34045536  0.74729571  1
  In  In75  1  0.33916800  0.00012170  0.24397451  1
  In  In76  1  0.00008090  0.66291781  0.25827736  1
  In  In77  1  0.49751890  0.50270936  0.50927770  1
  In  In78  1  0.16574814  0.83355468  0.50635210  1
  In  In79  1  0.83802721  0.50443709  0.00146759  1
  In  In80  1  0.49657500  0.49546089  0.00269919  1
  In  In81  1  0.83555154  0.16219187  -0.00203156  1
  In  In82  1  0.50110289  0.83577724  -0.00630717  1
  In  In83  1  0.49777879  0.15857859  0.50151592  1
  In  In84  1  -0.00147958  0.00183405  0.25058990  1
  In  In85  1  0.66730110  -0.00121785  0.74759791  1
  Cu  Cu86  1  0.67837999  0.67255229  -0.00908469  1
  Cu  Cu87  1  0.01027630  0.33579490  -0.00049015  1
  Cu  Cu88  1  0.00329253  -0.00150059  -0.00688000  1
  Cu  Cu89  1  0.31908773  0.33667583  0.50776826  1
  Cu  Cu90  1  0.00916131  0.00354106  0.50578360  1
  Cu  Cu91  1  0.32740359  0.66703957  0.50926615  1
  Cu  Cu92  1  0.83132059  0.16706909  0.25742152  1
  Cu  Cu93  1  0.00408605  0.67631950  -0.00905508  1
  Cu  Cu94  1  0.16279702  0.82804263  0.75024734  1
  Cu  Cu95  1  0.32689747  0.00482737  0.50917094  1
  Cu  Cu96  1  0.82941812  0.82970982  0.74307231  1
  Cu  Cu97  1  0.16250622  0.17592380  0.25009240  1
  Cu  Cu98  1  0.66902677  0.32732896  0.49627801  1
  Cu  Cu99  1  0.50962457  0.50646362  0.74117877  1
  Cu  Cu100  1  0.16902921  0.82822128  0.24419664  1
  Cu  Cu101  1  0.50488833  0.83185052  0.74635902  1
  Cu  Cu102  1  0.32912821  0.00127996  -0.00970814  1
  Cu  Cu103  1  0.50929805  0.16062849  0.25000997  1
  Cu  Cu104  1  0.82922220  0.83437240  0.25475840  1
  Cu  Cu105  1  0.83896233  0.49517982  0.25913564  1
  Cu  Cu106  1  0.33045034  0.32944258  -0.00760086  1
  Cu  Cu107  1  0.82899660  0.50402521  0.74152104  1
  Cu  Cu108  1  0.50186976  0.16997328  0.75141235  1
  Cu  Cu109  1  0.50748419  0.82591842  0.25614492  1
  Cu  Cu110  1  0.49707597  0.49537897  0.24932152  1
  Cu  Cu111  1  0.83457243  0.16580735  0.74333213  1
  Cu  Cu112  1  -0.00356933  0.32696429  0.50541797  1
  Cu  Cu113  1  0.32791739  0.66385358  -0.00582722  1
  Cu  Cu114  1  0.66251004  0.32653163  0.00139244  1
  Se  Se115  1  0.08076304  0.08537058  0.04902844  1
  Se  Se116  1  0.09083118  0.08549260  0.55955610  1
  Se  Se117  1  0.08832819  0.42234875  0.05325513  1
  Se  Se118  1  0.07990376  0.41390037  0.55537582  1
  Se  Se119  1  0.08734642  0.75643587  0.04908940  1
  Se  Se120  1  0.08056925  0.74563236  0.56858286  1
  Se  Se121  1  0.41332363  0.07773250  0.04902387  1
  Se  Se122  1  0.40478971  0.08648273  0.56963817  1
  Se  Se123  1  0.40595691  0.40375133  0.06270406  1
  Se  Se124  1  0.40097345  0.41658112  0.56566431  1
  Se  Se125  1  0.41294678  0.74089018  0.05458477  1
  Se  Se126  1  0.41019043  0.75649867  0.55504644  1
  Se  Se127  1  0.74774997  0.07893530  0.06218534  1
  Se  Se128  1  0.74276901  0.07685397  0.54472474  1
  Se  Se129  1  0.74479126  0.40917705  0.05868551  1
  Se  Se130  1  0.75060310  0.41284037  0.54817284  1
  Se  Se131  1  0.75841909  0.75573104  0.04569719  1
  Se  Se132  1  0.76803647  0.77494872  0.54795449  1
  Se  Se133  1  0.24567711  0.24957033  0.05024633  1
  Se  Se134  1  0.24373170  0.24900981  0.56261593  1
  Se  Se135  1  0.24876918  0.58040184  0.05122152  1
  Se  Se136  1  0.24565648  0.58100733  0.55989737  1
  Se  Se137  1  0.24938753  0.91516430  0.04477644  1
  Se  Se138  1  0.24628779  0.92570066  0.56975011  1
  Se  Se139  1  0.57956953  0.24424147  0.05415908  1
  Se  Se140  1  0.58514713  0.25503145  0.55880227  1
  Se  Se141  1  0.59936420  0.59100251  0.05213109  1
  Se  Se142  1  0.58977653  0.59581843  0.56022551  1
  Se  Se143  1  0.58865943  0.91784935  0.05963322  1
  Se  Se144  1  0.58608038  0.93386827  0.54202302  1
  Se  Se145  1  0.91979888  0.26188379  0.05703510  1
  Se  Se146  1  0.91062320  0.24143407  0.55324960  1
  Se  Se147  1  0.92939024  0.59778227  0.05932478  1
  Se  Se148  1  0.89000274  0.56835218  0.55328284  1
  Se  Se149  1  0.91759079  0.92185283  0.05073699  1
  Se  Se150  1  0.92376217  0.92022901  0.55524499  1
  Se  Se151  1  0.08232588  0.24644421  0.44973710  1
  Se  Se152  1  0.08631380  0.24558105  0.94775694  1
  Se  Se153  1  0.06956509  0.59931739  0.45301144  1
  Se  Se154  1  0.08574624  0.58529631  0.94571041  1
  Se  Se155  1  0.07920565  0.92266404  0.43810706  1
  Se  Se156  1  0.08568785  0.91627459  0.93868360  1
  Se  Se157  1  0.40339224  0.25925973  0.44838118  1
  Se  Se158  1  0.41618937  0.24545223  0.94345848  1
  Se  Se159  1  0.40621298  0.58793429  0.44451787  1
  Se  Se160  1  0.40863641  0.57979646  0.93833744  1
  Se  Se161  1  0.40573060  0.92100928  0.45197311  1
  Se  Se162  1  0.40902243  0.91933001  0.93115386  1
  Se  Se163  1  0.75427907  0.24607518  0.44347225  1
  Se  Se164  1  0.74914091  0.25854155  0.93829824  1
  Se  Se165  1  0.73484530  0.58879134  0.45502543  1
  Se  Se166  1  0.75154428  0.58502394  0.93240168  1
  Se  Se167  1  0.77270683  0.88633225  0.45095229  1
  Se  Se168  1  0.74298780  0.92331923  0.94991826  1
  Se  Se169  1  0.24580570  0.09001495  0.45613607  1
  Se  Se170  1  0.24643884  0.08469170  0.93688027  1
  Se  Se171  1  0.24031920  0.42221777  0.45289463  1
  Se  Se172  1  0.25080368  0.42031408  0.94419129  1
  Se  Se173  1  0.25172096  0.74429072  0.44143955  1
  Se  Se174  1  0.24748325  0.75283313  0.94477142  1
  Se  Se175  1  0.58859572  0.08318347  0.43413811  1
  Se  Se176  1  0.58943610  0.08134436  0.95404010  1
  Se  Se177  1  0.58043790  0.40819268  0.44295340  1
  Se  Se178  1  0.58903609  0.41160202  0.93997188  1
  Se  Se179  1  0.57504118  0.75314664  0.45424171  1
  Se  Se180  1  0.58520362  0.73983305  0.93350211  1
  Se  Se181  1  0.92064783  0.08117403  0.45028429  1
  Se  Se182  1  0.92511316  0.08007384  0.93217669  1
  Se  Se183  1  0.91595491  0.41240480  0.44952192  1
  Se  Se184  1  0.92834004  0.41494260  0.94001027  1
  Se  Se185  1  0.93725029  0.73604009  0.45977025  1
  Se  Se186  1  0.91465101  0.75600970  0.94126536  1
  Se  Se187  1  0.24557618  0.24709434  0.31426602  1
  Se  Se188  1  0.25719080  0.26016965  0.80095364  1
  Se  Se189  1  0.25339579  0.59157728  0.29954014  1
  Se  Se190  1  0.26138225  0.59845381  0.80236216  1
  Se  Se191  1  0.24767590  0.91094335  0.30563215  1
  Se  Se192  1  0.24996287  0.91215399  0.79974250  1
  Se  Se193  1  0.58636307  0.25189642  0.29986183  1
  Se  Se194  1  0.58896118  0.25082549  0.80364191  1
  Se  Se195  1  0.57557273  0.57287222  0.31492219  1
  Se  Se196  1  0.59154331  0.59102380  0.79525608  1
  Se  Se197  1  0.58946642  0.90849881  0.30936245  1
  Se  Se198  1  0.57682032  0.91278598  0.81181957  1
  Se  Se199  1  0.91970972  0.25171219  0.30327974  1
  Se  Se200  1  0.91049390  0.24423014  0.80905659  1
  Se  Se201  1  0.90861225  0.57974901  0.32112527  1
  Se  Se202  1  0.91423893  0.58248107  0.79728036  1
  Se  Se203  1  0.90967029  0.91563326  0.31384000  1
  Se  Se204  1  0.91151843  0.91324072  0.79882327  1
  Se  Se205  1  0.09050085  0.08925245  0.31150094  1
  Se  Se206  1  0.08353353  0.07831135  0.79469802  1
  Se  Se207  1  0.08663332  0.42805609  0.30896624  1
  Se  Se208  1  0.08944759  0.41708103  0.81392600  1
  Se  Se209  1  0.09266974  0.75854322  0.31287351  1
  Se  Se210  1  0.07943127  0.74409092  0.80447043  1
  Se  Se211  1  0.42635024  0.08445423  0.31168143  1
  Se  Se212  1  0.42034766  0.08441882  0.80345094  1
  Se  Se213  1  0.41762867  0.42282221  0.31598260  1
  Se  Se214  1  0.43228941  0.42803518  0.80494868  1
  Se  Se215  1  0.41685603  0.74606080  0.30355631  1
  Se  Se216  1  0.41989504  0.74729943  0.79759293  1
  Se  Se217  1  0.75580344  0.07405831  0.30766572  1
  Se  Se218  1  0.75687756  0.08858042  0.80987812  1
  Se  Se219  1  0.74923272  0.41286517  0.30649806  1
  Se  Se220  1  0.74851481  0.41608243  0.79414532  1
  Se  Se221  1  0.75967888  0.74663568  0.31624777  1
  Se  Se222  1  0.74468474  0.75049945  0.79892171  1
  Se  Se223  1  0.24010580  0.09137147  0.19055088  1
  Se  Se224  1  0.26668953  0.06742572  0.70284731  1
  Se  Se225  1  0.24154194  0.42587236  0.19389619  1
  Se  Se226  1  0.25504396  0.40439000  0.70570320  1
  Se  Se227  1  0.25399600  0.74882335  0.19063174  1
  Se  Se228  1  0.24896773  0.74509086  0.69942646  1
  Se  Se229  1  0.58864842  0.07619090  0.19591355  1
  Se  Se230  1  0.57779155  0.09036700  0.68685848  1
  Se  Se231  1  0.58421602  0.41262338  0.20104441  1
  Se  Se232  1  0.59059249  0.41918364  0.69060724  1
  Se  Se233  1  0.58231771  0.74880515  0.18797259  1
  Se  Se234  1  0.58952750  0.75868230  0.68727911  1
  Se  Se235  1  0.91092496  0.09431185  0.18940000  1
  Se  Se236  1  0.91294538  0.07731997  0.69330636  1
  Se  Se237  1  0.92202301  0.41753364  0.20127770  1
  Se  Se238  1  0.91077908  0.42443818  0.68231754  1
  Se  Se239  1  0.91373064  0.75856991  0.19453151  1
  Se  Se240  1  0.91436023  0.74313486  0.69435016  1
  Se  Se241  1  0.08140180  0.25781907  0.19542914  1
  Se  Se242  1  0.08319337  0.24495769  0.69121845  1
  Se  Se243  1  0.08744718  0.58477625  0.18963538  1
  Se  Se244  1  0.08209747  0.56442539  0.69721846  1
  Se  Se245  1  0.09146299  0.91397363  0.18827469  1
  Se  Se246  1  0.07644307  0.91452605  0.70317739  1
  Se  Se247  1  0.41982770  0.23574274  0.19189585  1
  Se  Se248  1  0.41844338  0.25761583  0.70269561  1
  Se  Se249  1  0.41685728  0.58316520  0.19930559  1
  Se  Se250  1  0.41880976  0.58807405  0.69456049  1
  Se  Se251  1  0.42988417  0.90361712  0.18968470  1
  Se  Se252  1  0.42019144  0.91632351  0.69648949  1
  Se  Se253  1  0.74907080  0.24906639  0.19954772  1
  Se  Se254  1  0.74875758  0.24976531  0.69482155  1
  Se  Se255  1  0.76289773  0.57384858  0.19256791  1
  Se  Se256  1  0.74702456  0.59085349  0.69023568  1
  Se  Se257  1  0.74775241  0.91564958  0.19962582  1
  Se  Se258  1  0.74992006  0.91105657  0.68268630  1
