# generated using pymatgen
data_In86Cu29Se144
_symmetry_space_group_name_H-M   'P 1'
_cell_length_a   17.57791741
_cell_length_b   17.57742333
_cell_length_c   23.42485350
_cell_angle_alpha   90.01317004
_cell_angle_beta   89.97477908
_cell_angle_gamma   89.97041105
_symmetry_Int_Tables_number   1
_chemical_formula_structural   In86Cu29Se144
_chemical_formula_sum   'In86 Cu29 Se144'
_cell_volume   7237.68043631
_cell_formula_units_Z   1
loop_
 _symmetry_equiv_pos_site_id
 _symmetry_equiv_pos_as_xyz
  1  'x, y, z'
loop_
 _atom_site_type_symbol
 _atom_site_label
 _atom_site_symmetry_multiplicity
 _atom_site_fract_x
 _atom_site_fract_y
 _atom_site_fract_z
 _atom_site_occupancy
  In  In0  1  -0.00493694  0.16772999  0.13742651  1
  In  In1  1  -0.00600145  0.15663369  0.62213459  1
  In  In2  1  0.00574248  0.49335448  0.14229703  1
  In  In3  1  -0.00272542  0.50396432  0.61554729  1
  In  In4  1  0.00570850  0.82864760  0.13613872  1
  In  In5  1  0.01092606  0.84184307  0.61349050  1
  In  In6  1  0.34811772  0.16613493  0.13096162  1
  In  In7  1  0.34773765  0.18390545  0.61469721  1
  In  In8  1  0.33216605  0.50134643  0.13879575  1
  In  In9  1  0.34431712  0.48911126  0.62792704  1
  In  In10  1  0.32891923  0.83019817  0.12206149  1
  In  In11  1  0.33132015  0.82536066  0.61238432  1
  In  In12  1  0.65074070  0.17028953  0.13944263  1
  In  In13  1  0.66290415  0.18041264  0.62451244  1
  In  In14  1  0.65616616  0.49625610  0.13134664  1
  In  In15  1  0.66390671  0.50039878  0.61856545  1
  In  In16  1  0.66386812  0.84311431  0.12849581  1
  In  In17  1  0.64805885  0.82071274  0.60518281  1
  In  In18  1  0.15796192  0.00699537  0.38058970  1
  In  In19  1  0.15468923  -0.00142452  0.87471631  1
  In  In20  1  0.15338659  0.32320318  0.37511359  1
  In  In21  1  0.17355369  0.32205636  0.87529275  1
  In  In22  1  0.17542941  0.67707868  0.37525678  1
  In  In23  1  0.18164765  0.66290196  0.87477023  1
  In  In24  1  0.50262408  0.00534336  0.38025330  1
  In  In25  1  0.49537775  0.00308874  0.87932398  1
  In  In26  1  0.50189014  0.33209577  0.37416971  1
  In  In27  1  0.49558119  0.32436587  0.86682275  1
  In  In28  1  0.48301832  0.66883421  0.38653225  1
  In  In29  1  0.50481816  0.67211960  0.86261782  1
  In  In30  1  0.82272755  -0.01144470  0.37462271  1
  In  In31  1  0.84231159  -0.01070245  0.86952203  1
  In  In32  1  0.83869542  0.34790502  0.36481163  1
  In  In33  1  0.82606513  0.34328827  0.87583294  1
  In  In34  1  0.84186835  0.65702607  0.37991410  1
  In  In35  1  0.82862967  0.67718227  0.86836467  1
  In  In36  1  0.01079258  0.17845281  0.37214104  1
  In  In37  1  0.01293627  0.16081311  0.87506299  1
  In  In38  1  -0.01908666  0.49102714  0.36344610  1
  In  In39  1  -0.00964819  0.50322277  0.87750629  1
  In  In40  1  0.00049450  0.83216597  0.37610347  1
  In  In41  1  -0.00169675  0.84161646  0.87427577  1
  In  In42  1  0.33035590  0.16764600  0.37861912  1
  In  In43  1  0.33907197  0.17961656  0.87235332  1
  In  In44  1  0.34295475  0.51120835  0.37641884  1
  In  In45  1  0.33646756  0.50282816  0.86496678  1
  In  In46  1  0.33581421  0.81913969  0.38858190  1
  In  In47  1  0.34107262  0.82556916  0.87751448  1
  In  In48  1  0.65458192  0.16162081  0.36629486  1
  In  In49  1  0.65128663  0.16466982  0.87329321  1
  In  In50  1  0.67507280  0.48669295  0.37929381  1
  In  In51  1  0.65635988  0.49299498  0.86171079  1
  In  In52  1  0.65838146  0.85050182  0.38907634  1
  In  In53  1  0.66463098  0.82559991  0.86628652  1
  In  In54  1  0.16917693  -0.01494841  0.12720648  1
  In  In55  1  0.16241937  -0.00442921  0.61884319  1
  In  In56  1  0.16756904  0.33672393  0.13676816  1
  In  In57  1  0.18137210  0.33959146  0.61990109  1
  In  In58  1  0.16298814  0.67317263  0.13540969  1
  In  In59  1  0.17213679  0.67789319  0.61872856  1
  In  In60  1  0.50413323  0.00362489  0.12223012  1
  In  In61  1  0.50746960  0.00530011  0.60906401  1
  In  In62  1  0.50661407  0.31865509  0.14367295  1
  In  In63  1  0.49882527  0.33185600  0.62111005  1
  In  In64  1  0.48833970  0.66826206  0.12913643  1
  In  In65  1  0.49786722  0.66730411  0.61981618  1
  In  In66  1  0.82895765  0.00165812  0.13959660  1
  In  In67  1  0.84497804  0.00332860  0.62132980  1
  In  In68  1  0.83867144  0.32972862  0.13935490  1
  In  In69  1  0.81918625  0.33033815  0.62003979  1
  In  In70  1  0.83563535  0.67615794  0.13174317  1
  In  In71  1  0.82180231  0.65465919  0.61083511  1
  In  In72  1  0.83086822  0.16411438  0.01447749  1
  In  In73  1  0.83086007  0.83609775  -0.00256322  1
  In  In74  1  0.33729004  0.00016151  0.25892781  1
  In  In75  1  0.17205204  0.16342894  -0.00157133  1
  In  In76  1  0.00293405  0.67202895  0.73656350  1
  In  In77  1  0.16440871  0.50111537  0.49610047  1
  In  In78  1  0.82961214  0.16839460  0.49373724  1
  In  In79  1  0.33445093  0.00216197  0.74630416  1
  In  In80  1  0.17175048  0.50028595  0.01257960  1
  In  In81  1  0.00342035  0.33122492  0.75429230  1
  In  In82  1  0.83283771  0.50017206  0.00307373  1
  In  In83  1  0.66842032  0.00242771  0.73418290  1
  In  In84  1  0.49792344  0.49756655  0.00271210  1
  In  In85  1  0.67203162  0.66346491  0.26016337  1
  Cu  Cu86  1  0.83295629  0.16370032  0.74529384  1
  Cu  Cu87  1  0.66293079  0.33616461  0.49655353  1
  Cu  Cu88  1  0.32811340  0.00011412  0.49789173  1
  Cu  Cu89  1  0.16734975  0.83462284  0.74183230  1
  Cu  Cu90  1  0.16937337  0.50100157  0.26164738  1
  Cu  Cu91  1  0.16707432  0.83373323  0.25373937  1
  Cu  Cu92  1  0.83194860  0.83249615  0.74292980  1
  Cu  Cu93  1  0.00208975  -0.00481301  0.00310652  1
  Cu  Cu94  1  0.83687948  0.83121101  0.25726887  1
  Cu  Cu95  1  -0.00453611  0.66403521  0.49409289  1
  Cu  Cu96  1  0.83504537  0.16185759  0.25934981  1
  Cu  Cu97  1  0.50362788  0.50177191  0.74131026  1
  Cu  Cu98  1  0.33728378  -0.00458809  0.00303655  1
  Cu  Cu99  1  0.66205454  0.66974911  -0.01118903  1
  Cu  Cu100  1  0.49855714  0.83287187  0.26252235  1
  Cu  Cu101  1  0.33913004  0.67826978  -0.00104782  1
  Cu  Cu102  1  0.66222519  0.66353325  0.49369114  1
  Cu  Cu103  1  0.65288507  -0.00144271  0.00225050  1
  Cu  Cu104  1  0.16649581  0.16633760  0.25479174  1
  Cu  Cu105  1  0.17750850  0.49814145  0.74869689  1
  Cu  Cu106  1  0.34039518  0.33348603  0.00157171  1
  Cu  Cu107  1  0.66150149  0.32434530  0.00714370  1
  Cu  Cu108  1  0.00122455  -0.00038388  0.49623919  1
  Cu  Cu109  1  0.49865898  0.49844942  0.25647056  1
  Cu  Cu110  1  0.16942825  0.16419603  0.74854016  1
  Cu  Cu111  1  0.33494540  0.33064548  0.49700999  1
  Cu  Cu112  1  0.49895134  0.83380080  0.74190861  1
  Cu  Cu113  1  0.00924340  0.66908650  0.01052542  1
  Cu  Cu114  1  0.82597843  0.49981114  0.74151969  1
  Se  Se115  1  0.07837368  0.07985009  0.06263063  1
  Se  Se116  1  0.08143805  0.08379093  0.55176621  1
  Se  Se117  1  0.07547679  0.40862013  0.06217662  1
  Se  Se118  1  0.07622807  0.40557018  0.55470269  1
  Se  Se119  1  0.08881733  0.75605067  0.06093262  1
  Se  Se120  1  0.08106311  0.74446145  0.54814441  1
  Se  Se121  1  0.41590080  0.08338271  0.05471903  1
  Se  Se122  1  0.41361131  0.08552703  0.54784847  1
  Se  Se123  1  0.41340715  0.41095636  0.06808733  1
  Se  Se124  1  0.41781239  0.41503711  0.54970691  1
  Se  Se125  1  0.42395075  0.75613826  0.05477541  1
  Se  Se126  1  0.43585681  0.76550839  0.55045962  1
  Se  Se127  1  0.73588181  0.07154629  0.06514290  1
  Se  Se128  1  0.74464330  0.08347843  0.56106604  1
  Se  Se129  1  0.74264310  0.40745094  0.06314649  1
  Se  Se130  1  0.74967396  0.41805143  0.54888534  1
  Se  Se131  1  0.74181808  0.74282939  0.05585299  1
  Se  Se132  1  0.74918286  0.74791326  0.54434009  1
  Se  Se133  1  0.25545274  0.25646982  0.06132485  1
  Se  Se134  1  0.24724721  0.24887030  0.54792242  1
  Se  Se135  1  0.26465164  0.59614191  0.06266968  1
  Se  Se136  1  0.25636841  0.58108431  0.56085754  1
  Se  Se137  1  0.24851277  0.91400355  0.05124448  1
  Se  Se138  1  0.24596828  0.91435595  0.55047818  1
  Se  Se139  1  0.57618858  0.24612270  0.06159836  1
  Se  Se140  1  0.58144850  0.25021325  0.54888128  1
  Se  Se141  1  0.59027087  0.59331033  0.05793156  1
  Se  Se142  1  0.57962924  0.58189407  0.55031487  1
  Se  Se143  1  0.57661484  0.90805671  0.05414983  1
  Se  Se144  1  0.59230608  0.92729428  0.54202243  1
  Se  Se145  1  0.92660485  0.25889294  0.06161386  1
  Se  Se146  1  0.92011311  0.25562535  0.55718990  1
  Se  Se147  1  0.92484929  0.58803975  0.06488151  1
  Se  Se148  1  0.91314212  0.57693477  0.54447676  1
  Se  Se149  1  0.91696948  0.92100844  0.06390320  1
  Se  Se150  1  0.91640541  0.91728859  0.54864904  1
  Se  Se151  1  0.08747964  0.24209176  0.45270343  1
  Se  Se152  1  0.07558164  0.25889563  0.94709835  1
  Se  Se153  1  0.07474280  0.58468442  0.43184270  1
  Se  Se154  1  0.08085963  0.58716291  0.94507315  1
  Se  Se155  1  0.08561822  0.91209598  0.44691212  1
  Se  Se156  1  0.08341307  0.91255249  0.94811833  1
  Se  Se157  1  0.42009646  0.24770037  0.44448282  1
  Se  Se158  1  0.42215546  0.25102088  0.94689412  1
  Se  Se159  1  0.41128303  0.58141673  0.45761914  1
  Se  Se160  1  0.41343810  0.59024177  0.93961354  1
  Se  Se161  1  0.41436764  0.92066510  0.44410169  1
  Se  Se162  1  0.41866828  0.91359125  0.94534084  1
  Se  Se163  1  0.74379584  0.25934297  0.43280210  1
  Se  Se164  1  0.74610561  0.25053625  0.94546146  1
  Se  Se165  1  0.75019501  0.57962965  0.44541892  1
  Se  Se166  1  0.74408615  0.58551443  0.93516582  1
  Se  Se167  1  0.75335085  0.92014746  0.45616811  1
  Se  Se168  1  0.73753989  0.92670716  0.93849275  1
  Se  Se169  1  0.24565309  0.08669295  0.44707548  1
  Se  Se170  1  0.26169418  0.07407857  0.93621763  1
  Se  Se171  1  0.25383151  0.41003507  0.43649021  1
  Se  Se172  1  0.25903782  0.41402840  0.94288625  1
  Se  Se173  1  0.24639953  0.74529614  0.45677742  1
  Se  Se174  1  0.24741938  0.75322902  0.94641562  1
  Se  Se175  1  0.58851572  0.08683961  0.44719522  1
  Se  Se176  1  0.57651445  0.08720959  0.94857918  1
  Se  Se177  1  0.57690456  0.42033017  0.44611638  1
  Se  Se178  1  0.59020425  0.40948603  0.94332543  1
  Se  Se179  1  0.57834307  0.75112676  0.44595326  1
  Se  Se180  1  0.57886412  0.75352597  0.93844624  1
  Se  Se181  1  0.92220102  0.07967043  0.43466725  1
  Se  Se182  1  0.92041177  0.07689486  0.94477295  1
  Se  Se183  1  0.91689077  0.41416080  0.44397131  1
  Se  Se184  1  0.92619996  0.40535514  0.94774779  1
  Se  Se185  1  0.91308927  0.75333688  0.44574617  1
  Se  Se186  1  0.92589702  0.73913333  0.94393343  1
  Se  Se187  1  0.24813743  0.24918391  0.30831832  1
  Se  Se188  1  0.25204739  0.25050623  0.79949310  1
  Se  Se189  1  0.25431821  0.58832462  0.30757691  1
  Se  Se190  1  0.25635188  0.58973232  0.79759469  1
  Se  Se191  1  0.24676910  0.90998347  0.31722548  1
  Se  Se192  1  0.24473416  0.91178538  0.80781176  1
  Se  Se193  1  0.58936220  0.26114936  0.30180684  1
  Se  Se194  1  0.59816160  0.26154438  0.80311872  1
  Se  Se195  1  0.57534709  0.58067906  0.31852828  1
  Se  Se196  1  0.58642992  0.58703637  0.79561470  1
  Se  Se197  1  0.58192682  0.91985722  0.30909742  1
  Se  Se198  1  0.57697574  0.91767106  0.80180145  1
  Se  Se199  1  0.91916728  0.25159066  0.30404325  1
  Se  Se200  1  0.90908206  0.24053835  0.81350259  1
  Se  Se201  1  0.91324820  0.58956412  0.29854385  1
  Se  Se202  1  0.91024896  0.58045940  0.79989788  1
  Se  Se203  1  0.91921338  0.91867026  0.30740991  1
  Se  Se204  1  0.91940277  0.91101990  0.79605598  1
  Se  Se205  1  0.08112700  0.08178074  0.30402038  1
  Se  Se206  1  0.08358955  0.08083352  0.79917663  1
  Se  Se207  1  0.08154280  0.41367934  0.30503698  1
  Se  Se208  1  0.09333347  0.42795544  0.81340903  1
  Se  Se209  1  0.08358386  0.74886472  0.30600231  1
  Se  Se210  1  0.08939780  0.75328183  0.80695811  1
  Se  Se211  1  0.42811241  0.09763813  0.30690348  1
  Se  Se212  1  0.42602125  0.09280619  0.80442082  1
  Se  Se213  1  0.41295871  0.41662901  0.30849790  1
  Se  Se214  1  0.42342256  0.42054201  0.80159448  1
  Se  Se215  1  0.41180997  0.74825198  0.30870350  1
  Se  Se216  1  0.41479228  0.75317131  0.79796109  1
  Se  Se217  1  0.74746331  0.07749438  0.30550730  1
  Se  Se218  1  0.75474090  0.08301116  0.80864091  1
  Se  Se219  1  0.74347659  0.41716561  0.29784775  1
  Se  Se220  1  0.74972774  0.41377520  0.79858536  1
  Se  Se221  1  0.75176532  0.76030277  0.32051709  1
  Se  Se222  1  0.74746694  0.74898258  0.79420226  1
  Se  Se223  1  0.24492437  0.08567635  0.19253698  1
  Se  Se224  1  0.24826087  0.09055081  0.68309037  1
  Se  Se225  1  0.25091599  0.41678692  0.20543730  1
  Se  Se226  1  0.25710414  0.41006688  0.69790348  1
  Se  Se227  1  0.25414755  0.75390783  0.19909852  1
  Se  Se228  1  0.25395055  0.75289208  0.69197736  1
  Se  Se229  1  0.58529108  0.06690328  0.19980135  1
  Se  Se230  1  0.56923521  0.09533290  0.68942270  1
  Se  Se231  1  0.58416388  0.41556007  0.20497228  1
  Se  Se232  1  0.58509359  0.41580449  0.68881508  1
  Se  Se233  1  0.57910886  0.75326026  0.19836119  1
  Se  Se234  1  0.58407857  0.75045038  0.68979703  1
  Se  Se235  1  0.91953658  0.07869118  0.20459002  1
  Se  Se236  1  0.91993369  0.07949648  0.69896114  1
  Se  Se237  1  0.91185813  0.42017541  0.20498314  1
  Se  Se238  1  0.91517984  0.41915657  0.68953926  1
  Se  Se239  1  0.91975740  0.74783547  0.20382852  1
  Se  Se240  1  0.90899563  0.75483241  0.67716733  1
  Se  Se241  1  0.08313287  0.25062207  0.20100956  1
  Se  Se242  1  0.08900188  0.24606403  0.68767679  1
  Se  Se243  1  0.08849695  0.58360181  0.20335881  1
  Se  Se244  1  0.09539650  0.57266454  0.68673578  1
  Se  Se245  1  0.08382070  0.91950263  0.20244230  1
  Se  Se246  1  0.08117823  0.91814934  0.69321935  1
  Se  Se247  1  0.40002519  0.25977495  0.20456149  1
  Se  Se248  1  0.41423118  0.25723087  0.69420918  1
  Se  Se249  1  0.41799538  0.58606437  0.20353681  1
  Se  Se250  1  0.41699681  0.58596127  0.69245936  1
  Se  Se251  1  0.42100891  0.90898505  0.19450774  1
  Se  Se252  1  0.42336245  0.91709809  0.68184313  1
  Se  Se253  1  0.75309691  0.24109671  0.19969800  1
  Se  Se254  1  0.75022958  0.25101933  0.69758427  1
  Se  Se255  1  0.75539235  0.57678596  0.19176571  1
  Se  Se256  1  0.74522216  0.58556813  0.68986054  1
  Se  Se257  1  0.74922477  0.90972455  0.20277249  1
  Se  Se258  1  0.75264629  0.90594047  0.67758422  1
