# generated using pymatgen
data_In86Cu29Se144
_symmetry_space_group_name_H-M   'P 1'
_cell_length_a   17.57482037
_cell_length_b   17.58168995
_cell_length_c   23.43875438
_cell_angle_alpha   90.01264168
_cell_angle_beta   90.00830031
_cell_angle_gamma   89.98655485
_symmetry_Int_Tables_number   1
_chemical_formula_structural   In86Cu29Se144
_chemical_formula_sum   'In86 Cu29 Se144'
_cell_volume   7242.45845529
_cell_formula_units_Z   1
loop_
 _symmetry_equiv_pos_site_id
 _symmetry_equiv_pos_as_xyz
  1  'x, y, z'
loop_
 _atom_site_type_symbol
 _atom_site_label
 _atom_site_symmetry_multiplicity
 _atom_site_fract_x
 _atom_site_fract_y
 _atom_site_fract_z
 _atom_site_occupancy
  In  In0  1  -0.01004244  0.17630357  0.12996727  1
  In  In1  1  0.00662191  0.18347678  0.61952763  1
  In  In2  1  0.01138034  0.48801809  0.13568343  1
  In  In3  1  -0.00794146  0.50005439  0.61847536  1
  In  In4  1  0.00038039  0.83009305  0.12877432  1
  In  In5  1  -0.01003028  0.83131099  0.63257930  1
  In  In6  1  0.32962862  0.17189832  0.13462514  1
  In  In7  1  0.35430472  0.17160740  0.61643439  1
  In  In8  1  0.32599858  0.50025393  0.12808567  1
  In  In9  1  0.32034071  0.48948489  0.61121998  1
  In  In10  1  0.34320481  0.83243497  0.11444361  1
  In  In11  1  0.33013901  0.83772779  0.62826103  1
  In  In12  1  0.67212511  0.16313762  0.12994805  1
  In  In13  1  0.67010488  0.16806653  0.62179229  1
  In  In14  1  0.66146762  0.48813912  0.13190379  1
  In  In15  1  0.65201122  0.48647159  0.60770514  1
  In  In16  1  0.67524268  0.84227381  0.12130074  1
  In  In17  1  0.67845301  0.83745669  0.63263738  1
  In  In18  1  0.16948854  0.00463215  0.36032343  1
  In  In19  1  0.15714053  -0.00650116  0.88354623  1
  In  In20  1  0.17707302  0.34531477  0.36869177  1
  In  In21  1  0.17584485  0.34763589  0.86865651  1
  In  In22  1  0.15523658  0.66012819  0.37942663  1
  In  In23  1  0.16019950  0.66977509  0.88480061  1
  In  In24  1  0.50792340  0.00689125  0.36604648  1
  In  In25  1  0.49672480  -0.00823690  0.87588303  1
  In  In26  1  0.49639690  0.33339423  0.37446431  1
  In  In27  1  0.50029987  0.33198230  0.86712816  1
  In  In28  1  0.50446348  0.65146006  0.38400546  1
  In  In29  1  0.50462835  0.67465774  0.87574674  1
  In  In30  1  0.83844357  0.00863753  0.36853927  1
  In  In31  1  0.82584588  0.01093675  0.88544465  1
  In  In32  1  0.83045322  0.33040251  0.37485516  1
  In  In33  1  0.82950969  0.32430586  0.86819934  1
  In  In34  1  0.84295694  0.65053314  0.38383517  1
  In  In35  1  0.84531713  0.66167667  0.87538335  1
  In  In36  1  -0.00836078  0.16284324  0.36850762  1
  In  In37  1  -0.00945643  0.16692704  0.87729952  1
  In  In38  1  0.00268978  0.49888935  0.37633334  1
  In  In39  1  0.00696509  0.50879072  0.86644576  1
  In  In40  1  -0.00064858  0.83277330  0.36345568  1
  In  In41  1  0.00829798  0.82006604  0.88815110  1
  In  In42  1  0.34039147  0.17264957  0.36967679  1
  In  In43  1  0.32801847  0.17974107  0.87463176  1
  In  In44  1  0.34788719  0.48561640  0.39514783  1
  In  In45  1  0.32721502  0.48567085  0.87619706  1
  In  In46  1  0.32799924  0.83427872  0.36688181  1
  In  In47  1  0.33188083  0.82711258  0.89224630  1
  In  In48  1  0.66423796  0.16717683  0.37549879  1
  In  In49  1  0.67450986  0.17290406  0.86717404  1
  In  In50  1  0.67608671  0.49275935  0.38268412  1
  In  In51  1  0.67389574  0.49349123  0.86744134  1
  In  In52  1  0.65844985  0.84064693  0.36803275  1
  In  In53  1  0.65930994  0.84650834  0.88198608  1
  In  In54  1  0.17578514  -0.00960426  0.13301530  1
  In  In55  1  0.16576386  -0.00842749  0.62478380  1
  In  In56  1  0.16638261  0.33786048  0.12722600  1
  In  In57  1  0.15412172  0.34698614  0.63085215  1
  In  In58  1  0.16375863  0.65185132  0.11782912  1
  In  In59  1  0.15831107  0.64818983  0.61724455  1
  In  In60  1  0.50695911  -0.00454629  0.13260388  1
  In  In61  1  0.50498279  0.02348192  0.61706859  1
  In  In62  1  0.50212427  0.33976277  0.13929013  1
  In  In63  1  0.50336530  0.33187846  0.62229830  1
  In  In64  1  0.48526572  0.67128526  0.12593849  1
  In  In65  1  0.50687557  0.65763445  0.61521291  1
  In  In66  1  0.83279765  0.00178930  0.12738750  1
  In  In67  1  0.82049259  -0.00445193  0.62516601  1
  In  In68  1  0.83985185  0.32653648  0.12983758  1
  In  In69  1  0.83287817  0.33179481  0.61859598  1
  In  In70  1  0.83530245  0.68061070  0.12573153  1
  In  In71  1  0.84666751  0.66161161  0.62310457  1
  In  In72  1  0.49363793  0.50780676  0.00439396  1
  In  In73  1  0.49934504  0.83064656  0.49403242  1
  In  In74  1  0.32887581  0.66440258  0.74489987  1
  In  In75  1  0.67414314  0.66418874  0.25799523  1
  In  In76  1  0.50120260  0.16793007  -0.00238318  1
  In  In77  1  0.67304276  0.66097734  0.74302159  1
  In  In78  1  0.33187466  0.00770604  0.75295184  1
  In  In79  1  0.83244406  0.82787311  0.50204778  1
  In  In80  1  0.16983270  0.17253903  0.48776742  1
  In  In81  1  -0.00985979  0.00700597  0.76388013  1
  In  In82  1  0.83573714  0.50167294  -0.00610277  1
  In  In83  1  0.33199280  0.66088749  0.25018889  1
  In  In84  1  0.15965986  0.16616548  0.00977627  1
  In  In85  1  0.17118388  0.83176343  0.50132904  1
  Cu  Cu86  1  0.16760070  0.83046152  0.24675558  1
  Cu  Cu87  1  0.51017471  0.17281705  0.74357269  1
  Cu  Cu88  1  0.66472177  0.32602876  0.49687054  1
  Cu  Cu89  1  0.15855266  0.16983310  0.24897522  1
  Cu  Cu90  1  0.66118042  0.67860300  0.00151134  1
  Cu  Cu91  1  -0.00170825  0.66350756  0.00360184  1
  Cu  Cu92  1  0.49862867  0.83319163  0.24542340  1
  Cu  Cu93  1  0.33304750  0.00005404  0.00537322  1
  Cu  Cu94  1  0.83642549  0.49781793  0.25826306  1
  Cu  Cu95  1  0.00167973  0.00373372  0.49062587  1
  Cu  Cu96  1  0.15905458  0.82703209  0.76114507  1
  Cu  Cu97  1  0.33332909  0.32875800  0.49873226  1
  Cu  Cu98  1  0.50290291  0.84125649  0.75361362  1
  Cu  Cu99  1  0.83350058  0.83179299  0.75562398  1
  Cu  Cu100  1  0.17333343  0.17721652  0.74721999  1
  Cu  Cu101  1  0.49805775  0.49225796  0.74324629  1
  Cu  Cu102  1  0.16160530  0.49723086  0.74477723  1
  Cu  Cu103  1  0.66843721  0.32928345  -0.00479552  1
  Cu  Cu104  1  0.83524108  0.83910653  0.24685400  1
  Cu  Cu105  1  -0.00644200  -0.00856219  0.00556743  1
  Cu  Cu106  1  0.66862732  -0.00086868  0.00773445  1
  Cu  Cu107  1  -0.00621451  0.33999207  0.49774381  1
  Cu  Cu108  1  0.49920881  0.16942189  0.25228575  1
  Cu  Cu109  1  0.83573810  0.16928842  0.74567760  1
  Cu  Cu110  1  0.16611362  0.50001495  0.25189171  1
  Cu  Cu111  1  0.00198040  0.33617974  0.00475497  1
  Cu  Cu112  1  0.82579958  0.17015640  0.25098481  1
  Cu  Cu113  1  0.66504620  0.00486974  0.49873919  1
  Cu  Cu114  1  0.83538552  0.48713508  0.74416587  1
  Se  Se115  1  0.07304910  0.07245074  0.06751241  1
  Se  Se116  1  0.08315680  0.07880673  0.55424899  1
  Se  Se117  1  0.08649471  0.41966803  0.05487638  1
  Se  Se118  1  0.08194725  0.41834422  0.55126742  1
  Se  Se119  1  0.08113439  0.74634187  0.05802413  1
  Se  Se120  1  0.07289711  0.75060523  0.56062310  1
  Se  Se121  1  0.41256394  0.08266959  0.06278238  1
  Se  Se122  1  0.41175445  0.07860631  0.54454761  1
  Se  Se123  1  0.41438163  0.40831383  0.06196908  1
  Se  Se124  1  0.41879726  0.41234335  0.55199410  1
  Se  Se125  1  0.41636898  0.74189572  0.04662669  1
  Se  Se126  1  0.40796472  0.74810535  0.56018968  1
  Se  Se127  1  0.75186638  0.08650128  0.05626939  1
  Se  Se128  1  0.75321512  0.08262456  0.55243797  1
  Se  Se129  1  0.74651011  0.41234618  0.05559911  1
  Se  Se130  1  0.75058479  0.41182759  0.54736215  1
  Se  Se131  1  0.75253896  0.75401889  0.05272652  1
  Se  Se132  1  0.74066864  0.74039104  0.56219928  1
  Se  Se133  1  0.25867531  0.25677839  0.05739456  1
  Se  Se134  1  0.24780431  0.25542307  0.56209390  1
  Se  Se135  1  0.26796714  0.59093203  0.05480122  1
  Se  Se136  1  0.25830450  0.59399466  0.54989085  1
  Se  Se137  1  0.24743628  0.91536386  0.05437913  1
  Se  Se138  1  0.26384887  0.93052967  0.55329128  1
  Se  Se139  1  0.58666511  0.25857879  0.06065015  1
  Se  Se140  1  0.58136506  0.24468658  0.55294373  1
  Se  Se141  1  0.59300458  0.59143724  0.06409641  1
  Se  Se142  1  0.58301373  0.58237127  0.54207439  1
  Se  Se143  1  0.57973085  0.91685629  0.05585190  1
  Se  Se144  1  0.59124879  0.91812769  0.55939222  1
  Se  Se145  1  0.91471643  0.25164707  0.05177807  1
  Se  Se146  1  0.91646673  0.24821059  0.54801562  1
  Se  Se147  1  0.92043309  0.58145338  0.06462266  1
  Se  Se148  1  0.91876246  0.58692811  0.54680475  1
  Se  Se149  1  0.91137624  0.91023186  0.06111716  1
  Se  Se150  1  0.92609686  0.92585191  0.55693115  1
  Se  Se151  1  0.07377094  0.26138641  0.43429617  1
  Se  Se152  1  0.08079757  0.25546810  0.94111898  1
  Se  Se153  1  0.08011812  0.57872275  0.45046048  1
  Se  Se154  1  0.07820260  0.57797496  0.94818509  1
  Se  Se155  1  0.08363325  0.92153419  0.43597651  1
  Se  Se156  1  0.08361172  0.91144484  0.95558630  1
  Se  Se157  1  0.41759185  0.24672726  0.44615842  1
  Se  Se158  1  0.41026255  0.26443747  0.94491835  1
  Se  Se159  1  0.40975436  0.59292384  0.45389644  1
  Se  Se160  1  0.40920757  0.58979211  0.93452734  1
  Se  Se161  1  0.41359917  0.92111756  0.43349471  1
  Se  Se162  1  0.41796878  0.91912670  0.95078843  1
  Se  Se163  1  0.75150700  0.24446731  0.44507725  1
  Se  Se164  1  0.75313966  0.24644142  0.94409850  1
  Se  Se165  1  0.74249039  0.59119493  0.44836446  1
  Se  Se166  1  0.73565413  0.59306743  0.94062141  1
  Se  Se167  1  0.74557236  0.92181474  0.44043788  1
  Se  Se168  1  0.75175168  0.91687912  0.95090501  1
  Se  Se169  1  0.25687648  0.07449885  0.43579824  1
  Se  Se170  1  0.25568767  0.08051644  0.94349559  1
  Se  Se171  1  0.24317922  0.41376527  0.45339736  1
  Se  Se172  1  0.24313658  0.41756827  0.94998848  1
  Se  Se173  1  0.25847992  0.74332788  0.43898007  1
  Se  Se174  1  0.24085965  0.75034766  0.95342464  1
  Se  Se175  1  0.57920426  0.08342694  0.44450543  1
  Se  Se176  1  0.59287876  0.07716527  0.94028616  1
  Se  Se177  1  0.58234945  0.41267573  0.44513560  1
  Se  Se178  1  0.58705829  0.41544704  0.94150645  1
  Se  Se179  1  0.59926073  0.74354344  0.44112274  1
  Se  Se180  1  0.57668266  0.75879608  0.94762955  1
  Se  Se181  1  0.91348579  0.08699262  0.44472269  1
  Se  Se182  1  0.92071543  0.08344157  0.95182827  1
  Se  Se183  1  0.90990073  0.41976277  0.44210742  1
  Se  Se184  1  0.92412636  0.40918538  0.93587886  1
  Se  Se185  1  0.93082651  0.74853948  0.44285031  1
  Se  Se186  1  0.91145280  0.74512138  0.95188234  1
  Se  Se187  1  0.24655446  0.24753195  0.30390399  1
  Se  Se188  1  0.25653493  0.25995517  0.80005476  1
  Se  Se189  1  0.24813956  0.57401733  0.31559982  1
  Se  Se190  1  0.24061414  0.57811400  0.80807002  1
  Se  Se191  1  0.25276256  0.91663489  0.29534263  1
  Se  Se192  1  0.24563517  0.91006119  0.81294618  1
  Se  Se193  1  0.58234804  0.25117633  0.30691726  1
  Se  Se194  1  0.59023439  0.25625848  0.80058011  1
  Se  Se195  1  0.58047986  0.57137960  0.30925849  1
  Se  Se196  1  0.57417382  0.57653374  0.80429200  1
  Se  Se197  1  0.58390880  0.91967641  0.29447966  1
  Se  Se198  1  0.58730702  0.92458305  0.80379415  1
  Se  Se199  1  0.91371280  0.25226262  0.30189901  1
  Se  Se200  1  0.92145340  0.24830441  0.80078877  1
  Se  Se201  1  0.92154030  0.58461195  0.30489884  1
  Se  Se202  1  0.91015247  0.57777863  0.79905980  1
  Se  Se203  1  0.91919079  0.92314834  0.30040236  1
  Se  Se204  1  0.91098509  0.90716600  0.82185806  1
  Se  Se205  1  0.07575772  0.08268807  0.29863358  1
  Se  Se206  1  0.09807461  0.09485879  0.81051214  1
  Se  Se207  1  0.08026069  0.41540156  0.30304459  1
  Se  Se208  1  0.07960518  0.41407416  0.80036916  1
  Se  Se209  1  0.08927587  0.74677705  0.30349774  1
  Se  Se210  1  0.07571410  0.74044911  0.80901706  1
  Se  Se211  1  0.41407321  0.08180831  0.30015609  1
  Se  Se212  1  0.42807767  0.09886102  0.80976760  1
  Se  Se213  1  0.40428999  0.41391190  0.31075305  1
  Se  Se214  1  0.41476198  0.41722928  0.80275741  1
  Se  Se215  1  0.43024933  0.74871933  0.30981896  1
  Se  Se216  1  0.41593314  0.76100043  0.80664230  1
  Se  Se217  1  0.74465617  0.08351001  0.30382835  1
  Se  Se218  1  0.75805893  0.08382870  0.80312631  1
  Se  Se219  1  0.74791152  0.41502284  0.30523696  1
  Se  Se220  1  0.74858910  0.40862631  0.79824568  1
  Se  Se221  1  0.76474932  0.75773784  0.31475194  1
  Se  Se222  1  0.74890132  0.75116213  0.81350573  1
  Se  Se223  1  0.24662414  0.08593099  0.19921065  1
  Se  Se224  1  0.24548173  0.09278822  0.68576733  1
  Se  Se225  1  0.25017753  0.41603773  0.19929869  1
  Se  Se226  1  0.25346392  0.41851407  0.69454098  1
  Se  Se227  1  0.24866174  0.75139364  0.18592937  1
  Se  Se228  1  0.23288017  0.75621991  0.69027478  1
  Se  Se229  1  0.58325227  0.08643573  0.19775894  1
  Se  Se230  1  0.59009841  0.08314099  0.69448321  1
  Se  Se231  1  0.59151211  0.41172717  0.20758478  1
  Se  Se232  1  0.58797706  0.41489725  0.69171738  1
  Se  Se233  1  0.58463000  0.75054273  0.19071293  1
  Se  Se234  1  0.57358511  0.75509341  0.69119547  1
  Se  Se235  1  0.91172230  0.08795042  0.19714254  1
  Se  Se236  1  0.91654928  0.08746105  0.68610930  1
  Se  Se237  1  0.91539508  0.41471164  0.19897811  1
  Se  Se238  1  0.92075052  0.40895309  0.68887566  1
  Se  Se239  1  0.91823321  0.74827878  0.20116669  1
  Se  Se240  1  0.91203371  0.74678742  0.70121723  1
  Se  Se241  1  0.08042524  0.25619798  0.19425182  1
  Se  Se242  1  0.08046038  0.25405915  0.69842154  1
  Se  Se243  1  0.08546341  0.58617489  0.19843445  1
  Se  Se244  1  0.07662453  0.57969835  0.69246434  1
  Se  Se245  1  0.08116059  0.91575889  0.19787400  1
  Se  Se246  1  0.08322827  0.91470493  0.70233685  1
  Se  Se247  1  0.41413973  0.25392020  0.20123276  1
  Se  Se248  1  0.41904863  0.25215818  0.69471635  1
  Se  Se249  1  0.42897995  0.56991142  0.19628872  1
  Se  Se250  1  0.41973684  0.57540076  0.68523096  1
  Se  Se251  1  0.41187423  0.91320060  0.19251057  1
  Se  Se252  1  0.42485609  0.92108471  0.69051914  1
  Se  Se253  1  0.74520721  0.25623484  0.19704794  1
  Se  Se254  1  0.75190474  0.25091679  0.69118753  1
  Se  Se255  1  0.76096334  0.57590647  0.19094566  1
  Se  Se256  1  0.75482809  0.56695419  0.68247340  1
  Se  Se257  1  0.74701242  0.92084360  0.19777362  1
  Se  Se258  1  0.75227287  0.91980846  0.70562574  1
