# generated using pymatgen
data_In86Cu29Se144
_symmetry_space_group_name_H-M   'P 1'
_cell_length_a   17.69284605
_cell_length_b   17.68831324
_cell_length_c   23.55929939
_cell_angle_alpha   89.95760141
_cell_angle_beta   90.02568223
_cell_angle_gamma   90.02455295
_symmetry_Int_Tables_number   1
_chemical_formula_structural   In86Cu29Se144
_chemical_formula_sum   'In86 Cu29 Se144'
_cell_volume   7373.03487084
_cell_formula_units_Z   1
loop_
 _symmetry_equiv_pos_site_id
 _symmetry_equiv_pos_as_xyz
  1  'x, y, z'
loop_
 _atom_site_type_symbol
 _atom_site_label
 _atom_site_symmetry_multiplicity
 _atom_site_fract_x
 _atom_site_fract_y
 _atom_site_fract_z
 _atom_site_occupancy
  In  In0  1  -0.01534470  0.14997848  0.11884680  1
  In  In1  1  0.02016116  0.18309891  0.61307462  1
  In  In2  1  0.00824356  0.49158645  0.11977286  1
  In  In3  1  0.03730349  0.46030423  0.67241645  1
  In  In4  1  0.01187966  0.84535977  0.11076399  1
  In  In5  1  0.00893217  0.82030684  0.63367509  1
  In  In6  1  0.32496492  0.17977401  0.13529363  1
  In  In7  1  0.34261411  0.17910032  0.60755343  1
  In  In8  1  0.34588896  0.49115237  0.12759914  1
  In  In9  1  0.35306797  0.48614025  0.62857730  1
  In  In10  1  0.32799913  0.83475293  0.12439843  1
  In  In11  1  0.31683188  0.81083089  0.63326623  1
  In  In12  1  0.67035998  0.15659217  0.12419601  1
  In  In13  1  0.66635064  0.16269556  0.62722711  1
  In  In14  1  0.66219949  0.51933920  0.11931432  1
  In  In15  1  0.66016348  0.50438175  0.63030214  1
  In  In16  1  0.64922121  0.81896915  0.10518934  1
  In  In17  1  0.67398918  0.82576210  0.63786088  1
  In  In18  1  0.17803012  0.01563221  0.36182094  1
  In  In19  1  0.16554222  0.00427725  0.88093079  1
  In  In20  1  0.17601512  0.31877775  0.38138077  1
  In  In21  1  0.15467459  0.33345468  0.85740272  1
  In  In22  1  0.17669432  0.65665808  0.37770615  1
  In  In23  1  0.18641887  0.69411337  0.85194165  1
  In  In24  1  0.49535476  0.01399634  0.37124493  1
  In  In25  1  0.50024678  -0.01072978  0.87896642  1
  In  In26  1  0.49110144  0.33566698  0.38382620  1
  In  In27  1  0.50198476  0.34285206  0.86723384  1
  In  In28  1  0.49440106  0.66014987  0.37161096  1
  In  In29  1  0.49991243  0.66914039  0.87864108  1
  In  In30  1  0.84237979  0.00236856  0.37012856  1
  In  In31  1  0.82730891  0.01228846  0.88087662  1
  In  In32  1  0.81966525  0.32625555  0.37881714  1
  In  In33  1  0.83178677  0.32945062  0.86852706  1
  In  In34  1  0.83501625  0.67959760  0.37200517  1
  In  In35  1  0.83260724  0.67714365  0.87449253  1
  In  In36  1  0.00243011  0.16403260  0.38010149  1
  In  In37  1  0.00189146  0.16632654  0.87352776  1
  In  In38  1  0.01228926  0.50661797  0.38081871  1
  In  In39  1  -0.00065103  0.51019129  0.86108647  1
  In  In40  1  -0.00950700  0.84008120  0.37238184  1
  In  In41  1  0.00674137  0.82793468  0.88384003  1
  In  In42  1  0.33535035  0.16624985  0.37173583  1
  In  In43  1  0.31878224  0.17257645  0.86697490  1
  In  In44  1  0.34414390  0.50917623  0.37169397  1
  In  In45  1  0.34072982  0.50806846  0.86582209  1
  In  In46  1  0.32963423  0.83232584  0.36105555  1
  In  In47  1  0.34605734  0.83177358  0.88433184  1
  In  In48  1  0.65954277  0.16755686  0.38522887  1
  In  In49  1  0.67483412  0.18039255  0.86726070  1
  In  In50  1  0.65299566  0.49596487  0.37466631  1
  In  In51  1  0.65980966  0.49803071  0.87470828  1
  In  In52  1  0.67771841  0.83082806  0.36699035  1
  In  In53  1  0.65796884  0.83503163  0.87813594  1
  In  In54  1  0.16256721  0.00303769  0.12537696  1
  In  In55  1  0.16147163  0.00315360  0.62558140  1
  In  In56  1  0.17911272  0.33077963  0.12834994  1
  In  In57  1  0.20231598  0.29920794  0.67579717  1
  In  In58  1  0.17045494  0.67647903  0.11955762  1
  In  In59  1  0.20470240  0.60999345  0.68774952  1
  In  In60  1  0.49844578  -0.00852010  0.12774758  1
  In  In61  1  0.49424963  0.00942908  0.62463275  1
  In  In62  1  0.48667463  0.33396348  0.12231984  1
  In  In63  1  0.50068999  0.33359451  0.62324656  1
  In  In64  1  0.49562257  0.66565858  0.12046844  1
  In  In65  1  0.50762429  0.65869447  0.62902302  1
  In  In66  1  0.83783755  0.00010543  0.11856987  1
  In  In67  1  0.82798457  -0.00448408  0.62845057  1
  In  In68  1  0.83827447  0.32749865  0.12058010  1
  In  In69  1  0.84241701  0.31796218  0.63162765  1
  In  In70  1  0.81742454  0.67244272  0.11725369  1
  In  In71  1  0.84448824  0.65328760  0.63640514  1
  In  In72  1  0.33861479  -0.00382588  0.74989983  1
  In  In73  1  0.83188325  0.49848026  -0.01243801  1
  In  In74  1  0.18460613  0.48117131  0.52756374  1
  In  In75  1  0.82677781  0.49938110  0.50563643  1
  In  In76  1  0.50212190  0.83925606  0.49723751  1
  In  In77  1  0.00382331  0.67286883  0.24445500  1
  In  In78  1  0.17269575  0.50398402  -0.01822487  1
  In  In79  1  0.66163072  0.33263033  0.25290250  1
  In  In80  1  0.66531734  -0.00316056  0.24539983  1
  In  In81  1  0.49849777  0.16670768  0.00299235  1
  In  In82  1  0.16234468  0.83825765  0.50202614  1
  In  In83  1  0.00578894  0.32954815  0.26230257  1
  In  In84  1  -0.00007605  0.00088250  0.75316637  1
  In  In85  1  0.83535921  0.83626286  0.50415641  1
  Cu  Cu86  1  0.66408126  0.66414846  0.50424028  1
  Cu  Cu87  1  0.33203674  0.66556715  -0.00431655  1
  Cu  Cu88  1  0.83508296  0.15966305  0.74872400  1
  Cu  Cu89  1  -0.00543551  0.33602471  0.50249379  1
  Cu  Cu90  1  0.32905666  0.32845077  -0.00004361  1
  Cu  Cu91  1  0.33463406  0.66011216  0.50332758  1
  Cu  Cu92  1  0.66949084  0.00229165  -0.00133343  1
  Cu  Cu93  1  0.66274174  0.32684256  0.50447744  1
  Cu  Cu94  1  0.50503941  0.50809856  0.24928589  1
  Cu  Cu95  1  0.00116320  0.00691435  0.49843207  1
  Cu  Cu96  1  0.49767711  0.82897792  0.75619910  1
  Cu  Cu97  1  -0.00563882  0.66522463  -0.00327350  1
  Cu  Cu98  1  0.01069153  0.32642880  -0.00702890  1
  Cu  Cu99  1  0.01046905  0.66220985  0.51042694  1
  Cu  Cu100  1  0.83059563  0.83338980  0.24142009  1
  Cu  Cu101  1  0.50260930  0.16637036  0.74538525  1
  Cu  Cu102  1  0.16075783  0.83365525  0.24115316  1
  Cu  Cu103  1  0.81755360  0.50294150  0.75429338  1
  Cu  Cu104  1  0.15985827  0.16665092  0.25243446  1
  Cu  Cu105  1  0.50309124  0.50008554  0.75084686  1
  Cu  Cu106  1  0.32663115  0.00579355  0.49514850  1
  Cu  Cu107  1  0.83625957  0.50553058  0.24354663  1
  Cu  Cu108  1  0.32547234  0.00452435  0.00258104  1
  Cu  Cu109  1  0.18262522  0.50251933  0.24983117  1
  Cu  Cu110  1  0.00100599  0.00269630  -0.00251319  1
  Cu  Cu111  1  0.82139914  0.84350859  0.75702310  1
  Cu  Cu112  1  0.66464753  0.00430944  0.50444971  1
  Cu  Cu113  1  0.67067571  0.33176414  -0.00811371  1
  Cu  Cu114  1  0.49787944  0.82850306  0.24172793  1
  Se  Se115  1  0.08298389  0.08508074  0.05345257  1
  Se  Se116  1  0.09115153  0.08389630  0.55063875  1
  Se  Se117  1  0.09056950  0.41006053  0.04972417  1
  Se  Se118  1  0.06652243  0.41357002  0.56702949  1
  Se  Se119  1  0.08238071  0.74499684  0.04918564  1
  Se  Se120  1  0.09406602  0.74045122  0.56630946  1
  Se  Se121  1  0.40731709  0.08168175  0.06405263  1
  Se  Se122  1  0.41776339  0.08045976  0.54752631  1
  Se  Se123  1  0.41391168  0.41432720  0.04817877  1
  Se  Se124  1  0.41921986  0.41102062  0.55101211  1
  Se  Se125  1  0.40720788  0.74902554  0.05585051  1
  Se  Se126  1  0.41421503  0.74777527  0.55912803  1
  Se  Se127  1  0.75227420  0.08494429  0.05172669  1
  Se  Se128  1  0.75207672  0.08023443  0.55848065  1
  Se  Se129  1  0.74684054  0.41295242  0.05702151  1
  Se  Se130  1  0.74318002  0.40602520  0.56553504  1
  Se  Se131  1  0.75432085  0.75818247  0.04444849  1
  Se  Se132  1  0.74958599  0.74003040  0.56167499  1
  Se  Se133  1  0.24836115  0.24674089  0.05448845  1
  Se  Se134  1  0.23635338  0.26676350  0.57160498  1
  Se  Se135  1  0.25508231  0.58165784  0.05680201  1
  Se  Se136  1  0.25895962  0.59421813  0.57359659  1
  Se  Se137  1  0.24519759  0.91942013  0.05686602  1
  Se  Se138  1  0.26126967  0.92051072  0.56173460  1
  Se  Se139  1  0.59280619  0.25793157  0.05948060  1
  Se  Se140  1  0.58188573  0.24289480  0.55814613  1
  Se  Se141  1  0.57449977  0.58405678  0.04938737  1
  Se  Se142  1  0.58150814  0.57950233  0.55393751  1
  Se  Se143  1  0.57930910  0.92643420  0.05049899  1
  Se  Se144  1  0.59371552  0.91674534  0.56422458  1
  Se  Se145  1  0.92476084  0.25370538  0.05199077  1
  Se  Se146  1  0.91436820  0.24647997  0.55168503  1
  Se  Se147  1  0.92166788  0.58121130  0.05751077  1
  Se  Se148  1  0.92509629  0.57947699  0.56198174  1
  Se  Se149  1  0.91569100  0.91794077  0.04765628  1
  Se  Se150  1  0.93212891  0.92087856  0.56214346  1
  Se  Se151  1  0.07717416  0.25518378  0.44663453  1
  Se  Se152  1  0.09356379  0.24969877  0.93597859  1
  Se  Se153  1  0.09484412  0.58183793  0.45463589  1
  Se  Se154  1  0.07650842  0.59542374  0.93295404  1
  Se  Se155  1  0.07908644  0.92701363  0.43611764  1
  Se  Se156  1  0.08610647  0.91847933  0.94771626  1
  Se  Se157  1  0.40958693  0.24724375  0.44501867  1
  Se  Se158  1  0.41208536  0.25287223  0.93755093  1
  Se  Se159  1  0.42084485  0.58415290  0.44856971  1
  Se  Se160  1  0.41378596  0.58143856  0.94354211  1
  Se  Se161  1  0.40350186  0.91968692  0.43762905  1
  Se  Se162  1  0.41506518  0.92394390  0.95366747  1
  Se  Se163  1  0.74813743  0.24553563  0.45233865  1
  Se  Se164  1  0.75653611  0.24931014  0.94382740  1
  Se  Se165  1  0.74656345  0.59243191  0.43884538  1
  Se  Se166  1  0.73895653  0.59400233  0.94090377  1
  Se  Se167  1  0.74344105  0.92386174  0.44225895  1
  Se  Se168  1  0.74764670  0.91927996  0.94258046  1
  Se  Se169  1  0.24469932  0.08851935  0.44221257  1
  Se  Se170  1  0.25264596  0.08942823  0.94383013  1
  Se  Se171  1  0.25455951  0.42147597  0.43904707  1
  Se  Se172  1  0.25814215  0.40466973  0.93012621  1
  Se  Se173  1  0.25989406  0.74683826  0.44440123  1
  Se  Se174  1  0.24902115  0.74874599  0.94260697  1
  Se  Se175  1  0.57744271  0.07880896  0.44889959  1
  Se  Se176  1  0.59006124  0.08522555  0.93864258  1
  Se  Se177  1  0.58598798  0.41262577  0.44837037  1
  Se  Se178  1  0.58180233  0.41257339  0.94449684  1
  Se  Se179  1  0.59400579  0.74776563  0.43971842  1
  Se  Se180  1  0.56245276  0.76833265  0.94512657  1
  Se  Se181  1  0.91223606  0.08292991  0.44560469  1
  Se  Se182  1  0.92009994  0.08867311  0.94489722  1
  Se  Se183  1  0.91977202  0.41474941  0.43842741  1
  Se  Se184  1  0.93150447  0.41112159  0.93534881  1
  Se  Se185  1  0.93136881  0.74085632  0.44831704  1
  Se  Se186  1  0.91212030  0.75288277  0.94835982  1
  Se  Se187  1  0.24790035  0.24853187  0.30260702  1
  Se  Se188  1  0.25371652  0.26145290  0.79334980  1
  Se  Se189  1  0.25923084  0.59084057  0.30255352  1
  Se  Se190  1  0.23041812  0.56824609  0.80692720  1
  Se  Se191  1  0.24305854  0.91501166  0.29789312  1
  Se  Se192  1  0.25163939  0.91489202  0.81596360  1
  Se  Se193  1  0.57387652  0.24470052  0.31279822  1
  Se  Se194  1  0.57985727  0.25157714  0.80249173  1
  Se  Se195  1  0.58867327  0.58819761  0.30430812  1
  Se  Se196  1  0.57934335  0.58448542  0.80819232  1
  Se  Se197  1  0.57429926  0.90709060  0.30766135  1
  Se  Se198  1  0.57930207  0.91772219  0.80394927  1
  Se  Se199  1  0.90463415  0.24268561  0.31075729  1
  Se  Se200  1  0.91610355  0.24391118  0.80395888  1
  Se  Se201  1  0.91771388  0.57903131  0.30816439  1
  Se  Se202  1  0.90290247  0.58840707  0.80293693  1
  Se  Se203  1  0.91174394  0.91397770  0.29836171  1
  Se  Se204  1  0.91032052  0.91530954  0.81540392  1
  Se  Se205  1  0.07308175  0.08452334  0.30321528  1
  Se  Se206  1  0.09752286  0.09121705  0.80364322  1
  Se  Se207  1  0.10052035  0.42701538  0.31219639  1
  Se  Se208  1  0.07233681  0.42142977  0.79232772  1
  Se  Se209  1  0.09160497  0.75556886  0.31295760  1
  Se  Se210  1  0.06464720  0.74391579  0.80584796  1
  Se  Se211  1  0.40104876  0.07188158  0.30243570  1
  Se  Se212  1  0.42506701  0.09032265  0.81155829  1
  Se  Se213  1  0.42775507  0.42338088  0.30687374  1
  Se  Se214  1  0.41356492  0.41681528  0.79804780  1
  Se  Se215  1  0.41966902  0.74765170  0.30222133  1
  Se  Se216  1  0.41297981  0.74785557  0.80814969  1
  Se  Se217  1  0.74572292  0.08769464  0.31141974  1
  Se  Se218  1  0.74857012  0.08343274  0.80388027  1
  Se  Se219  1  0.75841746  0.42721711  0.30697713  1
  Se  Se220  1  0.74274677  0.41410788  0.80762435  1
  Se  Se221  1  0.75272363  0.74711565  0.29615528  1
  Se  Se222  1  0.74269495  0.75509036  0.80829619  1
  Se  Se223  1  0.24260654  0.08707178  0.19527468  1
  Se  Se224  1  0.25803450  0.08488938  0.68441282  1
  Se  Se225  1  0.25806003  0.41393234  0.19654401  1
  Se  Se226  1  0.23582765  0.44262416  0.68929133  1
  Se  Se227  1  0.24759454  0.74880031  0.19490548  1
  Se  Se228  1  0.24819251  0.74675890  0.71553020  1
  Se  Se229  1  0.57210543  0.09231935  0.19324200  1
  Se  Se230  1  0.58190566  0.07821495  0.69544261  1
  Se  Se231  1  0.58110800  0.42514112  0.18786278  1
  Se  Se232  1  0.58137733  0.41476137  0.69523093  1
  Se  Se233  1  0.58248395  0.74911483  0.18809642  1
  Se  Se234  1  0.57992060  0.74760623  0.69870299  1
  Se  Se235  1  0.90503719  0.08276081  0.19446174  1
  Se  Se236  1  0.91941513  0.08852454  0.68561974  1
  Se  Se237  1  0.91764056  0.41938120  0.19305054  1
  Se  Se238  1  0.89902300  0.42257979  0.69693778  1
  Se  Se239  1  0.91473032  0.75641589  0.18150730  1
  Se  Se240  1  0.89956767  0.76621231  0.69426648  1
  Se  Se241  1  0.08213470  0.24674298  0.18917197  1
  Se  Se242  1  0.06901946  0.25090205  0.70181046  1
  Se  Se243  1  0.09401968  0.57397158  0.18999947  1
  Se  Se244  1  0.05930608  0.60338884  0.68399889  1
  Se  Se245  1  0.07657508  0.91832582  0.19280705  1
  Se  Se246  1  0.09576040  0.90943537  0.69793615  1
  Se  Se247  1  0.42455210  0.24959492  0.19652124  1
  Se  Se248  1  0.41871307  0.24425676  0.68947106  1
  Se  Se249  1  0.41749819  0.58422123  0.19408042  1
  Se  Se250  1  0.41884953  0.58234069  0.69672581  1
  Se  Se251  1  0.41254379  0.91436550  0.19531838  1
  Se  Se252  1  0.42147024  0.90149671  0.68649141  1
  Se  Se253  1  0.75449476  0.24592570  0.19237433  1
  Se  Se254  1  0.74973099  0.24367224  0.69714188  1
  Se  Se255  1  0.75171956  0.58589351  0.19211916  1
  Se  Se256  1  0.74085993  0.58916980  0.69806735  1
  Se  Se257  1  0.74588967  0.90685586  0.18066867  1
  Se  Se258  1  0.74203278  0.92548279  0.70101434  1
