# generated using pymatgen
data_In86Cu29Se144
_symmetry_space_group_name_H-M   'P 1'
_cell_length_a   17.57732786
_cell_length_b   17.58335906
_cell_length_c   23.43759364
_cell_angle_alpha   90.00580783
_cell_angle_beta   90.01395240
_cell_angle_gamma   90.02624262
_symmetry_Int_Tables_number   1
_chemical_formula_structural   In86Cu29Se144
_chemical_formula_sum   'In86 Cu29 Se144'
_cell_volume   7243.82012705
_cell_formula_units_Z   1
loop_
 _symmetry_equiv_pos_site_id
 _symmetry_equiv_pos_as_xyz
  1  'x, y, z'
loop_
 _atom_site_type_symbol
 _atom_site_label
 _atom_site_symmetry_multiplicity
 _atom_site_fract_x
 _atom_site_fract_y
 _atom_site_fract_z
 _atom_site_occupancy
  In  In0  1  0.00417820  0.16442229  0.11243346  1
  In  In1  1  0.00508632  0.16359852  0.63668872  1
  In  In2  1  0.01654693  0.49689593  0.12424228  1
  In  In3  1  0.00168313  0.50390266  0.62774882  1
  In  In4  1  0.00105011  0.83184836  0.11902265  1
  In  In5  1  0.00328298  0.83289249  0.62733244  1
  In  In6  1  0.32460609  0.17187871  0.13447611  1
  In  In7  1  0.34835719  0.15646600  0.63722448  1
  In  In8  1  0.31622520  0.49987176  0.12483037  1
  In  In9  1  0.33211102  0.49970289  0.62864610  1
  In  In10  1  0.33058530  0.85002843  0.12139376  1
  In  In11  1  0.31589505  0.84297674  0.63014617  1
  In  In12  1  0.66281980  0.16223326  0.11632420  1
  In  In13  1  0.65533048  0.18312380  0.63543597  1
  In  In14  1  0.66839341  0.50036817  0.12280238  1
  In  In15  1  0.66908565  0.49905681  0.62438775  1
  In  In16  1  0.67833305  0.83143715  0.11506840  1
  In  In17  1  0.66894675  0.81765677  0.63000882  1
  In  In18  1  0.16669950  -0.00508053  0.37217213  1
  In  In19  1  0.16905394  0.00206660  0.87696208  1
  In  In20  1  0.18300533  0.32832500  0.37978892  1
  In  In21  1  0.16555034  0.33651341  0.87345428  1
  In  In22  1  0.15724310  0.67409858  0.38270012  1
  In  In23  1  0.16561027  0.66536227  0.87320617  1
  In  In24  1  0.49049449  0.01622237  0.38738989  1
  In  In25  1  0.47675864  0.00650490  0.86844591  1
  In  In26  1  0.49285097  0.33523819  0.38302248  1
  In  In27  1  0.50523071  0.32294914  0.85782675  1
  In  In28  1  0.48798535  0.65776055  0.38172902  1
  In  In29  1  0.49900709  0.66565602  0.86288158  1
  In  In30  1  0.82253736  -0.00227161  0.38120441  1
  In  In31  1  0.84559827  -0.01424359  0.88128795  1
  In  In32  1  0.84517962  0.33838291  0.37983391  1
  In  In33  1  0.82510455  0.32072752  0.86929935  1
  In  In34  1  0.84185502  0.66143508  0.38387829  1
  In  In35  1  0.83553408  0.67043180  0.86712259  1
  In  In36  1  0.00957503  0.16319093  0.37389002  1
  In  In37  1  0.00283808  0.16454260  0.87511726  1
  In  In38  1  -0.00920995  0.51016792  0.38757336  1
  In  In39  1  0.00629536  0.51105695  0.86600149  1
  In  In40  1  0.01229133  0.82276513  0.38197803  1
  In  In41  1  0.00114823  0.82933567  0.87132807  1
  In  In42  1  0.33788532  0.17626219  0.36392644  1
  In  In43  1  0.31898985  0.15641101  0.86029968  1
  In  In44  1  0.34056737  0.49116855  0.38987225  1
  In  In45  1  0.32586695  0.48958251  0.86679941  1
  In  In46  1  0.31982162  0.83247400  0.37854872  1
  In  In47  1  0.32678388  0.83116012  0.87198119  1
  In  In48  1  0.65688509  0.15486990  0.37815448  1
  In  In49  1  0.66754902  0.18211662  0.87532956  1
  In  In50  1  0.66546399  0.49812198  0.38579858  1
  In  In51  1  0.66599161  0.49439034  0.86270477  1
  In  In52  1  0.67370134  0.84515365  0.38123830  1
  In  In53  1  0.67724051  0.83004184  0.87567408  1
  In  In54  1  0.18782471  0.01264423  0.10014675  1
  In  In55  1  0.17837505  -0.01079834  0.63072642  1
  In  In56  1  0.17287049  0.33495311  0.11852183  1
  In  In57  1  0.15958856  0.34074586  0.63456265  1
  In  In58  1  0.15506481  0.65901324  0.11821871  1
  In  In59  1  0.16490924  0.66774095  0.62886948  1
  In  In60  1  0.48960586  0.00840358  0.12973863  1
  In  In61  1  0.47421858  0.00026746  0.62072808  1
  In  In62  1  0.48104073  0.32079118  0.12453141  1
  In  In63  1  0.49474080  0.33219148  0.62818049  1
  In  In64  1  0.49849201  0.65435109  0.12363854  1
  In  In65  1  0.50840182  0.65606000  0.63196219  1
  In  In66  1  0.83568379  0.00209753  0.11215290  1
  In  In67  1  0.84873731  0.00062621  0.62637499  1
  In  In68  1  0.84570538  0.33728438  0.11504322  1
  In  In69  1  0.82556715  0.34340120  0.63287313  1
  In  In70  1  0.84298219  0.68497189  0.11707711  1
  In  In71  1  0.83644331  0.66587114  0.62718098  1
  In  In72  1  0.82711038  0.17043916  0.50343853  1
  In  In73  1  0.32287770  0.67062117  0.25948920  1
  In  In74  1  0.66217671  0.33611472  0.25193344  1
  In  In75  1  0.49719199  0.16988838  -0.00560731  1
  In  In76  1  0.49736607  0.83649785  -0.00824522  1
  In  In77  1  0.66730115  0.67093032  0.24393239  1
  In  In78  1  0.01364693  0.33219801  0.24631001  1
  In  In79  1  0.50484592  0.50045977  -0.01366513  1
  In  In80  1  0.65965083  0.00139428  0.23933310  1
  In  In81  1  0.50262591  0.82399759  0.50531100  1
  In  In82  1  0.00752658  -0.00339262  0.25130977  1
  In  In83  1  0.66187106  -0.00033315  0.75821228  1
  In  In84  1  0.83622111  0.49689963  -0.01303814  1
  In  In85  1  0.17337463  0.16584738  0.50263101  1
  Cu  Cu86  1  0.65998663  0.33469185  0.50752942  1
  Cu  Cu87  1  0.84381527  0.82803167  0.24981175  1
  Cu  Cu88  1  0.00277959  -0.00888817  0.50159884  1
  Cu  Cu89  1  0.84249907  0.51171629  0.25607351  1
  Cu  Cu90  1  0.00621035  0.32642664  -0.00500470  1
  Cu  Cu91  1  0.00073757  -0.00513051  -0.00651596  1
  Cu  Cu92  1  0.16561042  0.49705121  0.25307794  1
  Cu  Cu93  1  0.32625777  0.67064991  -0.00196785  1
  Cu  Cu94  1  0.66727200  -0.00130237  0.50586510  1
  Cu  Cu95  1  0.83137994  0.17022618  0.24236043  1
  Cu  Cu96  1  0.16536332  0.83382838  0.24919049  1
  Cu  Cu97  1  0.16474915  0.17107450  0.75356103  1
  Cu  Cu98  1  0.49301441  0.49502565  0.25838578  1
  Cu  Cu99  1  0.83663583  0.50047997  0.74758576  1
  Cu  Cu100  1  0.00114154  0.67042006  0.50786563  1
  Cu  Cu101  1  0.83662281  0.83137573  0.75125254  1
  Cu  Cu102  1  0.84023492  0.16209286  0.75319377  1
  Cu  Cu103  1  0.67279761  0.66221107  0.50724762  1
  Cu  Cu104  1  0.16739096  0.50405385  0.74899536  1
  Cu  Cu105  1  0.16362578  0.83374201  0.75308171  1
  Cu  Cu106  1  0.33078183  0.66230374  0.50768264  1
  Cu  Cu107  1  0.33400189  0.33250577  0.50707105  1
  Cu  Cu108  1  0.50215928  0.49826922  0.74364964  1
  Cu  Cu109  1  0.33116534  0.33525840  -0.00476093  1
  Cu  Cu110  1  0.66732460  0.00252609  -0.00366664  1
  Cu  Cu111  1  -0.00044587  0.34155082  0.50929456  1
  Cu  Cu112  1  0.50098976  0.84323408  0.24829878  1
  Cu  Cu113  1  -0.00126165  0.66630468  -0.00866276  1
  Cu  Cu114  1  0.49107670  0.83208422  0.74439620  1
  Se  Se115  1  0.08419915  0.08355267  0.04240528  1
  Se  Se116  1  0.07814378  0.07756605  0.56033771  1
  Se  Se117  1  0.08507139  0.41332540  0.04994164  1
  Se  Se118  1  0.08800042  0.42202572  0.55845492  1
  Se  Se119  1  0.08083914  0.74751198  0.04909623  1
  Se  Se120  1  0.08822823  0.75398574  0.55694772  1
  Se  Se121  1  0.40771242  0.08419260  0.05651878  1
  Se  Se122  1  0.40837020  0.08938780  0.55002083  1
  Se  Se123  1  0.41111888  0.41877397  0.05410996  1
  Se  Se124  1  0.41669682  0.41869346  0.55842559  1
  Se  Se125  1  0.41265006  0.74267856  0.05882696  1
  Se  Se126  1  0.40997910  0.74345672  0.56871792  1
  Se  Se127  1  0.75042697  0.08781749  0.04792418  1
  Se  Se128  1  0.74273730  0.08198371  0.56867761  1
  Se  Se129  1  0.74368084  0.41163483  0.05253923  1
  Se  Se130  1  0.75179575  0.41530038  0.55378022  1
  Se  Se131  1  0.74977260  0.74501113  0.04618528  1
  Se  Se132  1  0.75422101  0.75047054  0.55577777  1
  Se  Se133  1  0.25650029  0.24870149  0.05340254  1
  Se  Se134  1  0.25375244  0.25464504  0.56915669  1
  Se  Se135  1  0.24643185  0.58262791  0.05087066  1
  Se  Se136  1  0.24541730  0.58056751  0.56018957  1
  Se  Se137  1  0.23766997  0.89624478  0.04510229  1
  Se  Se138  1  0.25229979  0.92202366  0.55065930  1
  Se  Se139  1  0.58523887  0.26405431  0.05569048  1
  Se  Se140  1  0.57694714  0.24831469  0.55603431  1
  Se  Se141  1  0.59394333  0.59131640  0.05168062  1
  Se  Se142  1  0.58328800  0.58092590  0.55488426  1
  Se  Se143  1  0.58454291  0.92829672  0.05963326  1
  Se  Se144  1  0.58750381  0.91876178  0.56716897  1
  Se  Se145  1  0.91742233  0.24761273  0.04726537  1
  Se  Se146  1  0.92245454  0.25247746  0.56428223  1
  Se  Se147  1  0.92413718  0.58192543  0.05575459  1
  Se  Se148  1  0.91722539  0.58297723  0.55660274  1
  Se  Se149  1  0.91726007  0.91334338  0.04963170  1
  Se  Se150  1  0.91676340  0.91200763  0.55493734  1
  Se  Se151  1  0.07440452  0.25836797  0.44654784  1
  Se  Se152  1  0.09188271  0.24493563  0.94273641  1
  Se  Se153  1  0.08360665  0.58550332  0.45281331  1
  Se  Se154  1  0.08475768  0.58031310  0.94435130  1
  Se  Se155  1  0.09011257  0.91574850  0.44588404  1
  Se  Se156  1  0.08378152  0.91225063  0.94031915  1
  Se  Se157  1  0.40861264  0.24789382  0.44700133  1
  Se  Se158  1  0.40904753  0.25807471  0.93247037  1
  Se  Se159  1  0.41883070  0.57963275  0.45822079  1
  Se  Se160  1  0.40669852  0.59193688  0.93699012  1
  Se  Se161  1  0.41217254  0.91351485  0.44645575  1
  Se  Se162  1  0.39975284  0.92884179  0.94526215  1
  Se  Se163  1  0.73808047  0.25955468  0.43892782  1
  Se  Se164  1  0.75233317  0.24969279  0.94865322  1
  Se  Se165  1  0.75388305  0.58029253  0.44917058  1
  Se  Se166  1  0.74139922  0.58686568  0.93402245  1
  Se  Se167  1  0.75430686  0.91550461  0.45744037  1
  Se  Se168  1  0.74991777  0.91371604  0.94833051  1
  Se  Se169  1  0.25648142  0.08213899  0.43525775  1
  Se  Se170  1  0.25523129  0.08618253  0.94260597  1
  Se  Se171  1  0.24726181  0.41474391  0.45515168  1
  Se  Se172  1  0.24690527  0.42094563  0.94508669  1
  Se  Se173  1  0.25122170  0.74579622  0.45100429  1
  Se  Se174  1  0.24466383  0.75230379  0.94332904  1
  Se  Se175  1  0.58300587  0.08479808  0.45750786  1
  Se  Se176  1  0.58485119  0.07454404  0.93378273  1
  Se  Se177  1  0.57811470  0.41755135  0.45029564  1
  Se  Se178  1  0.59103658  0.40173661  0.93449244  1
  Se  Se179  1  0.59483144  0.73816229  0.43976426  1
  Se  Se180  1  0.58597752  0.74012844  0.93907759  1
  Se  Se181  1  0.92392864  0.07893763  0.44423956  1
  Se  Se182  1  0.91696815  0.08362854  0.94509868  1
  Se  Se183  1  0.91236663  0.42031670  0.45512174  1
  Se  Se184  1  0.92905940  0.40684088  0.93190402  1
  Se  Se185  1  0.91856058  0.75244906  0.44993720  1
  Se  Se186  1  0.91338479  0.74948450  0.94113841  1
  Se  Se187  1  0.24292763  0.25105950  0.30005405  1
  Se  Se188  1  0.24956690  0.25963017  0.80071027  1
  Se  Se189  1  0.24281648  0.57307385  0.31901130  1
  Se  Se190  1  0.25179035  0.58586943  0.80332073  1
  Se  Se191  1  0.25081135  0.91411142  0.30240355  1
  Se  Se192  1  0.24895654  0.91914962  0.80381191  1
  Se  Se193  1  0.57593340  0.24421294  0.31126208  1
  Se  Se194  1  0.59399048  0.24325916  0.79319074  1
  Se  Se195  1  0.57961212  0.57942157  0.30886342  1
  Se  Se196  1  0.58498633  0.58251931  0.79759833  1
  Se  Se197  1  0.57943532  0.91785843  0.31232876  1
  Se  Se198  1  0.56823935  0.90540960  0.81398345  1
  Se  Se199  1  0.91283684  0.24306378  0.30583470  1
  Se  Se200  1  0.92192816  0.24933642  0.80457751  1
  Se  Se201  1  0.92599071  0.59250461  0.30815040  1
  Se  Se202  1  0.91778280  0.58821023  0.79859535  1
  Se  Se203  1  0.91245993  0.91303687  0.31405584  1
  Se  Se204  1  0.92041280  0.91630153  0.80179361  1
  Se  Se205  1  0.09943224  0.09587622  0.30138515  1
  Se  Se206  1  0.08495315  0.08194831  0.80541868  1
  Se  Se207  1  0.08485122  0.42239422  0.31839008  1
  Se  Se208  1  0.08456909  0.41897861  0.80198019  1
  Se  Se209  1  0.08488563  0.74868642  0.30295322  1
  Se  Se210  1  0.08147615  0.74473453  0.80210205  1
  Se  Se211  1  0.41889439  0.07861034  0.30591552  1
  Se  Se212  1  0.42797002  0.10350144  0.79635338  1
  Se  Se213  1  0.40970600  0.41349761  0.31066820  1
  Se  Se214  1  0.42058547  0.41744237  0.80078568  1
  Se  Se215  1  0.42678932  0.75890036  0.31027730  1
  Se  Se216  1  0.40971726  0.74982057  0.80185571  1
  Se  Se217  1  0.75514636  0.08889611  0.30378765  1
  Se  Se218  1  0.75967633  0.08365663  0.81576558  1
  Se  Se219  1  0.75987875  0.42665009  0.30920214  1
  Se  Se220  1  0.75488353  0.41296760  0.79910371  1
  Se  Se221  1  0.75494793  0.75672036  0.30964486  1
  Se  Se222  1  0.74616623  0.74971791  0.79879895  1
  Se  Se223  1  0.25129252  0.06682036  0.18938016  1
  Se  Se224  1  0.24532032  0.08684783  0.69770812  1
  Se  Se225  1  0.24567211  0.41461501  0.19712336  1
  Se  Se226  1  0.25219176  0.41716818  0.70030227  1
  Se  Se227  1  0.24433930  0.75293737  0.18698272  1
  Se  Se228  1  0.24785593  0.75012052  0.69947210  1
  Se  Se229  1  0.57032467  0.10514963  0.19425654  1
  Se  Se230  1  0.57566007  0.07633590  0.68792505  1
  Se  Se231  1  0.57097927  0.42477527  0.18953018  1
  Se  Se232  1  0.58714258  0.41427684  0.69249451  1
  Se  Se233  1  0.57410709  0.76260249  0.18510455  1
  Se  Se234  1  0.58193463  0.74773801  0.70134146  1
  Se  Se235  1  0.91429604  0.08670766  0.18850207  1
  Se  Se236  1  0.92279248  0.07648878  0.70262750  1
  Se  Se237  1  0.91348002  0.42442256  0.19388735  1
  Se  Se238  1  0.92184946  0.41596098  0.69675657  1
  Se  Se239  1  0.92627946  0.74865676  0.19465060  1
  Se  Se240  1  0.91942825  0.74940182  0.69578456  1
  Se  Se241  1  0.09343880  0.23687347  0.18602401  1
  Se  Se242  1  0.07899712  0.25509188  0.70285130  1
  Se  Se243  1  0.08556591  0.58188627  0.19847632  1
  Se  Se244  1  0.08058845  0.58755706  0.69891615  1
  Se  Se245  1  0.09347867  0.91557287  0.18422746  1
  Se  Se246  1  0.08295273  0.91853598  0.69723887  1
  Se  Se247  1  0.40823012  0.25400430  0.20259194  1
  Se  Se248  1  0.41776969  0.25231336  0.70200365  1
  Se  Se249  1  0.41439990  0.57797958  0.19821346  1
  Se  Se250  1  0.41379451  0.58467748  0.69846385  1
  Se  Se251  1  0.41181124  0.92122499  0.19761192  1
  Se  Se252  1  0.40721421  0.91990506  0.69832542  1
  Se  Se253  1  0.75374547  0.25199241  0.18465575  1
  Se  Se254  1  0.75779855  0.24485724  0.69920719  1
  Se  Se255  1  0.76317698  0.58103297  0.18829201  1
  Se  Se256  1  0.75065322  0.58268431  0.69414600  1
  Se  Se257  1  0.76349842  0.91065187  0.19077109  1
  Se  Se258  1  0.75427027  0.91500546  0.69319449  1
