# generated using pymatgen
data_In86Cu29Se144
_symmetry_space_group_name_H-M   'P 1'
_cell_length_a   17.59829895
_cell_length_b   17.59199372
_cell_length_c   23.45525052
_cell_angle_alpha   90.00679847
_cell_angle_beta   89.97749266
_cell_angle_gamma   89.99937665
_symmetry_Int_Tables_number   1
_chemical_formula_structural   In86Cu29Se144
_chemical_formula_sum   'In86 Cu29 Se144'
_cell_volume   7261.49080323
_cell_formula_units_Z   1
loop_
 _symmetry_equiv_pos_site_id
 _symmetry_equiv_pos_as_xyz
  1  'x, y, z'
loop_
 _atom_site_type_symbol
 _atom_site_label
 _atom_site_symmetry_multiplicity
 _atom_site_fract_x
 _atom_site_fract_y
 _atom_site_fract_z
 _atom_site_occupancy
  In  In0  1  -0.00417610  0.16010800  0.12162160  1
  In  In1  1  -0.00623294  0.17057004  0.63269333  1
  In  In2  1  0.00104892  0.50762445  0.12907872  1
  In  In3  1  -0.00426326  0.50949635  0.61885453  1
  In  In4  1  -0.01421912  0.82257815  0.12770502  1
  In  In5  1  0.00144564  0.82759214  0.61845908  1
  In  In6  1  0.33535089  0.17302505  0.13421826  1
  In  In7  1  0.35086668  0.16437041  0.61525785  1
  In  In8  1  0.33426003  0.49676207  0.13791090  1
  In  In9  1  0.33694934  0.50508874  0.63167891  1
  In  In10  1  0.34586226  0.81734650  0.13988158  1
  In  In11  1  0.31939989  0.83077155  0.61301296  1
  In  In12  1  0.65467489  0.17489649  0.12035627  1
  In  In13  1  0.65877669  0.17701460  0.63558022  1
  In  In14  1  0.68083911  0.51530933  0.10796414  1
  In  In15  1  0.65914740  0.49837768  0.62459387  1
  In  In16  1  0.65424171  0.83233236  0.12501426  1
  In  In17  1  0.68343152  0.81789950  0.62707581  1
  In  In18  1  0.17044515  -0.01914628  0.38138961  1
  In  In19  1  0.16842362  0.00719793  0.86788897  1
  In  In20  1  0.18366790  0.34047613  0.37678463  1
  In  In21  1  0.17745409  0.34410930  0.86144844  1
  In  In22  1  0.17211859  0.66030973  0.38245362  1
  In  In23  1  0.16337694  0.66285667  0.86669501  1
  In  In24  1  0.50635951  0.01463198  0.38574471  1
  In  In25  1  0.50079638  -0.01694396  0.87503082  1
  In  In26  1  0.48953839  0.34303461  0.38393060  1
  In  In27  1  0.53529268  0.40209297  0.81337517  1
  In  In28  1  0.49539628  0.66687811  0.37389129  1
  In  In29  1  0.50523616  0.66927612  0.87430995  1
  In  In30  1  0.82602214  -0.03115266  0.38073185  1
  In  In31  1  0.82607175  -0.00651016  0.85793987  1
  In  In32  1  0.84147871  0.33721496  0.37371536  1
  In  In33  1  0.83100447  0.34518728  0.86840848  1
  In  In34  1  0.82387160  0.66663571  0.37781612  1
  In  In35  1  0.81679589  0.64661880  0.85963925  1
  In  In36  1  0.00065430  0.16997828  0.38003057  1
  In  In37  1  0.00029121  0.16649037  0.85881117  1
  In  In38  1  -0.02835836  0.53409661  0.40561711  1
  In  In39  1  -0.00869715  0.49233699  0.86314094  1
  In  In40  1  0.02285520  0.78022497  0.42596958  1
  In  In41  1  -0.01273747  0.82322792  0.86153651  1
  In  In42  1  0.34577867  0.17758044  0.37140173  1
  In  In43  1  0.33245037  0.17296312  0.87542464  1
  In  In44  1  0.33663560  0.50063998  0.37738186  1
  In  In45  1  0.36906752  0.53135811  0.83539603  1
  In  In46  1  0.32946902  0.82590906  0.36940944  1
  In  In47  1  0.35401486  0.83249657  0.87580084  1
  In  In48  1  0.65550265  0.14864848  0.38342010  1
  In  In49  1  0.66665133  0.17595216  0.86267280  1
  In  In50  1  0.64882972  0.51578476  0.39613094  1
  In  In51  1  0.66932423  0.50843649  0.88044404  1
  In  In52  1  0.68449258  0.82772655  0.38907289  1
  In  In53  1  0.64922440  0.81643212  0.85748658  1
  In  In54  1  0.17247076  0.01040526  0.13169413  1
  In  In55  1  0.17010576  -0.02025589  0.61615671  1
  In  In56  1  0.17611364  0.34456877  0.12615978  1
  In  In57  1  0.15418910  0.34552529  0.63445377  1
  In  In58  1  0.16394714  0.66278778  0.13633207  1
  In  In59  1  0.16206456  0.67190580  0.61650756  1
  In  In60  1  0.50371332  -0.01145236  0.13004531  1
  In  In61  1  0.49893177  0.01139772  0.61789541  1
  In  In62  1  0.49397663  0.34153604  0.12437300  1
  In  In63  1  0.49812014  0.33720041  0.63218490  1
  In  In64  1  0.50120374  0.66060200  0.12782728  1
  In  In65  1  0.51611363  0.64033094  0.64237390  1
  In  In66  1  0.82384539  -0.00628593  0.12100831  1
  In  In67  1  0.83655883  -0.00437823  0.63107194  1
  In  In68  1  0.81961621  0.35333762  0.12496870  1
  In  In69  1  0.81837991  0.34798019  0.63612174  1
  In  In70  1  0.83709859  0.65926189  0.13182764  1
  In  In71  1  0.83899912  0.66379433  0.61285298  1
  In  In72  1  0.17385878  0.83133693  0.00311150  1
  In  In73  1  0.00727105  -0.01396094  0.26665983  1
  In  In74  1  0.50159801  0.17996295  -0.00266100  1
  In  In75  1  0.16988435  0.17060187  -0.01216333  1
  In  In76  1  0.17011226  0.50241553  0.00213679  1
  In  In77  1  0.82710991  0.17197722  0.50147192  1
  In  In78  1  0.66526987  0.33620214  0.24879624  1
  In  In79  1  0.32970980  -0.00346021  0.74184774  1
  In  In80  1  0.17043199  0.16937331  0.49947450  1
  In  In81  1  0.02330375  0.33965357  0.25374684  1
  In  In82  1  0.83638115  0.17634616  -0.01995679  1
  In  In83  1  0.49957373  0.82335468  0.50411916  1
  In  In84  1  0.82341385  0.82547137  -0.00626151  1
  In  In85  1  0.66616861  -0.01329700  0.26053792  1
  Cu  Cu86  1  0.34444512  0.66842167  -0.00074695  1
  Cu  Cu87  1  -0.00799890  0.65854277  0.00220890  1
  Cu  Cu88  1  0.16556013  0.50281575  0.26108365  1
  Cu  Cu89  1  -0.00074727  0.34453737  0.50976138  1
  Cu  Cu90  1  0.82999214  0.50649485  0.25621831  1
  Cu  Cu91  1  0.84150592  0.83250393  0.73979046  1
  Cu  Cu92  1  0.66188002  0.33072242  0.50844471  1
  Cu  Cu93  1  0.83755368  0.50879816  0.74159987  1
  Cu  Cu94  1  0.50086850  0.50328506  0.25443699  1
  Cu  Cu95  1  0.66901237  0.00322784  -0.00252110  1
  Cu  Cu96  1  0.16245695  0.82914638  0.74430719  1
  Cu  Cu97  1  0.49933967  0.82778999  0.25312029  1
  Cu  Cu98  1  0.33785802  0.66050786  0.50115326  1
  Cu  Cu99  1  0.33619268  0.33925217  0.50459456  1
  Cu  Cu100  1  0.15930542  0.82540314  0.26021294  1
  Cu  Cu101  1  -0.00695472  0.00105968  0.50452630  1
  Cu  Cu102  1  0.34509346  -0.00847987  0.00850050  1
  Cu  Cu103  1  0.83835970  0.81468913  0.25708857  1
  Cu  Cu104  1  0.49402514  0.16635050  0.74656389  1
  Cu  Cu105  1  0.16345485  0.50555012  0.74109364  1
  Cu  Cu106  1  0.18176495  0.16611459  0.25240614  1
  Cu  Cu107  1  0.16182866  0.16055977  0.74257813  1
  Cu  Cu108  1  0.00622530  -0.00849611  -0.01085732  1
  Cu  Cu109  1  0.82985405  0.16929116  0.74758167  1
  Cu  Cu110  1  0.50289399  0.83133769  0.74499709  1
  Cu  Cu111  1  0.83563200  0.15740585  0.24835600  1
  Cu  Cu112  1  -0.00875627  0.33404760  -0.00834070  1
  Cu  Cu113  1  0.49841248  0.16794219  0.25493639  1
  Cu  Cu114  1  0.33682242  0.34250840  -0.00641173  1
  Se  Se115  1  0.08108672  0.07504179  0.05044928  1
  Se  Se116  1  0.07472985  0.08404660  0.55998624  1
  Se  Se117  1  0.07363740  0.40696845  0.05718100  1
  Se  Se118  1  0.08931444  0.42511948  0.55576833  1
  Se  Se119  1  0.07506475  0.74030112  0.05776347  1
  Se  Se120  1  0.08642715  0.75800443  0.54209266  1
  Se  Se121  1  0.41757283  0.08463115  0.06314713  1
  Se  Se122  1  0.40664289  0.06918845  0.54438491  1
  Se  Se123  1  0.40721856  0.42323995  0.05827972  1
  Se  Se124  1  0.41800273  0.42040583  0.56142859  1
  Se  Se125  1  0.42025422  0.75025527  0.05924260  1
  Se  Se126  1  0.41654821  0.73228610  0.56810122  1
  Se  Se127  1  0.74718863  0.08883177  0.05261712  1
  Se  Se128  1  0.74606991  0.08727294  0.56882155  1
  Se  Se129  1  0.75264624  0.41900423  0.04370516  1
  Se  Se130  1  0.74721452  0.41735389  0.55560249  1
  Se  Se131  1  0.74312612  0.74152854  0.06298094  1
  Se  Se132  1  0.76508548  0.75934892  0.54537739  1
  Se  Se133  1  0.25860015  0.25735288  0.05368764  1
  Se  Se134  1  0.25163491  0.26033048  0.56429498  1
  Se  Se135  1  0.25834316  0.59598931  0.06214466  1
  Se  Se136  1  0.25400239  0.58267253  0.55880267  1
  Se  Se137  1  0.25927476  0.91907221  0.06828099  1
  Se  Se138  1  0.26052986  0.92517985  0.54163109  1
  Se  Se139  1  0.59418524  0.27496225  0.05257573  1
  Se  Se140  1  0.57706431  0.25020289  0.56106234  1
  Se  Se141  1  0.56078781  0.56268050  0.05789631  1
  Se  Se142  1  0.57927369  0.58114240  0.55449650  1
  Se  Se143  1  0.58685575  0.92278818  0.05354782  1
  Se  Se144  1  0.58824340  0.90950478  0.56702707  1
  Se  Se145  1  0.91604319  0.25611009  0.05835440  1
  Se  Se146  1  0.91554998  0.26062576  0.56300692  1
  Se  Se147  1  0.91240717  0.57595533  0.05769899  1
  Se  Se148  1  0.92948992  0.59267005  0.54145122  1
  Se  Se149  1  0.92188851  0.91943778  0.05199143  1
  Se  Se150  1  0.91205759  0.91641404  0.55681861  1
  Se  Se151  1  0.07579573  0.26551311  0.44493623  1
  Se  Se152  1  0.07535686  0.26020255  0.93208854  1
  Se  Se153  1  0.08642605  0.58993069  0.45787619  1
  Se  Se154  1  0.07503351  0.58451410  0.94022692  1
  Se  Se155  1  0.07505920  0.91817337  0.44991147  1
  Se  Se156  1  0.08487890  0.90990362  0.93227818  1
  Se  Se157  1  0.41637759  0.25055102  0.45210903  1
  Se  Se158  1  0.41767019  0.26566880  0.93348049  1
  Se  Se159  1  0.42211970  0.58103453  0.44620475  1
  Se  Se160  1  0.41020566  0.58414960  0.93460375  1
  Se  Se161  1  0.41796171  0.91190864  0.43721836  1
  Se  Se162  1  0.42525598  0.90985404  0.95327705  1
  Se  Se163  1  0.73781683  0.25989723  0.43705188  1
  Se  Se164  1  0.73477937  0.26703814  0.93741558  1
  Se  Se165  1  0.76782445  0.56469360  0.44711995  1
  Se  Se166  1  0.75446974  0.59033358  0.94783859  1
  Se  Se167  1  0.71655947  0.94725446  0.44987222  1
  Se  Se168  1  0.74097667  0.92186473  0.93435645  1
  Se  Se169  1  0.25515706  0.08419695  0.43458345  1
  Se  Se170  1  0.26535090  0.06744337  0.94509569  1
  Se  Se171  1  0.25339043  0.42218983  0.45128193  1
  Se  Se172  1  0.25700272  0.42282136  0.93518816  1
  Se  Se173  1  0.25883699  0.74766624  0.44752009  1
  Se  Se174  1  0.25770577  0.74142701  0.93913363  1
  Se  Se175  1  0.58299728  0.08399876  0.46437109  1
  Se  Se176  1  0.58690145  0.08198846  0.93698795  1
  Se  Se177  1  0.57749922  0.41380808  0.45514909  1
  Se  Se178  1  0.57007372  0.41272046  0.92079771  1
  Se  Se179  1  0.59338282  0.73506217  0.44645385  1
  Se  Se180  1  0.58335334  0.75645404  0.94265041  1
  Se  Se181  1  0.91526016  0.07655686  0.43977899  1
  Se  Se182  1  0.92461953  0.07214291  0.93125660  1
  Se  Se183  1  0.90948487  0.41396514  0.45182200  1
  Se  Se184  1  0.91285350  0.42309221  0.94162102  1
  Se  Se185  1  0.87750879  0.77190210  0.44850041  1
  Se  Se186  1  0.91832241  0.73752694  0.93812525  1
  Se  Se187  1  0.25690235  0.25728070  0.30409838  1
  Se  Se188  1  0.24380904  0.23744090  0.80181580  1
  Se  Se189  1  0.25427884  0.58500226  0.30859742  1
  Se  Se190  1  0.24581528  0.59145908  0.79293766  1
  Se  Se191  1  0.24750965  0.91454638  0.30174402  1
  Se  Se192  1  0.24660335  0.90363330  0.80795816  1
  Se  Se193  1  0.58122421  0.24588689  0.31459722  1
  Se  Se194  1  0.57239987  0.25116213  0.80079539  1
  Se  Se195  1  0.58558338  0.58223507  0.30977686  1
  Se  Se196  1  0.58041363  0.57932218  0.80601212  1
  Se  Se197  1  0.57451767  0.90268657  0.32113368  1
  Se  Se198  1  0.58278586  0.92144695  0.79597556  1
  Se  Se199  1  0.91804662  0.24314703  0.30087816  1
  Se  Se200  1  0.91095443  0.25495986  0.80176626  1
  Se  Se201  1  0.91526619  0.58638449  0.31092234  1
  Se  Se202  1  0.92387697  0.58947147  0.79628704  1
  Se  Se203  1  0.91944242  0.89058323  0.31845282  1
  Se  Se204  1  0.92165050  0.91991598  0.79443045  1
  Se  Se205  1  0.09627596  0.09225748  0.31364726  1
  Se  Se206  1  0.08113950  0.07459995  0.79572257  1
  Se  Se207  1  0.08372985  0.43241090  0.32672261  1
  Se  Se208  1  0.08409924  0.41863146  0.79670601  1
  Se  Se209  1  0.07966947  0.74951280  0.32343106  1
  Se  Se210  1  0.08044163  0.74575412  0.79895472  1
  Se  Se211  1  0.42148517  0.07944659  0.30839505  1
  Se  Se212  1  0.41820760  0.08222940  0.80882666  1
  Se  Se213  1  0.41759337  0.41675451  0.30511752  1
  Se  Se214  1  0.38719433  0.39258258  0.80641543  1
  Se  Se215  1  0.41244047  0.74289912  0.30133710  1
  Se  Se216  1  0.41973175  0.74974395  0.80060351  1
  Se  Se217  1  0.75953652  0.08346695  0.31380956  1
  Se  Se218  1  0.74331015  0.08433343  0.79714584  1
  Se  Se219  1  0.74964895  0.42431985  0.31373008  1
  Se  Se220  1  0.75341821  0.43395011  0.80221851  1
  Se  Se221  1  0.73953463  0.74585861  0.30612534  1
  Se  Se222  1  0.75818944  0.75522938  0.79931510  1
  Se  Se223  1  0.26216208  0.07946616  0.20117048  1
  Se  Se224  1  0.24329342  0.08712730  0.67935740  1
  Se  Se225  1  0.24536993  0.41683344  0.20552421  1
  Se  Se226  1  0.25155482  0.41758532  0.69772244  1
  Se  Se227  1  0.24435355  0.74879606  0.20212676  1
  Se  Se228  1  0.24754381  0.75119582  0.68886237  1
  Se  Se229  1  0.58355731  0.08776027  0.19776942  1
  Se  Se230  1  0.57711153  0.08116993  0.69592214  1
  Se  Se231  1  0.58111852  0.42947402  0.18958966  1
  Se  Se232  1  0.58394165  0.41767682  0.70060777  1
  Se  Se233  1  0.58309873  0.74792887  0.19714431  1
  Se  Se234  1  0.59046964  0.74644686  0.69642319  1
  Se  Se235  1  0.91577245  0.07133399  0.19296484  1
  Se  Se236  1  0.91540351  0.08330562  0.69918236  1
  Se  Se237  1  0.91293627  0.42021230  0.20040100  1
  Se  Se238  1  0.92243044  0.42107691  0.69219063  1
  Se  Se239  1  0.92437313  0.73637212  0.20294922  1
  Se  Se240  1  0.91961093  0.74402067  0.68763055  1
  Se  Se241  1  0.09615071  0.23706660  0.18723873  1
  Se  Se242  1  0.07797402  0.25250685  0.69947253  1
  Se  Se243  1  0.08062023  0.58021436  0.20406518  1
  Se  Se244  1  0.08076646  0.59024715  0.68857927  1
  Se  Se245  1  0.08759113  0.90653161  0.18967458  1
  Se  Se246  1  0.08308543  0.91355423  0.68983317  1
  Se  Se247  1  0.42289878  0.25521836  0.19815170  1
  Se  Se248  1  0.40926106  0.24814680  0.69436096  1
  Se  Se249  1  0.41491739  0.58624139  0.20136500  1
  Se  Se250  1  0.42054773  0.57244791  0.71003574  1
  Se  Se251  1  0.41914360  0.91733621  0.20221725  1
  Se  Se252  1  0.42030505  0.90725766  0.68297809  1
  Se  Se253  1  0.75875778  0.23992832  0.18914799  1
  Se  Se254  1  0.74315470  0.25825294  0.70374950  1
  Se  Se255  1  0.74496451  0.57962801  0.19582621  1
  Se  Se256  1  0.75282966  0.58514911  0.68340244  1
  Se  Se257  1  0.76141434  0.90053267  0.19656254  1
  Se  Se258  1  0.74817327  0.91492648  0.69681822  1
