# generated using pymatgen
data_In86Cu29Se144
_symmetry_space_group_name_H-M   'P 1'
_cell_length_a   17.52868810
_cell_length_b   17.53193544
_cell_length_c   23.37110727
_cell_angle_alpha   89.98670964
_cell_angle_beta   90.00310835
_cell_angle_gamma   90.01544219
_symmetry_Int_Tables_number   1
_chemical_formula_structural   In86Cu29Se144
_chemical_formula_sum   'In86 Cu29 Se144'
_cell_volume   7182.21723853
_cell_formula_units_Z   1
loop_
 _symmetry_equiv_pos_site_id
 _symmetry_equiv_pos_as_xyz
  1  'x, y, z'
loop_
 _atom_site_type_symbol
 _atom_site_label
 _atom_site_symmetry_multiplicity
 _atom_site_fract_x
 _atom_site_fract_y
 _atom_site_fract_z
 _atom_site_occupancy
  In  In0  1  -0.02118127  0.17246587  0.12703486  1
  In  In1  1  -0.00535944  0.16481746  0.61458225  1
  In  In2  1  0.01286838  0.50731284  0.13270184  1
  In  In3  1  -0.01406540  0.48203318  0.60702289  1
  In  In4  1  -0.00245962  0.83898575  0.13039201  1
  In  In5  1  -0.00623092  0.84371934  0.62780678  1
  In  In6  1  0.34245471  0.16019469  0.12987719  1
  In  In7  1  0.33904642  0.18096984  0.60972275  1
  In  In8  1  0.34404615  0.49517764  0.12838847  1
  In  In9  1  0.34040826  0.50749340  0.60639418  1
  In  In10  1  0.33123278  0.83512579  0.11510835  1
  In  In11  1  0.33667946  0.81684277  0.62613070  1
  In  In12  1  0.67353592  0.15072674  0.14082428  1
  In  In13  1  0.66391926  0.15985861  0.61241557  1
  In  In14  1  0.65231304  0.51301038  0.14818872  1
  In  In15  1  0.65978221  0.49745197  0.59596657  1
  In  In16  1  0.66982173  0.83432640  0.12621737  1
  In  In17  1  0.67650554  0.83607134  0.60983061  1
  In  In18  1  0.15908804  0.01552787  0.37562791  1
  In  In19  1  0.15631357  0.00495196  0.87672459  1
  In  In20  1  0.15909876  0.33867069  0.39854326  1
  In  In21  1  0.16109628  0.34956205  0.86706751  1
  In  In22  1  0.16030029  0.66842877  0.37497015  1
  In  In23  1  0.18168104  0.65863680  0.87062304  1
  In  In24  1  0.51501700  -0.01181075  0.38035171  1
  In  In25  1  0.50090168  -0.02111633  0.87052880  1
  In  In26  1  0.51721781  0.32613865  0.39124215  1
  In  In27  1  0.51115722  0.34004406  0.87627472  1
  In  In28  1  0.53909624  0.63930472  0.41617384  1
  In  In29  1  0.49617932  0.67430640  0.87743940  1
  In  In30  1  0.83214144  -0.00171242  0.37289469  1
  In  In31  1  0.83399053  0.00101604  0.87200883  1
  In  In32  1  0.80638206  0.35715889  0.41041818  1
  In  In33  1  0.82813524  0.31694811  0.86976840  1
  In  In34  1  0.83164020  0.66779245  0.37846635  1
  In  In35  1  0.84596836  0.67459256  0.87423312  1
  In  In36  1  -0.00309783  0.16895775  0.38205544  1
  In  In37  1  -0.00738939  0.15136286  0.86221244  1
  In  In38  1  -0.01448095  0.50183540  0.39054608  1
  In  In39  1  0.01256726  0.50025823  0.86648228  1
  In  In40  1  -0.01471023  0.82230961  0.36770602  1
  In  In41  1  -0.01522711  0.84800291  0.88507163  1
  In  In42  1  0.33032231  0.17769849  0.39375968  1
  In  In43  1  0.32251895  0.16422611  0.87065125  1
  In  In44  1  0.35849968  0.48955578  0.40243848  1
  In  In45  1  0.33184643  0.51211619  0.87036731  1
  In  In46  1  0.34595036  0.83049789  0.37867665  1
  In  In47  1  0.34909519  0.82400109  0.88089681  1
  In  In48  1  0.67154615  0.16501793  0.38015737  1
  In  In49  1  0.68277606  0.16694122  0.87423796  1
  In  In50  1  0.67126257  0.50242474  0.37732589  1
  In  In51  1  0.65846169  0.48730173  0.87612407  1
  In  In52  1  0.66655299  0.83120760  0.37499062  1
  In  In53  1  0.65686459  0.84186863  0.87835072  1
  In  In54  1  0.16954754  -0.01606919  0.12640407  1
  In  In55  1  0.14890858  0.00100662  0.63003369  1
  In  In56  1  0.16947368  0.34493437  0.12623122  1
  In  In57  1  0.14537493  0.31642111  0.59870978  1
  In  In58  1  0.15439152  0.67287215  0.13559031  1
  In  In59  1  0.18286502  0.66313038  0.62476941  1
  In  In60  1  0.50981603  -0.00254007  0.12741549  1
  In  In61  1  0.51124959  0.01048679  0.61876160  1
  In  In62  1  0.50607512  0.34542670  0.13167853  1
  In  In63  1  0.50742233  0.33617430  0.60003165  1
  In  In64  1  0.50370217  0.66486694  0.12738495  1
  In  In65  1  0.48708609  0.65663007  0.60411123  1
  In  In66  1  0.83234658  0.00398743  0.12927710  1
  In  In67  1  0.83243819  -0.00333932  0.62098077  1
  In  In68  1  0.82939275  0.32086770  0.12695405  1
  In  In69  1  0.84021566  0.33704564  0.60328340  1
  In  In70  1  0.82126942  0.67605777  0.13773355  1
  In  In71  1  0.81745794  0.66488068  0.60199326  1
  In  In72  1  0.34168774  0.66580849  0.25788214  1
  In  In73  1  0.50408926  0.15581916  0.00713748  1
  In  In74  1  0.33340919  0.34068394  0.72765458  1
  In  In75  1  0.33576625  0.00028510  0.25684513  1
  In  In76  1  0.16245063  0.83701285  0.50917718  1
  In  In77  1  0.32899434  -0.00101571  0.75049489  1
  In  In78  1  0.16434802  0.15950133  -0.00892938  1
  In  In79  1  0.67146113  0.33066625  0.72626655  1
  In  In80  1  -0.01456260  0.33403797  0.26298132  1
  In  In81  1  0.82637209  0.50632613  0.00176621  1
  In  In82  1  0.34024097  0.33494748  0.27904644  1
  In  In83  1  0.16965517  0.50573113  0.00024582  1
  In  In84  1  0.66421174  0.66824766  0.73809510  1
  In  In85  1  0.00249711  0.67074432  0.74566139  1
  Cu  Cu86  1  0.16119332  0.17335862  0.73806042  1
  Cu  Cu87  1  0.34056319  0.66424848  -0.00141148  1
  Cu  Cu88  1  0.84413048  0.16006132  0.74594652  1
  Cu  Cu89  1  0.15709082  0.83532525  0.25386146  1
  Cu  Cu90  1  0.50198555  0.17077871  0.26322745  1
  Cu  Cu91  1  0.34334547  0.32763468  0.00453124  1
  Cu  Cu92  1  -0.01217475  0.32889199  -0.00858541  1
  Cu  Cu93  1  0.15080528  0.16704308  0.25521838  1
  Cu  Cu94  1  0.83529986  0.49856786  0.26369452  1
  Cu  Cu95  1  0.51075362  0.82848407  0.25360310  1
  Cu  Cu96  1  -0.00369405  0.66518906  0.49719181  1
  Cu  Cu97  1  0.66457444  0.66497583  0.00875002  1
  Cu  Cu98  1  0.66237579  0.33704722  0.00513383  1
  Cu  Cu99  1  0.48990106  0.50844646  0.73988338  1
  Cu  Cu100  1  0.50133032  0.82706599  0.74790360  1
  Cu  Cu101  1  -0.00314687  0.68014984  0.00827610  1
  Cu  Cu102  1  0.33299552  0.00368562  0.50260332  1
  Cu  Cu103  1  0.67348060  -0.00008020  0.00370103  1
  Cu  Cu104  1  -0.00474910  0.00466515  0.00330390  1
  Cu  Cu105  1  0.83287499  0.83641869  0.25118923  1
  Cu  Cu106  1  0.66950108  -0.00055795  0.49486188  1
  Cu  Cu107  1  0.16080531  0.49313151  0.73692096  1
  Cu  Cu108  1  0.17043095  0.50428928  0.26283957  1
  Cu  Cu109  1  0.16492984  0.82872471  0.75067806  1
  Cu  Cu110  1  0.82855560  0.16784430  0.25776101  1
  Cu  Cu111  1  0.83127714  0.83811807  0.74569717  1
  Cu  Cu112  1  0.51305123  0.16131025  0.74387401  1
  Cu  Cu113  1  -0.00506744  -0.00471304  0.49910115  1
  Cu  Cu114  1  0.83482648  0.49032142  0.73344470  1
  Se  Se115  1  0.07651221  0.08478182  0.06404792  1
  Se  Se116  1  0.08308163  0.07725971  0.54989662  1
  Se  Se117  1  0.06979995  0.40982316  0.05193941  1
  Se  Se118  1  0.09663366  0.43466142  0.54395865  1
  Se  Se119  1  0.08630472  0.75695685  0.06102455  1
  Se  Se120  1  0.07202289  0.74037255  0.56532819  1
  Se  Se121  1  0.40529790  0.06444062  0.05798271  1
  Se  Se122  1  0.42258850  0.08749768  0.55063995  1
  Se  Se123  1  0.42285129  0.41572191  0.05537646  1
  Se  Se124  1  0.41797477  0.41875815  0.53900841  1
  Se  Se125  1  0.42004064  0.74536702  0.05739339  1
  Se  Se126  1  0.41569007  0.76016145  0.54475647  1
  Se  Se127  1  0.75046183  0.08846952  0.05787121  1
  Se  Se128  1  0.75650064  0.08034932  0.54835798  1
  Se  Se129  1  0.74191146  0.41841948  0.06683688  1
  Se  Se130  1  0.74417165  0.40656013  0.53670973  1
  Se  Se131  1  0.75276968  0.74914611  0.05617106  1
  Se  Se132  1  0.73630068  0.74544051  0.53449017  1
  Se  Se133  1  0.25436669  0.25084640  0.05936004  1
  Se  Se134  1  0.25016132  0.24941542  0.53977505  1
  Se  Se135  1  0.25776213  0.59311198  0.06626031  1
  Se  Se136  1  0.25183996  0.59406101  0.54404583  1
  Se  Se137  1  0.24376313  0.91345819  0.04955618  1
  Se  Se138  1  0.25652732  0.92662522  0.56826513  1
  Se  Se139  1  0.59053610  0.24909406  0.06657522  1
  Se  Se140  1  0.59807983  0.25219409  0.54139553  1
  Se  Se141  1  0.58605747  0.57596063  0.06041135  1
  Se  Se142  1  0.59112312  0.60055574  0.53669677  1
  Se  Se143  1  0.58676132  0.91653821  0.05476768  1
  Se  Se144  1  0.58255513  0.91950154  0.54933687  1
  Se  Se145  1  0.90746031  0.24879975  0.04878373  1
  Se  Se146  1  0.92884108  0.25405892  0.53922730  1
  Se  Se147  1  0.92204606  0.58993320  0.06466040  1
  Se  Se148  1  0.90833755  0.57725730  0.54402095  1
  Se  Se149  1  0.91487748  0.92054858  0.05969305  1
  Se  Se150  1  0.91186377  0.90886877  0.55046683  1
  Se  Se151  1  0.08402619  0.23848076  0.45553682  1
  Se  Se152  1  0.07656512  0.25660527  0.93231933  1
  Se  Se153  1  0.08426236  0.58479020  0.44714594  1
  Se  Se154  1  0.07284282  0.59706691  0.94407087  1
  Se  Se155  1  0.07547167  0.91547383  0.43826964  1
  Se  Se156  1  0.08056999  0.92219334  0.94980415  1
  Se  Se157  1  0.41636459  0.26058534  0.45655714  1
  Se  Se158  1  0.41661454  0.24742407  0.93858109  1
  Se  Se159  1  0.40431182  0.60811317  0.45695212  1
  Se  Se160  1  0.42010365  0.57877136  0.94351616  1
  Se  Se161  1  0.41461920  0.92270862  0.44743188  1
  Se  Se162  1  0.42367694  0.91382392  0.94832133  1
  Se  Se163  1  0.74928945  0.23763998  0.45850283  1
  Se  Se164  1  0.74661276  0.25453073  0.95004144  1
  Se  Se165  1  0.77112863  0.56775795  0.44623502  1
  Se  Se166  1  0.73869999  0.59396086  0.93516026  1
  Se  Se167  1  0.75317264  0.91372760  0.44353260  1
  Se  Se168  1  0.75113831  0.91848983  0.94237115  1
  Se  Se169  1  0.24444152  0.08254503  0.45073629  1
  Se  Se170  1  0.26564011  0.06705969  0.94405521  1
  Se  Se171  1  0.25195201  0.42019157  0.45813813  1
  Se  Se172  1  0.26139160  0.40818236  0.94216289  1
  Se  Se173  1  0.24839370  0.75208226  0.44349126  1
  Se  Se174  1  0.25344498  0.74292302  0.94353018  1
  Se  Se175  1  0.58094846  0.08491666  0.44796416  1
  Se  Se176  1  0.59147981  0.07588092  0.93776379  1
  Se  Se177  1  0.58441048  0.43006039  0.45189579  1
  Se  Se178  1  0.57767174  0.42098311  0.95476101  1
  Se  Se179  1  0.56421749  0.77981082  0.44577949  1
  Se  Se180  1  0.58603601  0.74774481  0.94687410  1
  Se  Se181  1  0.91234781  0.07961815  0.44554457  1
  Se  Se182  1  0.91535585  0.08654191  0.94306620  1
  Se  Se183  1  0.94088115  0.38628057  0.45197302  1
  Se  Se184  1  0.91567812  0.42022493  0.93365221  1
  Se  Se185  1  0.91346550  0.75394976  0.44908567  1
  Se  Se186  1  0.90866622  0.75652190  0.95300300  1
  Se  Se187  1  0.23171795  0.24480477  0.31827933  1
  Se  Se188  1  0.24450294  0.25268061  0.79797242  1
  Se  Se189  1  0.25872359  0.57406906  0.32249447  1
  Se  Se190  1  0.24618011  0.57482186  0.79265604  1
  Se  Se191  1  0.24125548  0.90981652  0.31545373  1
  Se  Se192  1  0.24432083  0.90793439  0.81417889  1
  Se  Se193  1  0.58972437  0.25272501  0.31151865  1
  Se  Se194  1  0.58705206  0.25030973  0.80236660  1
  Se  Se195  1  0.58668474  0.59509977  0.31771804  1
  Se  Se196  1  0.57814312  0.57657259  0.80338021  1
  Se  Se197  1  0.59195839  0.92001941  0.30081492  1
  Se  Se198  1  0.58747819  0.91386644  0.79537161  1
  Se  Se199  1  0.89382050  0.25138774  0.32419850  1
  Se  Se200  1  0.91989643  0.25114428  0.79898811  1
  Se  Se201  1  0.92170505  0.58348183  0.31123874  1
  Se  Se202  1  0.90701791  0.57374565  0.80007128  1
  Se  Se203  1  0.91869334  0.92069081  0.30139684  1
  Se  Se204  1  0.91726209  0.91701800  0.80141743  1
  Se  Se205  1  0.06707422  0.08313598  0.30488440  1
  Se  Se206  1  0.09054951  0.08252524  0.79623632  1
  Se  Se207  1  0.08656916  0.41967883  0.31721192  1
  Se  Se208  1  0.07559891  0.41311998  0.79039137  1
  Se  Se209  1  0.07818018  0.74456316  0.30255759  1
  Se  Se210  1  0.08427372  0.75457867  0.81680144  1
  Se  Se211  1  0.41742461  0.09230106  0.32124182  1
  Se  Se212  1  0.42660908  0.09109204  0.80649387  1
  Se  Se213  1  0.44046198  0.42927864  0.31981891  1
  Se  Se214  1  0.42090444  0.41963834  0.80212483  1
  Se  Se215  1  0.43804832  0.74755139  0.31647829  1
  Se  Se216  1  0.41511093  0.74509758  0.80033161  1
  Se  Se217  1  0.74331826  0.07926705  0.30525443  1
  Se  Se218  1  0.75302076  0.08411208  0.79976906  1
  Se  Se219  1  0.75539878  0.40985393  0.31397788  1
  Se  Se220  1  0.75151920  0.41836556  0.79985339  1
  Se  Se221  1  0.75296308  0.75024303  0.30628274  1
  Se  Se222  1  0.75324725  0.75403959  0.80553566  1
  Se  Se223  1  0.24081049  0.09158488  0.19723875  1
  Se  Se224  1  0.25112028  0.09548370  0.68382950  1
  Se  Se225  1  0.25111887  0.42163227  0.20376877  1
  Se  Se226  1  0.23837526  0.42180143  0.66892601  1
  Se  Se227  1  0.25017410  0.75985385  0.19817476  1
  Se  Se228  1  0.25108262  0.74719882  0.70094475  1
  Se  Se229  1  0.57398253  0.08123542  0.20484066  1
  Se  Se230  1  0.59784430  0.07954337  0.69323419  1
  Se  Se231  1  0.59242023  0.40405061  0.20743609  1
  Se  Se232  1  0.57316465  0.42954354  0.67955055  1
  Se  Se233  1  0.58958723  0.74581846  0.19480819  1
  Se  Se234  1  0.57343182  0.75316540  0.67677959  1
  Se  Se235  1  0.91407509  0.08704429  0.20230964  1
  Se  Se236  1  0.92307098  0.07659316  0.68807108  1
  Se  Se237  1  0.90873864  0.42606040  0.19131234  1
  Se  Se238  1  0.91700967  0.40326986  0.68571121  1
  Se  Se239  1  0.91930405  0.75072596  0.19989037  1
  Se  Se240  1  0.89908635  0.74691161  0.68464452  1
  Se  Se241  1  0.08259208  0.25561702  0.19256351  1
  Se  Se242  1  0.07657898  0.25276814  0.68416145  1
  Se  Se243  1  0.08558427  0.58582083  0.20933633  1
  Se  Se244  1  0.07818247  0.57670921  0.67999364  1
  Se  Se245  1  0.08000780  0.92429339  0.20094386  1
  Se  Se246  1  0.07882701  0.91331049  0.70268893  1
  Se  Se247  1  0.41768396  0.24803184  0.20226000  1
  Se  Se248  1  0.43711811  0.24724402  0.68422334  1
  Se  Se249  1  0.43029265  0.56926938  0.20039849  1
  Se  Se250  1  0.40855689  0.59009461  0.68520230  1
  Se  Se251  1  0.42174788  0.90510589  0.19548095  1
  Se  Se252  1  0.42312776  0.91500350  0.68909074  1
  Se  Se253  1  0.74614048  0.25218108  0.20227698  1
  Se  Se254  1  0.76854368  0.23752733  0.67815528  1
  Se  Se255  1  0.75317098  0.58454471  0.20881215  1
  Se  Se256  1  0.74867226  0.56931500  0.67828401  1
  Se  Se257  1  0.74854338  0.91963579  0.19675010  1
  Se  Se258  1  0.74507468  0.91469765  0.68928826  1
