# generated using pymatgen
data_In86Cu29Se144
_symmetry_space_group_name_H-M   'P 1'
_cell_length_a   17.57824542
_cell_length_b   17.57616037
_cell_length_c   23.43569707
_cell_angle_alpha   89.99412005
_cell_angle_beta   89.99445696
_cell_angle_gamma   90.03173918
_symmetry_Int_Tables_number   1
_chemical_formula_structural   In86Cu29Se144
_chemical_formula_sum   'In86 Cu29 Se144'
_cell_volume   7240.64633543
_cell_formula_units_Z   1
loop_
 _symmetry_equiv_pos_site_id
 _symmetry_equiv_pos_as_xyz
  1  'x, y, z'
loop_
 _atom_site_type_symbol
 _atom_site_label
 _atom_site_symmetry_multiplicity
 _atom_site_fract_x
 _atom_site_fract_y
 _atom_site_fract_z
 _atom_site_occupancy
  In  In0  1  0.00041082  0.17743033  0.12450477  1
  In  In1  1  -0.00360919  0.17558017  0.63156833  1
  In  In2  1  -0.00006661  0.49337242  0.12197660  1
  In  In3  1  0.01405359  0.48637485  0.63772479  1
  In  In4  1  0.00118097  0.83093964  0.10666064  1
  In  In5  1  -0.00339111  0.83912806  0.63639060  1
  In  In6  1  0.33133082  0.16910896  0.13486964  1
  In  In7  1  0.34549205  0.15890046  0.62812836  1
  In  In8  1  0.32312602  0.48534801  0.11653670  1
  In  In9  1  0.32093225  0.48713705  0.61538499  1
  In  In10  1  0.32881382  0.84258374  0.12575532  1
  In  In11  1  0.33076733  0.84783362  0.62770255  1
  In  In12  1  0.67884879  0.16782888  0.12264748  1
  In  In13  1  0.66722734  0.17052987  0.62478778  1
  In  In14  1  0.66248319  0.50464781  0.12563120  1
  In  In15  1  0.66351613  0.50444386  0.62946238  1
  In  In16  1  0.66854082  0.82121762  0.12211345  1
  In  In17  1  0.67491718  0.82843053  0.63418888  1
  In  In18  1  0.17244103  -0.00193178  0.37373910  1
  In  In19  1  0.15339372  0.00089300  0.85582888  1
  In  In20  1  0.17223123  0.34290577  0.36432586  1
  In  In21  1  0.17290497  0.33749570  0.86555215  1
  In  In22  1  0.15762257  0.66233101  0.37559967  1
  In  In23  1  0.14267535  0.67881514  0.89765090  1
  In  In24  1  0.49139839  0.01415749  0.38382067  1
  In  In25  1  0.50099863  -0.00161627  0.86374731  1
  In  In26  1  0.50036737  0.33429139  0.37822085  1
  In  In27  1  0.49830805  0.33610756  0.86974330  1
  In  In28  1  0.49675338  0.64920260  0.37401847  1
  In  In29  1  0.49608550  0.64973215  0.87558765  1
  In  In30  1  0.84253854  0.01345967  0.38022747  1
  In  In31  1  0.83477235  0.00102175  0.87266963  1
  In  In32  1  0.82620503  0.33260883  0.37305536  1
  In  In33  1  0.82518192  0.32590430  0.86951544  1
  In  In34  1  0.83094233  0.67614705  0.36968241  1
  In  In35  1  0.84683744  0.67969596  0.87179475  1
  In  In36  1  -0.01886717  0.17611850  0.38879929  1
  In  In37  1  -0.00470948  0.15860228  0.86181439  1
  In  In38  1  0.01600459  0.49166760  0.37907175  1
  In  In39  1  0.00680602  0.50856461  0.87181932  1
  In  In40  1  0.00568936  0.83305338  0.37384493  1
  In  In41  1  -0.00265865  0.83508744  0.87741004  1
  In  In42  1  0.33546229  0.17385508  0.37421529  1
  In  In43  1  0.32094496  0.16559641  0.85443844  1
  In  In44  1  0.33928878  0.49461314  0.38169576  1
  In  In45  1  0.33101121  0.49465818  0.88037478  1
  In  In46  1  0.32498036  0.84924007  0.36894426  1
  In  In47  1  0.32012872  0.83285390  0.87522118  1
  In  In48  1  0.65380464  0.17726350  0.38769900  1
  In  In49  1  0.67391966  0.17376356  0.86822412  1
  In  In50  1  0.65736411  0.48771558  0.36698765  1
  In  In51  1  0.65748540  0.49210849  0.86730918  1
  In  In52  1  0.67484272  0.82951018  0.36957160  1
  In  In53  1  0.67557700  0.84291715  0.86730076  1
  In  In54  1  0.17407967  -0.00297496  0.12488419  1
  In  In55  1  0.16619298  0.01198094  0.63993991  1
  In  In56  1  0.16166038  0.34287568  0.13984270  1
  In  In57  1  0.15548186  0.33667015  0.63899366  1
  In  In58  1  0.16152177  0.66466578  0.11345224  1
  In  In59  1  0.16846578  0.65046576  0.62755972  1
  In  In60  1  0.49217425  -0.00659414  0.12727503  1
  In  In61  1  0.48835791  0.01882771  0.63083962  1
  In  In62  1  0.48985646  0.34372440  0.13223922  1
  In  In63  1  0.50165550  0.33250911  0.62315459  1
  In  In64  1  0.51649466  0.66188103  0.12493642  1
  In  In65  1  0.51281594  0.66129629  0.62596017  1
  In  In66  1  0.84162296  0.00628641  0.11083179  1
  In  In67  1  0.83108220  0.00803557  0.62883843  1
  In  In68  1  0.83972955  0.32660203  0.12857529  1
  In  In69  1  0.84805065  0.31974416  0.63085847  1
  In  In70  1  0.82701541  0.66112155  0.11794587  1
  In  In71  1  0.83535589  0.66681141  0.63767856  1
  In  In72  1  0.83793576  0.50420345  -0.00253270  1
  In  In73  1  0.66035423  0.00227691  0.25089388  1
  In  In74  1  0.16512707  0.83620154  0.49770089  1
  In  In75  1  0.49963029  0.83259940  0.50631989  1
  In  In76  1  -0.00203365  0.65885248  0.24361963  1
  In  In77  1  0.33207148  0.66226662  0.75579908  1
  In  In78  1  0.50011106  0.17386986  -0.00446447  1
  In  In79  1  0.83490036  0.49653822  0.50265411  1
  In  In80  1  0.16634955  0.17217673  0.50666092  1
  In  In81  1  0.16452468  0.16612423  -0.00508421  1
  In  In82  1  0.83096009  0.83760178  0.50613812  1
  In  In83  1  0.50316738  0.82788564  0.00453709  1
  In  In84  1  0.00410768  0.00298791  0.25211561  1
  In  In85  1  0.33349890  0.66058810  0.24686905  1
  Cu  Cu86  1  0.49585706  0.49482496  0.74842209  1
  Cu  Cu87  1  0.16685812  0.16705235  0.25204694  1
  Cu  Cu88  1  0.33615228  0.32879496  0.49907432  1
  Cu  Cu89  1  0.82658038  0.83350060  0.24433533  1
  Cu  Cu90  1  0.66747560  0.33174651  0.50039286  1
  Cu  Cu91  1  0.32943472  -0.00091876  -0.00224561  1
  Cu  Cu92  1  0.66144129  0.65483123  0.49798529  1
  Cu  Cu93  1  0.66560255  0.00482987  0.51003678  1
  Cu  Cu94  1  0.49843908  0.17132782  0.25929537  1
  Cu  Cu95  1  0.67728091  0.00167981  -0.00652573  1
  Cu  Cu96  1  0.33310699  0.65867045  -0.00151381  1
  Cu  Cu97  1  0.00072709  0.00003669  -0.01253995  1
  Cu  Cu98  1  0.83015059  0.16394509  0.74928103  1
  Cu  Cu99  1  0.82869051  0.17527977  0.25337602  1
  Cu  Cu100  1  0.00305172  0.66065726  0.50593493  1
  Cu  Cu101  1  0.83247022  0.49842711  0.24450089  1
  Cu  Cu102  1  0.16288088  0.50590876  0.75509096  1
  Cu  Cu103  1  -0.00144324  0.33000913  0.00170281  1
  Cu  Cu104  1  0.33334268  0.66219215  0.50092839  1
  Cu  Cu105  1  0.67129427  0.66582141  -0.00272859  1
  Cu  Cu106  1  0.50583402  0.83176202  0.74566047  1
  Cu  Cu107  1  0.32651680  0.33340632  -0.00117408  1
  Cu  Cu108  1  0.16496456  0.83284828  0.75684309  1
  Cu  Cu109  1  0.82978822  0.49709841  0.75325602  1
  Cu  Cu110  1  0.50693927  0.17135329  0.74739549  1
  Cu  Cu111  1  0.50523292  0.49625186  0.25174722  1
  Cu  Cu112  1  0.49457592  0.83379866  0.24610696  1
  Cu  Cu113  1  0.84018030  0.83646974  0.75487417  1
  Cu  Cu114  1  0.66498577  0.33750742  -0.00701017  1
  Se  Se115  1  0.07494905  0.07530790  0.05760166  1
  Se  Se116  1  0.07844886  0.07849929  0.56365693  1
  Se  Se117  1  0.08445396  0.40669585  0.05733763  1
  Se  Se118  1  0.08856086  0.41601965  0.56047171  1
  Se  Se119  1  0.09093019  0.75316085  0.04372766  1
  Se  Se120  1  0.07922143  0.74754917  0.56399895  1
  Se  Se121  1  0.40908378  0.08039812  0.05655508  1
  Se  Se122  1  0.41814230  0.08413783  0.54921580  1
  Se  Se123  1  0.41791046  0.41158644  0.04984863  1
  Se  Se124  1  0.41853184  0.41516869  0.55247478  1
  Se  Se125  1  0.41006047  0.73873649  0.06334603  1
  Se  Se126  1  0.40609006  0.74146780  0.56553182  1
  Se  Se127  1  0.75371524  0.09043249  0.04740739  1
  Se  Se128  1  0.75424018  0.08881389  0.55588963  1
  Se  Se129  1  0.74800077  0.41252010  0.05723426  1
  Se  Se130  1  0.74698731  0.40773764  0.56435451  1
  Se  Se131  1  0.75347709  0.75175693  0.04839062  1
  Se  Se132  1  0.74358929  0.73479617  0.55721546  1
  Se  Se133  1  0.25030698  0.25210438  0.06120478  1
  Se  Se134  1  0.25761932  0.25855790  0.56818924  1
  Se  Se135  1  0.24755799  0.57687745  0.05111374  1
  Se  Se136  1  0.24415719  0.57990632  0.54943971  1
  Se  Se137  1  0.24732622  0.91471243  0.05017728  1
  Se  Se138  1  0.24781200  0.93006570  0.55867450  1
  Se  Se139  1  0.58780012  0.25934123  0.05948246  1
  Se  Se140  1  0.58268378  0.24810050  0.55323662  1
  Se  Se141  1  0.58674060  0.58125565  0.04831709  1
  Se  Se142  1  0.57949093  0.57364694  0.55212416  1
  Se  Se143  1  0.59461237  0.92807630  0.05783677  1
  Se  Se144  1  0.58999759  0.91931528  0.56794127  1
  Se  Se145  1  0.91285840  0.24638136  0.05192902  1
  Se  Se146  1  0.92863521  0.25453353  0.55384882  1
  Se  Se147  1  0.93174195  0.59439367  0.05407159  1
  Se  Se148  1  0.92177745  0.58478610  0.56671919  1
  Se  Se149  1  0.91637436  0.91784173  0.04334395  1
  Se  Se150  1  0.92610424  0.92465780  0.56014548  1
  Se  Se151  1  0.08628188  0.25990845  0.43904345  1
  Se  Se152  1  0.07570036  0.25468902  0.93471764  1
  Se  Se153  1  0.08615499  0.58122274  0.45061957  1
  Se  Se154  1  0.08719880  0.56543524  0.95305682  1
  Se  Se155  1  0.07068520  0.93014441  0.44350293  1
  Se  Se156  1  0.09130379  0.92285096  0.93719531  1
  Se  Se157  1  0.42056977  0.24677512  0.44683269  1
  Se  Se158  1  0.39987550  0.25088268  0.93553969  1
  Se  Se159  1  0.42040996  0.57926494  0.45149382  1
  Se  Se160  1  0.41822886  0.57455466  0.94968146  1
  Se  Se161  1  0.40578958  0.92035874  0.44808603  1
  Se  Se162  1  0.41666986  0.92015644  0.94181664  1
  Se  Se163  1  0.75415997  0.25012436  0.44843399  1
  Se  Se164  1  0.74836104  0.24942081  0.94612356  1
  Se  Se165  1  0.74789220  0.58479510  0.43661033  1
  Se  Se166  1  0.74618310  0.58606304  0.93277704  1
  Se  Se167  1  0.73942431  0.92591234  0.44304096  1
  Se  Se168  1  0.75648167  0.91298691  0.94339100  1
  Se  Se169  1  0.25442945  0.08155985  0.44365708  1
  Se  Se170  1  0.25387119  0.07745281  0.93377948  1
  Se  Se171  1  0.25106957  0.41018988  0.44504103  1
  Se  Se172  1  0.24045318  0.41432833  0.94619272  1
  Se  Se173  1  0.25875129  0.74446543  0.43842566  1
  Se  Se174  1  0.25334894  0.74981973  0.95036092  1
  Se  Se175  1  0.58078687  0.08348448  0.45384422  1
  Se  Se176  1  0.58697397  0.07710650  0.93844271  1
  Se  Se177  1  0.58535576  0.41749656  0.44742011  1
  Se  Se178  1  0.57730686  0.41730289  0.94287598  1
  Se  Se179  1  0.58818749  0.74520124  0.44042281  1
  Se  Se180  1  0.58827718  0.74490828  0.93635526  1
  Se  Se181  1  0.91627084  0.08217179  0.45765874  1
  Se  Se182  1  0.91766413  0.08839256  0.94017186  1
  Se  Se183  1  0.92355789  0.40810399  0.44278362  1
  Se  Se184  1  0.92018053  0.40779671  0.93772092  1
  Se  Se185  1  0.92479345  0.74309350  0.44587908  1
  Se  Se186  1  0.92298575  0.74895972  0.94867557  1
  Se  Se187  1  0.25374582  0.25077145  0.30201978  1
  Se  Se188  1  0.25195213  0.26180206  0.79140655  1
  Se  Se189  1  0.24567373  0.57547240  0.31134837  1
  Se  Se190  1  0.23754350  0.58630250  0.81995178  1
  Se  Se191  1  0.23396867  0.91203211  0.29830662  1
  Se  Se192  1  0.25478146  0.91898614  0.80087804  1
  Se  Se193  1  0.58659594  0.25350957  0.30766328  1
  Se  Se194  1  0.58594945  0.25561432  0.80360630  1
  Se  Se195  1  0.58691564  0.58615279  0.30085443  1
  Se  Se196  1  0.57842607  0.58196173  0.79951960  1
  Se  Se197  1  0.57111881  0.91228250  0.31299647  1
  Se  Se198  1  0.58821598  0.91829586  0.79777631  1
  Se  Se199  1  0.91738719  0.25226598  0.30679818  1
  Se  Se200  1  0.91361171  0.25103531  0.80006272  1
  Se  Se201  1  0.91044489  0.57451012  0.31120949  1
  Se  Se202  1  0.91423392  0.58197245  0.80478560  1
  Se  Se203  1  0.90461416  0.91000021  0.30802470  1
  Se  Se204  1  0.92420332  0.92246264  0.80507187  1
  Se  Se205  1  0.08351745  0.09667910  0.31673922  1
  Se  Se206  1  0.10086789  0.10964215  0.79273029  1
  Se  Se207  1  0.08000127  0.41864858  0.29833126  1
  Se  Se208  1  0.07816758  0.41654895  0.80260013  1
  Se  Se209  1  0.08867316  0.75485391  0.30161025  1
  Se  Se210  1  0.08361586  0.74858105  0.81066484  1
  Se  Se211  1  0.41383215  0.08243955  0.30554135  1
  Se  Se212  1  0.42137260  0.08638437  0.79859522  1
  Se  Se213  1  0.41985161  0.41835177  0.30772021  1
  Se  Se214  1  0.40928429  0.41839120  0.80474184  1
  Se  Se215  1  0.41951860  0.75431870  0.31142722  1
  Se  Se216  1  0.42533334  0.75751606  0.81140474  1
  Se  Se217  1  0.75010635  0.09107873  0.31219870  1
  Se  Se218  1  0.74734336  0.07930424  0.80315889  1
  Se  Se219  1  0.75020773  0.41539017  0.30025816  1
  Se  Se220  1  0.74443424  0.41124243  0.80138859  1
  Se  Se221  1  0.74577923  0.74628344  0.29552674  1
  Se  Se222  1  0.75328757  0.75014897  0.80311269  1
  Se  Se223  1  0.24641054  0.08122336  0.19780337  1
  Se  Se224  1  0.26996347  0.07500318  0.69989295  1
  Se  Se225  1  0.26608545  0.40861867  0.19913474  1
  Se  Se226  1  0.24638518  0.42529332  0.69905442  1
  Se  Se227  1  0.24260364  0.74997150  0.18815286  1
  Se  Se228  1  0.24422977  0.75499295  0.69265652  1
  Se  Se229  1  0.57224636  0.09487941  0.18965373  1
  Se  Se230  1  0.58889338  0.08405778  0.69566657  1
  Se  Se231  1  0.58875104  0.41526385  0.19547970  1
  Se  Se232  1  0.58262621  0.41539365  0.69468618  1
  Se  Se233  1  0.58320358  0.75315319  0.19682082  1
  Se  Se234  1  0.58813515  0.74312793  0.69819695  1
  Se  Se235  1  0.90679821  0.09029922  0.19403449  1
  Se  Se236  1  0.91898084  0.08348384  0.69822787  1
  Se  Se237  1  0.91904759  0.41608341  0.19432102  1
  Se  Se238  1  0.91551624  0.41493716  0.70023373  1
  Se  Se239  1  0.91155756  0.75708668  0.18569516  1
  Se  Se240  1  0.92178918  0.74841170  0.70326403  1
  Se  Se241  1  0.07982790  0.24807496  0.19980787  1
  Se  Se242  1  0.09939102  0.22835785  0.70221696  1
  Se  Se243  1  0.09567949  0.57245140  0.19013014  1
  Se  Se244  1  0.07893366  0.58992639  0.70242645  1
  Se  Se245  1  0.08036106  0.90884763  0.18667837  1
  Se  Se246  1  0.08472794  0.91878064  0.70225577  1
  Se  Se247  1  0.41708152  0.25156909  0.19994612  1
  Se  Se248  1  0.42016638  0.25261409  0.69495885  1
  Se  Se249  1  0.42536582  0.57314230  0.18684486  1
  Se  Se250  1  0.41531477  0.57591772  0.68781771  1
  Se  Se251  1  0.40945868  0.91996024  0.19966811  1
  Se  Se252  1  0.42158873  0.91696611  0.69620824  1
  Se  Se253  1  0.74539805  0.25413363  0.19688183  1
  Se  Se254  1  0.74986064  0.25093412  0.69605994  1
  Se  Se255  1  0.75082490  0.58529639  0.19317780  1
  Se  Se256  1  0.74739362  0.58297417  0.70020281  1
  Se  Se257  1  0.75412939  0.92129188  0.18536234  1
  Se  Se258  1  0.75703467  0.91639948  0.69748714  1
