# generated using pymatgen
data_In86Cu29Se144
_symmetry_space_group_name_H-M   'P 1'
_cell_length_a   17.56941451
_cell_length_b   17.57659362
_cell_length_c   23.42450556
_cell_angle_alpha   89.98622398
_cell_angle_beta   90.01845278
_cell_angle_gamma   89.97489339
_symmetry_Int_Tables_number   1
_chemical_formula_structural   In86Cu29Se144
_chemical_formula_sum   'In86 Cu29 Se144'
_cell_volume   7233.73103320
_cell_formula_units_Z   1
loop_
 _symmetry_equiv_pos_site_id
 _symmetry_equiv_pos_as_xyz
  1  'x, y, z'
loop_
 _atom_site_type_symbol
 _atom_site_label
 _atom_site_symmetry_multiplicity
 _atom_site_fract_x
 _atom_site_fract_y
 _atom_site_fract_z
 _atom_site_occupancy
  In  In0  1  -0.00345461  0.17403001  0.12296391  1
  In  In1  1  -0.00190601  0.15896514  0.63848626  1
  In  In2  1  -0.00233771  0.50224878  0.13198140  1
  In  In3  1  -0.00187361  0.49322123  0.62129986  1
  In  In4  1  -0.01037124  0.82453446  0.11280822  1
  In  In5  1  0.00548976  0.83870253  0.62012681  1
  In  In6  1  0.33858921  0.15458225  0.12088381  1
  In  In7  1  0.32181491  0.16700341  0.62698120  1
  In  In8  1  0.34800371  0.50623669  0.12681734  1
  In  In9  1  0.34071704  0.50419060  0.61861586  1
  In  In10  1  0.32966444  0.83105408  0.12667321  1
  In  In11  1  0.32959657  0.84286918  0.62865709  1
  In  In12  1  0.67361171  0.16635395  0.11612145  1
  In  In13  1  0.67774194  0.16670881  0.64523821  1
  In  In14  1  0.65795519  0.49330509  0.11488569  1
  In  In15  1  0.66598728  0.49511200  0.62929334  1
  In  In16  1  0.68428398  0.83323570  0.10938712  1
  In  In17  1  0.67504502  0.83278071  0.62970629  1
  In  In18  1  0.15806283  0.00394248  0.38809625  1
  In  In19  1  0.15077197  -0.00642395  0.86654467  1
  In  In20  1  0.15593685  0.34487619  0.38619976  1
  In  In21  1  0.14933908  0.33416700  0.86945118  1
  In  In22  1  0.16469507  0.66321644  0.37656041  1
  In  In23  1  0.17061721  0.67509572  0.87370768  1
  In  In24  1  0.50512428  -0.00921370  0.36856408  1
  In  In25  1  0.50286969  0.00505025  0.87835851  1
  In  In26  1  0.51684761  0.33502500  0.37246566  1
  In  In27  1  0.51213762  0.32463918  0.88153527  1
  In  In28  1  0.48582292  0.66643624  0.36762582  1
  In  In29  1  0.51937312  0.66377535  0.89808367  1
  In  In30  1  0.82483175  -0.00822220  0.37072912  1
  In  In31  1  0.83319797  0.00928717  0.87840591  1
  In  In32  1  0.83101663  0.32853280  0.36591030  1
  In  In33  1  0.82654415  0.33506096  0.87171221  1
  In  In34  1  0.85457757  0.66753730  0.37337266  1
  In  In35  1  0.82709972  0.67011438  0.89038670  1
  In  In36  1  -0.00431447  0.17639199  0.37732026  1
  In  In37  1  -0.03376391  0.15166854  0.84893946  1
  In  In38  1  0.00833753  0.50769906  0.36569935  1
  In  In39  1  -0.01678125  0.48095287  0.86171210  1
  In  In40  1  0.01262317  0.81703158  0.39273195  1
  In  In41  1  -0.02616347  0.86750166  0.90603974  1
  In  In42  1  0.32958839  0.15491079  0.37644736  1
  In  In43  1  0.34874607  0.16228509  0.87715878  1
  In  In44  1  0.32367967  0.50698180  0.38157311  1
  In  In45  1  0.34397948  0.50878462  0.87506506  1
  In  In46  1  0.33019226  0.82244058  0.37058666  1
  In  In47  1  0.32203505  0.83888042  0.87888278  1
  In  In48  1  0.66726632  0.16526643  0.36376926  1
  In  In49  1  0.67374267  0.15643704  0.87573280  1
  In  In50  1  0.67037637  0.48517950  0.37533613  1
  In  In51  1  0.67344059  0.49586451  0.88385975  1
  In  In52  1  0.66607466  0.84339221  0.36917729  1
  In  In53  1  0.65822299  0.85746650  0.89506716  1
  In  In54  1  0.17079174  -0.00316393  0.12138752  1
  In  In55  1  0.16134104  0.00063229  0.62789299  1
  In  In56  1  0.15363954  0.32590843  0.12830981  1
  In  In57  1  0.15797159  0.32464364  0.61681903  1
  In  In58  1  0.16148572  0.67452456  0.13764188  1
  In  In59  1  0.16779267  0.67342920  0.60987275  1
  In  In60  1  0.53078783  0.01719309  0.09717063  1
  In  In61  1  0.49956958  -0.00516154  0.63977750  1
  In  In62  1  0.51303396  0.34399556  0.11712360  1
  In  In63  1  0.51285731  0.34595117  0.63454031  1
  In  In64  1  0.49866567  0.65844526  0.11817131  1
  In  In65  1  0.51127176  0.65551052  0.62500256  1
  In  In66  1  0.81653566  -0.01714007  0.09784296  1
  In  In67  1  0.83881349  -0.00307309  0.64265798  1
  In  In68  1  0.83247537  0.33186832  0.12105772  1
  In  In69  1  0.84005763  0.33194940  0.64805961  1
  In  In70  1  0.84504352  0.66923841  0.11489805  1
  In  In71  1  0.83259475  0.67544443  0.61884092  1
  In  In72  1  0.34225012  0.67373316  0.74574621  1
  In  In73  1  0.16815367  0.49876857  -0.00601215  1
  In  In74  1  0.33794878  -0.00817113  0.24656849  1
  In  In75  1  -0.00130703  0.67047129  0.75516217  1
  In  In76  1  0.83602435  0.16376228  0.51020922  1
  In  In77  1  0.67152815  0.66575119  0.23700586  1
  In  In78  1  0.49323059  0.82954582  0.49564394  1
  In  In79  1  0.83488673  0.50239623  0.50236357  1
  In  In80  1  0.49611601  0.17158462  0.50261259  1
  In  In81  1  0.33782654  0.32823980  0.75317270  1
  In  In82  1  0.67116778  0.66642965  0.75843920  1
  In  In83  1  0.33222420  0.33751076  0.25016392  1
  In  In84  1  -0.01119869  -0.00380791  0.24139210  1
  In  In85  1  0.16432996  0.16633266  0.00152400  1
  Cu  Cu86  1  0.01178190  0.65633035  0.00252913  1
  Cu  Cu87  1  0.16629888  0.50110632  0.25716528  1
  Cu  Cu88  1  -0.01400233  0.33209552  -0.00542186  1
  Cu  Cu89  1  0.50314366  0.15698229  0.75591547  1
  Cu  Cu90  1  0.17080903  0.50166006  0.73943313  1
  Cu  Cu91  1  0.82684604  0.16334915  0.24285845  1
  Cu  Cu92  1  0.50105883  0.83319276  0.76507650  1
  Cu  Cu93  1  0.32112318  0.00097534  0.50526039  1
  Cu  Cu94  1  0.15613391  0.84335342  0.75254769  1
  Cu  Cu95  1  0.15913157  0.17149131  0.25437234  1
  Cu  Cu96  1  0.83658291  0.83186017  0.24059531  1
  Cu  Cu97  1  0.66615960  -0.00254637  0.49967051  1
  Cu  Cu98  1  0.16717873  0.16192889  0.74585197  1
  Cu  Cu99  1  0.34032299  0.33598337  -0.00128499  1
  Cu  Cu100  1  0.83079300  0.84013451  0.75981951  1
  Cu  Cu101  1  -0.00595100  0.00034463  0.51140301  1
  Cu  Cu102  1  0.50330592  0.50353324  0.24467539  1
  Cu  Cu103  1  0.33722615  0.33563812  0.50659440  1
  Cu  Cu104  1  0.66692761  0.33223817  0.50154039  1
  Cu  Cu105  1  0.33162455  0.66735493  0.00072120  1
  Cu  Cu106  1  0.66503236  0.66460253  0.50093112  1
  Cu  Cu107  1  0.83438004  0.48925169  0.24666589  1
  Cu  Cu108  1  0.50590677  0.84572309  0.24036046  1
  Cu  Cu109  1  0.33375781  0.66350792  0.49473352  1
  Cu  Cu110  1  0.16250415  0.82663184  0.25304827  1
  Cu  Cu111  1  0.00119897  0.33760452  0.49973857  1
  Cu  Cu112  1  0.50988927  0.16876201  0.23781900  1
  Cu  Cu113  1  0.66962534  0.32993880  -0.00286058  1
  Cu  Cu114  1  0.33493452  -0.00317013  -0.00112911  1
  Se  Se115  1  0.07367529  0.07436898  0.05861453  1
  Se  Se116  1  0.07703042  0.08761226  0.56107901  1
  Se  Se117  1  0.07595905  0.40768855  0.05270162  1
  Se  Se118  1  0.08679429  0.42113242  0.55078243  1
  Se  Se119  1  0.09017495  0.74391866  0.05597795  1
  Se  Se120  1  0.07700290  0.75289688  0.54900323  1
  Se  Se121  1  0.41870615  0.08703507  0.04469385  1
  Se  Se122  1  0.41361320  0.07237060  0.56137034  1
  Se  Se123  1  0.41810958  0.42166088  0.05364863  1
  Se  Se124  1  0.42631840  0.41218736  0.55896397  1
  Se  Se125  1  0.41193412  0.74883066  0.05766798  1
  Se  Se126  1  0.41023366  0.74002313  0.56313586  1
  Se  Se127  1  0.73336835  0.07564917  0.03976138  1
  Se  Se128  1  0.74007878  0.07514881  0.56516803  1
  Se  Se129  1  0.75134806  0.41510053  0.05123207  1
  Se  Se130  1  0.75402751  0.40407021  0.56250347  1
  Se  Se131  1  0.75217651  0.73393140  0.04533583  1
  Se  Se132  1  0.74346550  0.75327338  0.55194582  1
  Se  Se133  1  0.25787192  0.26016430  0.06072356  1
  Se  Se134  1  0.25153598  0.24749576  0.55165818  1
  Se  Se135  1  0.25019080  0.58631393  0.06142068  1
  Se  Se136  1  0.25223156  0.58067260  0.55092827  1
  Se  Se137  1  0.25258219  0.91523474  0.05408412  1
  Se  Se138  1  0.24225787  0.91367654  0.55763833  1
  Se  Se139  1  0.58260877  0.24963646  0.05097501  1
  Se  Se140  1  0.59385273  0.24909134  0.56479167  1
  Se  Se141  1  0.58448142  0.58449990  0.04867353  1
  Se  Se142  1  0.58940108  0.57545273  0.55358381  1
  Se  Se143  1  0.57800384  0.89603162  0.04605098  1
  Se  Se144  1  0.58119268  0.91932712  0.55888598  1
  Se  Se145  1  0.91030444  0.24439858  0.05025796  1
  Se  Se146  1  0.92235488  0.26159810  0.56520204  1
  Se  Se147  1  0.92454249  0.57335346  0.05230806  1
  Se  Se148  1  0.92831246  0.59635361  0.55456689  1
  Se  Se149  1  0.93040802  0.92303072  0.04506746  1
  Se  Se150  1  0.90607436  0.92060539  0.56260793  1
  Se  Se151  1  0.08162726  0.24695747  0.44958613  1
  Se  Se152  1  0.07180409  0.25029733  0.94026274  1
  Se  Se153  1  0.08181451  0.57802927  0.44289438  1
  Se  Se154  1  0.07595416  0.57970760  0.92905692  1
  Se  Se155  1  0.07939468  0.91923688  0.45561471  1
  Se  Se156  1  0.10174457  0.91039896  0.94898203  1
  Se  Se157  1  0.40997222  0.25973810  0.43659811  1
  Se  Se158  1  0.42079734  0.24720973  0.94897597  1
  Se  Se159  1  0.42216213  0.58222530  0.44476727  1
  Se  Se160  1  0.41743215  0.58156959  0.95254866  1
  Se  Se161  1  0.40267334  0.92712514  0.43948031  1
  Se  Se162  1  0.41601456  0.91623867  0.94225230  1
  Se  Se163  1  0.74537660  0.24881202  0.44252134  1
  Se  Se164  1  0.75274626  0.24807489  0.94301675  1
  Se  Se165  1  0.74651486  0.58982364  0.43634056  1
  Se  Se166  1  0.73101346  0.59716007  0.95331184  1
  Se  Se167  1  0.74710833  0.91405564  0.44575516  1
  Se  Se168  1  0.77318070  0.91096654  0.94936507  1
  Se  Se169  1  0.24436579  0.08999955  0.45159638  1
  Se  Se170  1  0.25243039  0.07796545  0.93887546  1
  Se  Se171  1  0.25252422  0.41626940  0.45043310  1
  Se  Se172  1  0.25775953  0.40581067  0.93379288  1
  Se  Se173  1  0.25020198  0.74976474  0.44452877  1
  Se  Se174  1  0.24670016  0.74986855  0.94931023  1
  Se  Se175  1  0.58634988  0.07888682  0.44096208  1
  Se  Se176  1  0.59235058  0.07791471  0.94830290  1
  Se  Se177  1  0.58418231  0.41664603  0.45012742  1
  Se  Se178  1  0.58240527  0.41716637  0.95022806  1
  Se  Se179  1  0.58758265  0.74242812  0.43566136  1
  Se  Se180  1  0.57341051  0.77209640  0.95996181  1
  Se  Se181  1  0.91815995  0.07403184  0.44191064  1
  Se  Se182  1  0.92688334  0.08946341  0.94248043  1
  Se  Se183  1  0.91759184  0.41053079  0.43707936  1
  Se  Se184  1  0.90655334  0.42214135  0.94457716  1
  Se  Se185  1  0.89565175  0.76601502  0.44714254  1
  Se  Se186  1  0.92641063  0.74189427  0.95229816  1
  Se  Se187  1  0.24383059  0.24754312  0.31288301  1
  Se  Se188  1  0.24337709  0.23922697  0.81202822  1
  Se  Se189  1  0.25266263  0.58622787  0.30513587  1
  Se  Se190  1  0.24703334  0.57904170  0.80281022  1
  Se  Se191  1  0.23685850  0.91683329  0.31088081  1
  Se  Se192  1  0.24965656  0.91960871  0.80282919  1
  Se  Se193  1  0.58622764  0.25218287  0.29735625  1
  Se  Se194  1  0.58433133  0.24057039  0.80934402  1
  Se  Se195  1  0.58592048  0.58073108  0.30747773  1
  Se  Se196  1  0.57637693  0.58038516  0.81484708  1
  Se  Se197  1  0.59151561  0.92467697  0.29455364  1
  Se  Se198  1  0.58801471  0.92045358  0.80957211  1
  Se  Se199  1  0.91218710  0.24097618  0.30014901  1
  Se  Se200  1  0.93889276  0.28407890  0.80854202  1
  Se  Se201  1  0.91407495  0.57849728  0.29778395  1
  Se  Se202  1  0.89886850  0.58628937  0.81021331  1
  Se  Se203  1  0.91600080  0.90223771  0.30948074  1
  Se  Se204  1  0.91971568  0.91975409  0.81136060  1
  Se  Se205  1  0.08050682  0.08260923  0.30813540  1
  Se  Se206  1  0.07755388  0.08211920  0.79643298  1
  Se  Se207  1  0.08330839  0.40946697  0.30278319  1
  Se  Se208  1  0.08654593  0.42219518  0.79443748  1
  Se  Se209  1  0.07852755  0.74763689  0.30879537  1
  Se  Se210  1  0.07982569  0.76509865  0.81583638  1
  Se  Se211  1  0.42847225  0.09284405  0.30250940  1
  Se  Se212  1  0.41372262  0.07485564  0.80308491  1
  Se  Se213  1  0.42433135  0.42567883  0.30986952  1
  Se  Se214  1  0.42764710  0.41819969  0.81098156  1
  Se  Se215  1  0.42465923  0.76400095  0.29759606  1
  Se  Se216  1  0.42494307  0.74716965  0.82157780  1
  Se  Se217  1  0.75000960  0.07777768  0.30009659  1
  Se  Se218  1  0.76560899  0.09306149  0.80153689  1
  Se  Se219  1  0.74590009  0.41096667  0.29894568  1
  Se  Se220  1  0.73822585  0.41650879  0.80466725  1
  Se  Se221  1  0.75607371  0.75270600  0.30424270  1
  Se  Se222  1  0.74987413  0.76327666  0.82019764  1
  Se  Se223  1  0.24131285  0.09147047  0.19603400  1
  Se  Se224  1  0.25285121  0.07710339  0.69676996  1
  Se  Se225  1  0.24110231  0.42561131  0.18769808  1
  Se  Se226  1  0.25192104  0.41596399  0.68590307  1
  Se  Se227  1  0.25580124  0.75064115  0.20257597  1
  Se  Se228  1  0.23560894  0.75702580  0.69474406  1
  Se  Se229  1  0.58954202  0.08141830  0.18651106  1
  Se  Se230  1  0.58913392  0.07559528  0.70285708  1
  Se  Se231  1  0.58694116  0.41785406  0.19541385  1
  Se  Se232  1  0.59866049  0.41466449  0.70654306  1
  Se  Se233  1  0.58180994  0.75972540  0.18205208  1
  Se  Se234  1  0.57448595  0.75552970  0.69678175  1
  Se  Se235  1  0.89982177  0.08167853  0.17926132  1
  Se  Se236  1  0.89115435  0.10712626  0.70387506  1
  Se  Se237  1  0.91992926  0.40685698  0.19389751  1
  Se  Se238  1  0.91768653  0.43507760  0.70019952  1
  Se  Se239  1  0.92125000  0.74559741  0.19183262  1
  Se  Se240  1  0.90717017  0.76117342  0.69483816  1
  Se  Se241  1  0.07300023  0.24963246  0.20049150  1
  Se  Se242  1  0.08621298  0.25179262  0.69611724  1
  Se  Se243  1  0.08235699  0.58227736  0.20061562  1
  Se  Se244  1  0.08997274  0.58889888  0.68691266  1
  Se  Se245  1  0.08804785  0.90645537  0.18889129  1
  Se  Se246  1  0.07198947  0.92273192  0.69655424  1
  Se  Se247  1  0.42007856  0.24805170  0.18635385  1
  Se  Se248  1  0.42858493  0.23852564  0.69065014  1
  Se  Se249  1  0.41881754  0.59208944  0.19952396  1
  Se  Se250  1  0.43019864  0.57085385  0.69709023  1
  Se  Se251  1  0.43185596  0.92678565  0.17606935  1
  Se  Se252  1  0.41551730  0.90798277  0.70418766  1
  Se  Se253  1  0.74658051  0.25082269  0.19045694  1
  Se  Se254  1  0.74020759  0.26600351  0.71006426  1
  Se  Se255  1  0.76082192  0.57117874  0.18234630  1
  Se  Se256  1  0.75938550  0.58517050  0.69010310  1
  Se  Se257  1  0.75505137  0.91478529  0.18588710  1
  Se  Se258  1  0.74311241  0.91690358  0.70388707  1
