# generated using pymatgen
data_In86Cu29Se144
_symmetry_space_group_name_H-M   'P 1'
_cell_length_a   17.55824778
_cell_length_b   17.55986856
_cell_length_c   23.42230526
_cell_angle_alpha   89.99677617
_cell_angle_beta   89.99339129
_cell_angle_gamma   90.00354932
_symmetry_Int_Tables_number   1
_chemical_formula_structural   In86Cu29Se144
_chemical_formula_sum   'In86 Cu29 Se144'
_cell_volume   7221.57733800
_cell_formula_units_Z   1
loop_
 _symmetry_equiv_pos_site_id
 _symmetry_equiv_pos_as_xyz
  1  'x, y, z'
loop_
 _atom_site_type_symbol
 _atom_site_label
 _atom_site_symmetry_multiplicity
 _atom_site_fract_x
 _atom_site_fract_y
 _atom_site_fract_z
 _atom_site_occupancy
  In  In0  1  0.00545013  0.17805227  0.12285204  1
  In  In1  1  0.00671083  0.14429681  0.62391817  1
  In  In2  1  -0.00811400  0.48833402  0.11709678  1
  In  In3  1  0.00532435  0.51848376  0.62187991  1
  In  In4  1  0.00588812  0.83528930  0.12535396  1
  In  In5  1  0.00472876  0.83269794  0.63340479  1
  In  In6  1  0.34885237  0.15327364  0.13964662  1
  In  In7  1  0.32088966  0.18248529  0.61780127  1
  In  In8  1  0.33361129  0.49962732  0.12487201  1
  In  In9  1  0.35117587  0.51666000  0.61370467  1
  In  In10  1  0.37656654  0.80787819  0.15888309  1
  In  In11  1  0.32721068  0.82050795  0.61933278  1
  In  In12  1  0.66965251  0.16892155  0.11985511  1
  In  In13  1  0.67083712  0.15630374  0.62170852  1
  In  In14  1  0.66630673  0.49907201  0.12670974  1
  In  In15  1  0.66733738  0.50737772  0.61888142  1
  In  In16  1  0.63555158  0.85595639  0.14772088  1
  In  In17  1  0.64901100  0.82348109  0.61836468  1
  In  In18  1  0.17908366  -0.01321096  0.39182765  1
  In  In19  1  0.15630213  -0.00391270  0.87040009  1
  In  In20  1  0.15662272  0.33111850  0.36534687  1
  In  In21  1  0.18486573  0.33614653  0.87700202  1
  In  In22  1  0.18155798  0.66569122  0.37722847  1
  In  In23  1  0.15918094  0.66507809  0.86633505  1
  In  In24  1  0.48420877  -0.01593038  0.35468273  1
  In  In25  1  0.50700266  -0.00771468  0.89596830  1
  In  In26  1  0.50866942  0.34147273  0.36309411  1
  In  In27  1  0.49800612  0.33773003  0.88802893  1
  In  In28  1  0.49170497  0.66606276  0.37373147  1
  In  In29  1  0.50538811  0.65821707  0.87694888  1
  In  In30  1  0.83574270  0.00499042  0.37573939  1
  In  In31  1  0.83832788  -0.00536715  0.88187646  1
  In  In32  1  0.83604011  0.33192838  0.36898618  1
  In  In33  1  0.82290897  0.34535274  0.88689552  1
  In  In34  1  0.81294018  0.66872873  0.37667389  1
  In  In35  1  0.82123093  0.66564539  0.86779967  1
  In  In36  1  -0.00644818  0.16950189  0.37636195  1
  In  In37  1  0.00215779  0.15208911  0.87531505  1
  In  In38  1  -0.00075226  0.48484225  0.37759405  1
  In  In39  1  -0.00900920  0.51039948  0.88238377  1
  In  In40  1  0.01300823  0.84313417  0.38426602  1
  In  In41  1  -0.01862852  0.82133370  0.84432365  1
  In  In42  1  0.32835501  0.16698284  0.36849752  1
  In  In43  1  0.33535565  0.16974365  0.88280406  1
  In  In44  1  0.34171904  0.51293764  0.36612509  1
  In  In45  1  0.33171993  0.50125718  0.88375944  1
  In  In46  1  0.33911497  0.82802118  0.37715136  1
  In  In47  1  0.34768353  0.82952874  0.87615875  1
  In  In48  1  0.66193290  0.16195285  0.36082756  1
  In  In49  1  0.66320431  0.16581394  0.89843957  1
  In  In50  1  0.66216732  0.49792818  0.37417225  1
  In  In51  1  0.65811545  0.52074683  0.89063908  1
  In  In52  1  0.63741303  0.80965903  0.34941319  1
  In  In53  1  0.66545934  0.82112704  0.87590592  1
  In  In54  1  0.17651116  0.00968985  0.12393301  1
  In  In55  1  0.14723259  -0.01718211  0.59643906  1
  In  In56  1  0.15734625  0.33698502  0.13249481  1
  In  In57  1  0.18516075  0.32705215  0.61477909  1
  In  In58  1  0.18865708  0.67085922  0.12490220  1
  In  In59  1  0.15910410  0.68396843  0.64510259  1
  In  In60  1  0.50153113  0.00060736  0.12133895  1
  In  In61  1  0.51606721  -0.00772633  0.62129905  1
  In  In62  1  0.50204068  0.33765363  0.12765264  1
  In  In63  1  0.48696143  0.35306494  0.62169701  1
  In  In64  1  0.50697658  0.66280864  0.12818843  1
  In  In65  1  0.49423683  0.66074641  0.62645779  1
  In  In66  1  0.80495797  0.00122820  0.11742340  1
  In  In67  1  0.84020569  0.00506818  0.62935932  1
  In  In68  1  0.83654460  0.33414321  0.12521796  1
  In  In69  1  0.81805822  0.34043531  0.62025699  1
  In  In70  1  0.82244576  0.64930762  0.11730292  1
  In  In71  1  0.84388780  0.66544472  0.63027615  1
  In  In72  1  -0.00021912  0.00665819  0.25571099  1
  In  In73  1  0.17011599  0.17178648  -0.00122410  1
  In  In74  1  0.83913770  0.16918385  0.49194925  1
  In  In75  1  0.00057755  0.33710220  0.75086948  1
  In  In76  1  0.66179571  0.33851467  0.74567512  1
  In  In77  1  0.32979588  -0.00505130  0.74829005  1
  In  In78  1  0.50153942  0.16535212  0.49417167  1
  In  In79  1  -0.00182185  0.65842826  0.24926759  1
  In  In80  1  0.83193703  0.83044186  0.50264508  1
  In  In81  1  0.68044574  -0.01203391  0.75406086  1
  In  In82  1  0.81968643  0.82491811  -0.00592833  1
  In  In83  1  0.16935467  0.49982395  0.49794248  1
  In  In84  1  0.33504223  0.34168000  0.75168047  1
  In  In85  1  0.17053386  0.83836471  -0.00353300  1
  Cu  Cu86  1  0.66655102  -0.01480185  0.48858744  1
  Cu  Cu87  1  0.33519427  0.67356376  0.49967542  1
  Cu  Cu88  1  -0.00712610  0.33300286  0.49701343  1
  Cu  Cu89  1  0.16984675  0.50376916  0.75277219  1
  Cu  Cu90  1  0.49973636  0.82145257  0.75060578  1
  Cu  Cu91  1  0.50011086  0.50221656  0.24721150  1
  Cu  Cu92  1  0.65316472  0.65739269  0.49400307  1
  Cu  Cu93  1  0.66371118  0.67098322  0.00444919  1
  Cu  Cu94  1  0.33367951  -0.00960629  0.01006377  1
  Cu  Cu95  1  0.50571349  0.17146982  0.24273446  1
  Cu  Cu96  1  0.65752153  0.34091580  0.49662555  1
  Cu  Cu97  1  0.16042671  0.15568497  0.74288257  1
  Cu  Cu98  1  0.16849376  0.16662092  0.25108105  1
  Cu  Cu99  1  0.67055809  0.33931490  0.00897338  1
  Cu  Cu100  1  0.83485247  0.16703878  0.24452187  1
  Cu  Cu101  1  0.17611066  0.83766512  0.25812248  1
  Cu  Cu102  1  0.82979296  0.49559801  0.24706155  1
  Cu  Cu103  1  0.83979875  0.16347500  0.75814528  1
  Cu  Cu104  1  0.83272854  0.50708676  0.74904784  1
  Cu  Cu105  1  0.00478736  0.66149620  -0.00754296  1
  Cu  Cu106  1  0.16717560  0.50095928  0.24972619  1
  Cu  Cu107  1  -0.00065377  0.66950810  0.50764756  1
  Cu  Cu108  1  0.33568234  0.33096806  0.00992582  1
  Cu  Cu109  1  0.34268140  0.66521671  0.00558947  1
  Cu  Cu110  1  0.34669185  0.00128619  0.49355803  1
  Cu  Cu111  1  0.49841183  0.16619911  0.75932097  1
  Cu  Cu112  1  0.82871788  0.82783873  0.24669662  1
  Cu  Cu113  1  -0.00071151  0.33857948  0.00261399  1
  Cu  Cu114  1  -0.01206740  -0.00394214  -0.00607767  1
  Se  Se115  1  0.07604590  0.07370044  0.05220588  1
  Se  Se116  1  0.10568531  0.10895398  0.54916761  1
  Se  Se117  1  0.09051648  0.41673604  0.05282253  1
  Se  Se118  1  0.07591635  0.40988395  0.55926066  1
  Se  Se119  1  0.08025047  0.74186194  0.05646522  1
  Se  Se120  1  0.08355819  0.74756354  0.56215255  1
  Se  Se121  1  0.41305465  0.08582693  0.05440709  1
  Se  Se122  1  0.41615968  0.07972821  0.56337248  1
  Se  Se123  1  0.42037830  0.41979547  0.05648829  1
  Se  Se124  1  0.38742804  0.40083328  0.55134881  1
  Se  Se125  1  0.42017289  0.75003924  0.06233464  1
  Se  Se126  1  0.42463781  0.75133419  0.55372318  1
  Se  Se127  1  0.74953117  0.09240197  0.04441450  1
  Se  Se128  1  0.74648551  0.06895097  0.54836178  1
  Se  Se129  1  0.75697962  0.42336581  0.05836055  1
  Se  Se130  1  0.74613823  0.42253788  0.54746617  1
  Se  Se131  1  0.73533405  0.75456558  0.07012927  1
  Se  Se132  1  0.73960024  0.73378504  0.55515477  1
  Se  Se133  1  0.25555544  0.24797473  0.06913662  1
  Se  Se134  1  0.25945276  0.25855631  0.53557860  1
  Se  Se135  1  0.25206939  0.58179067  0.05184101  1
  Se  Se136  1  0.24547550  0.59846028  0.56059930  1
  Se  Se137  1  0.25796049  0.90733592  0.07007334  1
  Se  Se138  1  0.26401194  0.91833689  0.55009463  1
  Se  Se139  1  0.58202964  0.25554648  0.05643752  1
  Se  Se140  1  0.58762943  0.25605588  0.56170752  1
  Se  Se141  1  0.58388856  0.58035526  0.05540229  1
  Se  Se142  1  0.57167242  0.57719632  0.55233867  1
  Se  Se143  1  0.58331749  0.91290219  0.05552777  1
  Se  Se144  1  0.57985644  0.90847252  0.54381843  1
  Se  Se145  1  0.91839205  0.25097292  0.05318433  1
  Se  Se146  1  0.91986874  0.25360234  0.56477889  1
  Se  Se147  1  0.92014310  0.58415551  0.05076637  1
  Se  Se148  1  0.91105961  0.58282041  0.55156053  1
  Se  Se149  1  0.91334243  0.91455744  0.05787758  1
  Se  Se150  1  0.92285932  0.92226454  0.55919790  1
  Se  Se151  1  0.07755456  0.25553703  0.44133853  1
  Se  Se152  1  0.07673111  0.25978299  0.93695519  1
  Se  Se153  1  0.07495393  0.59097775  0.43980648  1
  Se  Se154  1  0.09392771  0.58025127  0.94348885  1
  Se  Se155  1  0.08513490  0.91805255  0.45985078  1
  Se  Se156  1  0.06577099  0.91202310  0.93610143  1
  Se  Se157  1  0.41914457  0.25600642  0.43204361  1
  Se  Se158  1  0.41629330  0.24860569  0.95307468  1
  Se  Se159  1  0.41311936  0.58440882  0.44732484  1
  Se  Se160  1  0.42232619  0.57969428  0.94938378  1
  Se  Se161  1  0.42666830  0.91537515  0.44194479  1
  Se  Se162  1  0.41588738  0.90643768  0.95537971  1
  Se  Se163  1  0.73581394  0.25245225  0.43906740  1
  Se  Se164  1  0.75369551  0.25381163  0.95636640  1
  Se  Se165  1  0.74613399  0.57755008  0.44671529  1
  Se  Se166  1  0.75741204  0.59431293  0.95293711  1
  Se  Se167  1  0.74703246  0.90677527  0.42941302  1
  Se  Se168  1  0.73161277  0.92686828  0.94288438  1
  Se  Se169  1  0.25970195  0.08737494  0.44707452  1
  Se  Se170  1  0.25362917  0.06607803  0.94389818  1
  Se  Se171  1  0.25050779  0.41889292  0.42818397  1
  Se  Se172  1  0.25345386  0.41334935  0.95404935  1
  Se  Se173  1  0.24817657  0.75560747  0.44844767  1
  Se  Se174  1  0.25803165  0.73949129  0.94170974  1
  Se  Se175  1  0.58761521  0.07316833  0.43329851  1
  Se  Se176  1  0.56219539  0.09799313  0.95828645  1
  Se  Se177  1  0.57215436  0.42157864  0.44434057  1
  Se  Se178  1  0.58738965  0.41979078  0.95191500  1
  Se  Se179  1  0.58039296  0.75001903  0.44054041  1
  Se  Se180  1  0.57985036  0.74924404  0.94762423  1
  Se  Se181  1  0.93318735  0.06710829  0.44866411  1
  Se  Se182  1  0.90973103  0.09085386  0.94821644  1
  Se  Se183  1  0.90651691  0.41423058  0.44614031  1
  Se  Se184  1  0.91439292  0.42399254  0.95134707  1
  Se  Se185  1  0.92290941  0.74174979  0.43842070  1
  Se  Se186  1  0.92510540  0.74677983  0.93596449  1
  Se  Se187  1  0.25068578  0.25588506  0.30001635  1
  Se  Se188  1  0.24412413  0.23509317  0.80342524  1
  Se  Se189  1  0.24933170  0.58901655  0.29875616  1
  Se  Se190  1  0.25563574  0.58060185  0.80894983  1
  Se  Se191  1  0.25709512  0.92102941  0.31235874  1
  Se  Se192  1  0.24474116  0.90401500  0.81126146  1
  Se  Se193  1  0.59003702  0.25591870  0.29510099  1
  Se  Se194  1  0.58188644  0.24690243  0.81546131  1
  Se  Se195  1  0.57930866  0.58312501  0.30703294  1
  Se  Se196  1  0.59919066  0.59024514  0.80646279  1
  Se  Se197  1  0.60349560  0.93693479  0.30205499  1
  Se  Se198  1  0.57149908  0.91257812  0.80986984  1
  Se  Se199  1  0.91823931  0.24686741  0.30108728  1
  Se  Se200  1  0.91027485  0.25308263  0.81646958  1
  Se  Se201  1  0.90603776  0.57515830  0.31326009  1
  Se  Se202  1  0.91713116  0.58607805  0.80556051  1
  Se  Se203  1  0.91294075  0.90219339  0.30841085  1
  Se  Se204  1  0.90604377  0.93070918  0.79865806  1
  Se  Se205  1  0.09597118  0.08513157  0.31765137  1
  Se  Se206  1  0.07706312  0.07657338  0.79853608  1
  Se  Se207  1  0.07717381  0.41981873  0.29787985  1
  Se  Se208  1  0.09247582  0.42178141  0.81388805  1
  Se  Se209  1  0.08646871  0.75477007  0.30921072  1
  Se  Se210  1  0.09403955  0.75712268  0.79566923  1
  Se  Se211  1  0.41945263  0.09344294  0.29958229  1
  Se  Se212  1  0.42047654  0.08073669  0.81559545  1
  Se  Se213  1  0.41418589  0.41913828  0.29892389  1
  Se  Se214  1  0.42846125  0.42552582  0.81131292  1
  Se  Se215  1  0.42366056  0.75897473  0.30258455  1
  Se  Se216  1  0.41906469  0.74015824  0.80696698  1
  Se  Se217  1  0.75855499  0.08136997  0.30120749  1
  Se  Se218  1  0.74790810  0.09370602  0.81717593  1
  Se  Se219  1  0.74762609  0.41472816  0.30568245  1
  Se  Se220  1  0.75156946  0.42575213  0.80808803  1
  Se  Se221  1  0.74586315  0.73952595  0.29452627  1
  Se  Se222  1  0.75911057  0.76702778  0.80306596  1
  Se  Se223  1  0.25116286  0.07852298  0.20312413  1
  Se  Se224  1  0.24736992  0.08475285  0.68293518  1
  Se  Se225  1  0.24986824  0.41688333  0.19496913  1
  Se  Se226  1  0.24502180  0.42612829  0.68730318  1
  Se  Se227  1  0.25366080  0.74971316  0.20418805  1
  Se  Se228  1  0.26352256  0.75120756  0.70255966  1
  Se  Se229  1  0.58602442  0.08656689  0.18877100  1
  Se  Se230  1  0.58208877  0.08598638  0.69863857  1
  Se  Se231  1  0.58637991  0.41725004  0.19813489  1
  Se  Se232  1  0.57078690  0.43256488  0.69244522  1
  Se  Se233  1  0.57195681  0.75009343  0.20562196  1
  Se  Se234  1  0.58361564  0.74149484  0.69561075  1
  Se  Se235  1  0.91320883  0.08330099  0.18334850  1
  Se  Se236  1  0.92083117  0.08271856  0.70193414  1
  Se  Se237  1  0.91951511  0.41601577  0.19694259  1
  Se  Se238  1  0.90939992  0.42440295  0.68787537  1
  Se  Se239  1  0.91146884  0.75036025  0.18613963  1
  Se  Se240  1  0.91763548  0.75286860  0.69857216  1
  Se  Se241  1  0.08004830  0.24813804  0.20177542  1
  Se  Se242  1  0.09063555  0.25019864  0.68701883  1
  Se  Se243  1  0.08956595  0.57899267  0.18373193  1
  Se  Se244  1  0.07941467  0.58396987  0.70291350  1
  Se  Se245  1  0.09343074  0.91437414  0.19682619  1
  Se  Se246  1  0.09041214  0.92926006  0.68793141  1
  Se  Se247  1  0.41615830  0.25831676  0.19829478  1
  Se  Se248  1  0.42305058  0.24365334  0.69262552  1
  Se  Se249  1  0.41467139  0.58362608  0.19414732  1
  Se  Se250  1  0.41268272  0.58185550  0.69865061  1
  Se  Se251  1  0.40514918  0.94131736  0.19462844  1
  Se  Se252  1  0.42819349  0.91003443  0.68964036  1
  Se  Se253  1  0.75140659  0.25083428  0.19200032  1
  Se  Se254  1  0.75841681  0.23809719  0.69421446  1
  Se  Se255  1  0.74729967  0.58333392  0.19822911  1
  Se  Se256  1  0.74888911  0.58453885  0.69123851  1
  Se  Se257  1  0.74979033  0.92098248  0.19990266  1
  Se  Se258  1  0.75305766  0.90281070  0.68019156  1
