# generated using pymatgen
data_In86Cu29Se144
_symmetry_space_group_name_H-M   'P 1'
_cell_length_a   17.58020282
_cell_length_b   17.57720165
_cell_length_c   23.43698396
_cell_angle_alpha   90.02669452
_cell_angle_beta   90.01990793
_cell_angle_gamma   90.00442915
_symmetry_Int_Tables_number   1
_chemical_formula_structural   In86Cu29Se144
_chemical_formula_sum   'In86 Cu29 Se144'
_cell_volume   7242.27921623
_cell_formula_units_Z   1
loop_
 _symmetry_equiv_pos_site_id
 _symmetry_equiv_pos_as_xyz
  1  'x, y, z'
loop_
 _atom_site_type_symbol
 _atom_site_label
 _atom_site_symmetry_multiplicity
 _atom_site_fract_x
 _atom_site_fract_y
 _atom_site_fract_z
 _atom_site_occupancy
  In  In0  1  0.00622570  0.16001246  0.12703687  1
  In  In1  1  -0.00694469  0.18036623  0.61774848  1
  In  In2  1  0.01012913  0.49483419  0.13187341  1
  In  In3  1  0.01825832  0.50513967  0.61321450  1
  In  In4  1  0.00361937  0.83966682  0.14076826  1
  In  In5  1  -0.01799518  0.82624544  0.61745531  1
  In  In6  1  0.32661819  0.18384148  0.13588936  1
  In  In7  1  0.33335742  0.15091173  0.61957666  1
  In  In8  1  0.33264652  0.50304647  0.12516906  1
  In  In9  1  0.34552095  0.52091096  0.60455174  1
  In  In10  1  0.33440894  0.81998636  0.14382160  1
  In  In11  1  0.32638513  0.81633209  0.61671799  1
  In  In12  1  0.66881418  0.15124980  0.13029672  1
  In  In13  1  0.67293397  0.17496734  0.61713461  1
  In  In14  1  0.66943465  0.51429844  0.12494696  1
  In  In15  1  0.65537648  0.50531197  0.62303851  1
  In  In16  1  0.65860326  0.83920417  0.12905776  1
  In  In17  1  0.66910183  0.83325175  0.61498389  1
  In  In18  1  0.16343857  -0.01802060  0.35047304  1
  In  In19  1  0.17337755  -0.00321271  0.89019621  1
  In  In20  1  0.16761615  0.34151251  0.36871272  1
  In  In21  1  0.16198161  0.33453892  0.88765720  1
  In  In22  1  0.16428609  0.66124025  0.37302071  1
  In  In23  1  0.16334431  0.65785156  0.87238692  1
  In  In24  1  0.50380144  -0.00364760  0.36972272  1
  In  In25  1  0.49053161  -0.00852560  0.88378464  1
  In  In26  1  0.48269408  0.34022812  0.38087917  1
  In  In27  1  0.52042124  0.33631240  0.87437628  1
  In  In28  1  0.49693059  0.66287796  0.37529198  1
  In  In29  1  0.48639413  0.67133143  0.87971605  1
  In  In30  1  0.82604519  -0.00162111  0.37022358  1
  In  In31  1  0.84108666  0.00468971  0.87940438  1
  In  In32  1  0.83436993  0.32047913  0.37088521  1
  In  In33  1  0.82553107  0.32983650  0.87753655  1
  In  In34  1  0.84594728  0.68338002  0.37433679  1
  In  In35  1  0.84242393  0.65636924  0.86934055  1
  In  In36  1  -0.02767762  0.15064006  0.35013436  1
  In  In37  1  -0.00521838  0.16446726  0.89559425  1
  In  In38  1  0.01678253  0.51717689  0.37044113  1
  In  In39  1  0.00379692  0.50755138  0.87709247  1
  In  In40  1  -0.00363877  0.82019094  0.36531250  1
  In  In41  1  0.00653629  0.82666268  0.87518130  1
  In  In42  1  0.33433823  0.16880245  0.36753937  1
  In  In43  1  0.33126328  0.15602679  0.88550334  1
  In  In44  1  0.33222260  0.50172476  0.37548900  1
  In  In45  1  0.32407013  0.50780676  0.88240096  1
  In  In46  1  0.33777683  0.83259853  0.36600901  1
  In  In47  1  0.34147288  0.83230200  0.87977721  1
  In  In48  1  0.67630461  0.15155195  0.37612026  1
  In  In49  1  0.66680585  0.18112015  0.87492389  1
  In  In50  1  0.64664353  0.50220390  0.37777031  1
  In  In51  1  0.67264048  0.48657360  0.87431137  1
  In  In52  1  0.66748187  0.83350059  0.37319951  1
  In  In53  1  0.65607832  0.82131998  0.87577874  1
  In  In54  1  0.15400243  0.01738956  0.14227205  1
  In  In55  1  0.17016362  -0.00198525  0.62230124  1
  In  In56  1  0.16933140  0.33481228  0.12256792  1
  In  In57  1  0.15156906  0.34270619  0.62206031  1
  In  In58  1  0.17599828  0.66679670  0.13961399  1
  In  In59  1  0.17764297  0.65863546  0.62730560  1
  In  In60  1  0.51155203  -0.00606621  0.13307661  1
  In  In61  1  0.49598608  -0.00314842  0.60862589  1
  In  In62  1  0.48729547  0.33408673  0.12660093  1
  In  In63  1  0.50953222  0.34497009  0.62064147  1
  In  In64  1  0.49657368  0.66631547  0.12851043  1
  In  In65  1  0.49418623  0.66391225  0.61033538  1
  In  In66  1  0.83726435  0.00975859  0.13341746  1
  In  In67  1  0.82521900  -0.00518357  0.61454240  1
  In  In68  1  0.85054262  0.32586106  0.13680598  1
  In  In69  1  0.83420229  0.31872171  0.61775053  1
  In  In70  1  0.83108572  0.66976396  0.13638007  1
  In  In71  1  0.83781272  0.67695583  0.62241578  1
  In  In72  1  0.83299657  0.49793414  -0.00319062  1
  In  In73  1  0.33626960  -0.00612167  0.75815468  1
  In  In74  1  0.66070773  0.33401459  0.25528010  1
  In  In75  1  0.83267995  0.49998251  0.50077901  1
  In  In76  1  0.33720603  0.33944089  0.74879859  1
  In  In77  1  0.83144538  0.83696469  0.01270755  1
  In  In78  1  0.16667006  0.17128405  0.48790478  1
  In  In79  1  -0.00042533  -0.00676224  0.75257304  1
  In  In80  1  0.67179554  0.66254585  0.74786154  1
  In  In81  1  0.50020696  0.16757714  0.00289276  1
  In  In82  1  0.16767089  0.82697200  0.48364683  1
  In  In83  1  0.16621372  0.83884090  0.01517694  1
  In  In84  1  0.66745274  -0.00274350  0.73681461  1
  In  In85  1  -0.01236842  0.34543660  0.75347694  1
  Cu  Cu86  1  0.83429215  0.50792926  0.25657573  1
  Cu  Cu87  1  0.67278223  0.33407320  0.00336566  1
  Cu  Cu88  1  0.49913469  0.50621395  0.74439350  1
  Cu  Cu89  1  0.65038639  0.66544010  0.00007601  1
  Cu  Cu90  1  0.00565038  0.32754576  0.01100972  1
  Cu  Cu91  1  0.49907537  0.16495266  0.25380991  1
  Cu  Cu92  1  0.66715003  -0.00114597  0.49305104  1
  Cu  Cu93  1  0.17597062  0.50770544  0.74671719  1
  Cu  Cu94  1  0.50869587  0.82761010  0.25339072  1
  Cu  Cu95  1  0.83164140  0.83621513  0.25053634  1
  Cu  Cu96  1  0.50653460  0.17652793  0.74717607  1
  Cu  Cu97  1  0.32945228  0.33217068  0.49489531  1
  Cu  Cu98  1  0.16938188  0.17892686  0.24891659  1
  Cu  Cu99  1  0.16107238  0.81767856  0.74865467  1
  Cu  Cu100  1  0.33279292  0.34010760  0.00408458  1
  Cu  Cu101  1  0.49122847  0.50479374  0.25236566  1
  Cu  Cu102  1  -0.00322600  0.33067541  0.48917833  1
  Cu  Cu103  1  0.66571111  0.67119863  0.49565458  1
  Cu  Cu104  1  0.16889676  0.49718618  0.24870909  1
  Cu  Cu105  1  -0.00751128  0.00787646  0.49155896  1
  Cu  Cu106  1  0.16127538  0.16970294  0.76135777  1
  Cu  Cu107  1  0.66837132  -0.00372689  0.00625657  1
  Cu  Cu108  1  0.32935387  0.66944041  0.00880918  1
  Cu  Cu109  1  -0.00142425  0.66409640  0.00305803  1
  Cu  Cu110  1  0.33762846  -0.00037147  0.48607669  1
  Cu  Cu111  1  0.33126598  0.00154597  0.01405269  1
  Cu  Cu112  1  0.83084808  0.16514878  0.74539588  1
  Cu  Cu113  1  0.66027752  0.32288431  0.49169057  1
  Cu  Cu114  1  0.49797264  0.82836878  0.74706864  1
  Se  Se115  1  0.09133848  0.08118451  0.05669000  1
  Se  Se116  1  0.07736207  0.08035072  0.55519412  1
  Se  Se117  1  0.08607087  0.42158361  0.05454990  1
  Se  Se118  1  0.08283972  0.41267256  0.54041732  1
  Se  Se119  1  0.07386104  0.74232362  0.06755038  1
  Se  Se120  1  0.08988828  0.75331803  0.56174135  1
  Se  Se121  1  0.41517820  0.08429942  0.06999786  1
  Se  Se122  1  0.41514397  0.08552698  0.54254966  1
  Se  Se123  1  0.41889278  0.42189877  0.05464248  1
  Se  Se124  1  0.41385042  0.41118335  0.55192341  1
  Se  Se125  1  0.41090767  0.75340655  0.06222592  1
  Se  Se126  1  0.42659439  0.76375190  0.54856804  1
  Se  Se127  1  0.75213280  0.08003119  0.05633749  1
  Se  Se128  1  0.74766231  0.08426157  0.54965246  1
  Se  Se129  1  0.75285343  0.41026061  0.06682810  1
  Se  Se130  1  0.73797807  0.40596930  0.55559604  1
  Se  Se131  1  0.73811087  0.73810162  0.05997412  1
  Se  Se132  1  0.75346238  0.74910515  0.54924414  1
  Se  Se133  1  0.25391507  0.25027061  0.05382512  1
  Se  Se134  1  0.25046985  0.25438918  0.56134763  1
  Se  Se135  1  0.24340552  0.58812350  0.06034964  1
  Se  Se136  1  0.23564830  0.57710035  0.54646301  1
  Se  Se137  1  0.25598967  0.92288654  0.07762925  1
  Se  Se138  1  0.25556608  0.92322270  0.54922273  1
  Se  Se139  1  0.59209636  0.25520939  0.06460243  1
  Se  Se140  1  0.57647762  0.24762132  0.55281375  1
  Se  Se141  1  0.57488511  0.57997062  0.05605687  1
  Se  Se142  1  0.58516376  0.58266631  0.54638924  1
  Se  Se143  1  0.57936766  0.91464060  0.05342603  1
  Se  Se144  1  0.58475558  0.91385196  0.54712447  1
  Se  Se145  1  0.91752136  0.24582276  0.05953845  1
  Se  Se146  1  0.91272208  0.24703764  0.54031203  1
  Se  Se147  1  0.91614893  0.58641346  0.06300111  1
  Se  Se148  1  0.92644059  0.59377222  0.55239301  1
  Se  Se149  1  0.92821868  0.92396562  0.06475676  1
  Se  Se150  1  0.91603674  0.92031499  0.54761462  1
  Se  Se151  1  0.07142073  0.24810935  0.42577128  1
  Se  Se152  1  0.08956004  0.24424430  0.95545007  1
  Se  Se153  1  0.08866638  0.58699774  0.45021446  1
  Se  Se154  1  0.08435308  0.58465477  0.94940587  1
  Se  Se155  1  0.07679583  0.92788496  0.43439123  1
  Se  Se156  1  0.07094104  0.91941555  0.94908792  1
  Se  Se157  1  0.41008168  0.24302937  0.44614550  1
  Se  Se158  1  0.41431372  0.26161229  0.94011213  1
  Se  Se159  1  0.42968319  0.56697707  0.44312610  1
  Se  Se160  1  0.41083381  0.58655208  0.95127191  1
  Se  Se161  1  0.42004477  0.91165012  0.43799423  1
  Se  Se162  1  0.40851802  0.91777462  0.95618783  1
  Se  Se163  1  0.75125824  0.24567343  0.44302943  1
  Se  Se164  1  0.75216093  0.24641340  0.95100629  1
  Se  Se165  1  0.74616612  0.58836423  0.43637276  1
  Se  Se166  1  0.73988746  0.59348590  0.94169088  1
  Se  Se167  1  0.75261946  0.91347165  0.44374946  1
  Se  Se168  1  0.74155847  0.91612414  0.94033365  1
  Se  Se169  1  0.24523174  0.07025325  0.42939177  1
  Se  Se170  1  0.24898871  0.08417023  0.95954308  1
  Se  Se171  1  0.24652385  0.41657764  0.44398631  1
  Se  Se172  1  0.24644569  0.42105429  0.95075197  1
  Se  Se173  1  0.26819426  0.73633566  0.43844357  1
  Se  Se174  1  0.24839506  0.74919107  0.94619054  1
  Se  Se175  1  0.58078618  0.08183910  0.44283254  1
  Se  Se176  1  0.59164041  0.07734501  0.94102722  1
  Se  Se177  1  0.57640509  0.41346111  0.44816088  1
  Se  Se178  1  0.58951061  0.41792292  0.95101576  1
  Se  Se179  1  0.58212163  0.75092863  0.44073335  1
  Se  Se180  1  0.57087487  0.75416206  0.94922180  1
  Se  Se181  1  0.90868265  0.08837029  0.43817200  1
  Se  Se182  1  0.90937948  0.07906093  0.95676959  1
  Se  Se183  1  0.91988021  0.41868201  0.43241382  1
  Se  Se184  1  0.92876941  0.40412628  0.94350462  1
  Se  Se185  1  0.93040571  0.75134110  0.44859303  1
  Se  Se186  1  0.91642408  0.74373567  0.94613339  1
  Se  Se187  1  0.25472889  0.25900674  0.30266284  1
  Se  Se188  1  0.25026027  0.24627141  0.81467028  1
  Se  Se189  1  0.24967644  0.58105783  0.30386777  1
  Se  Se190  1  0.25813246  0.58821587  0.80335230  1
  Se  Se191  1  0.26147235  0.91051104  0.29002137  1
  Se  Se192  1  0.23639307  0.90333603  0.81128713  1
  Se  Se193  1  0.57487113  0.24569446  0.31784885  1
  Se  Se194  1  0.59328868  0.25738141  0.79755305  1
  Se  Se195  1  0.58177219  0.58497556  0.30097903  1
  Se  Se196  1  0.57764011  0.58075294  0.81253288  1
  Se  Se197  1  0.59091971  0.91767987  0.30081384  1
  Se  Se198  1  0.57466553  0.91398394  0.80527549  1
  Se  Se199  1  0.91825440  0.26391196  0.29235364  1
  Se  Se200  1  0.91498178  0.23560334  0.81063878  1
  Se  Se201  1  0.92056008  0.59178873  0.30664070  1
  Se  Se202  1  0.90989160  0.56155266  0.80387902  1
  Se  Se203  1  0.91721315  0.91614683  0.30464955  1
  Se  Se204  1  0.90641582  0.90496828  0.81062423  1
  Se  Se205  1  0.08853752  0.08978452  0.29908808  1
  Se  Se206  1  0.08743462  0.08271349  0.81856794  1
  Se  Se207  1  0.07865929  0.41919340  0.30088242  1
  Se  Se208  1  0.09782905  0.42225571  0.80674763  1
  Se  Se209  1  0.10578428  0.76271453  0.30369181  1
  Se  Se210  1  0.07703254  0.73921593  0.80435450  1
  Se  Se211  1  0.41508890  0.07833121  0.30314591  1
  Se  Se212  1  0.43066623  0.09481010  0.81013397  1
  Se  Se213  1  0.41086188  0.41581790  0.30272240  1
  Se  Se214  1  0.42647364  0.42569433  0.81229305  1
  Se  Se215  1  0.42022606  0.74402055  0.30066320  1
  Se  Se216  1  0.41272556  0.75163517  0.80359590  1
  Se  Se217  1  0.75503980  0.08674526  0.29812272  1
  Se  Se218  1  0.75120095  0.08558950  0.80647183  1
  Se  Se219  1  0.75144032  0.42709405  0.31409370  1
  Se  Se220  1  0.76760279  0.42368181  0.80604880  1
  Se  Se221  1  0.75182098  0.74958013  0.30454693  1
  Se  Se222  1  0.75732755  0.75603127  0.80952110  1
  Se  Se223  1  0.25647973  0.08930374  0.20251982  1
  Se  Se224  1  0.24087112  0.08884448  0.69972678  1
  Se  Se225  1  0.25177133  0.41638884  0.19282066  1
  Se  Se226  1  0.24845334  0.42338546  0.68446418  1
  Se  Se227  1  0.22908403  0.76657221  0.21210700  1
  Se  Se228  1  0.25555939  0.74553982  0.69738116  1
  Se  Se229  1  0.58520705  0.08189191  0.20423996  1
  Se  Se230  1  0.57182714  0.08751998  0.68328376  1
  Se  Se231  1  0.57576787  0.42637874  0.19143523  1
  Se  Se232  1  0.58529974  0.41985540  0.69785428  1
  Se  Se233  1  0.58793503  0.74437635  0.19531233  1
  Se  Se234  1  0.58075480  0.75273462  0.68709241  1
  Se  Se235  1  0.92536915  0.08414571  0.20151908  1
  Se  Se236  1  0.91416593  0.08635906  0.68658976  1
  Se  Se237  1  0.91455249  0.42689550  0.20002011  1
  Se  Se238  1  0.91616678  0.42180151  0.67472621  1
  Se  Se239  1  0.91839896  0.74949253  0.20188246  1
  Se  Se240  1  0.91967198  0.74811404  0.69700569  1
  Se  Se241  1  0.08461639  0.25474619  0.19161564  1
  Se  Se242  1  0.08332046  0.24667778  0.69655654  1
  Se  Se243  1  0.08210478  0.58547811  0.20074641  1
  Se  Se244  1  0.08415322  0.58286391  0.69418678  1
  Se  Se245  1  0.08302063  0.92293050  0.20782978  1
  Se  Se246  1  0.09046036  0.90672678  0.68851234  1
  Se  Se247  1  0.41966389  0.25557073  0.20455174  1
  Se  Se248  1  0.41766851  0.24311039  0.68563632  1
  Se  Se249  1  0.40866870  0.58843017  0.19752514  1
  Se  Se250  1  0.41894718  0.58680776  0.68753179  1
  Se  Se251  1  0.42587226  0.91121704  0.19952482  1
  Se  Se252  1  0.41857398  0.91268064  0.68724160  1
  Se  Se253  1  0.75081344  0.24454351  0.19646806  1
  Se  Se254  1  0.74958955  0.25117435  0.69391272  1
  Se  Se255  1  0.74681195  0.58524352  0.20233606  1
  Se  Se256  1  0.75978759  0.57459410  0.68538252  1
  Se  Se257  1  0.75153579  0.91667209  0.19264260  1
  Se  Se258  1  0.76279521  0.90115923  0.69090854  1
