# generated using pymatgen
data_In86Cu29Se144
_symmetry_space_group_name_H-M   'P 1'
_cell_length_a   17.57290709
_cell_length_b   17.57527970
_cell_length_c   23.42182762
_cell_angle_alpha   89.98429995
_cell_angle_beta   90.00901530
_cell_angle_gamma   89.99274467
_symmetry_Int_Tables_number   1
_chemical_formula_structural   In86Cu29Se144
_chemical_formula_sum   'In86 Cu29 Se144'
_cell_volume   7233.80193382
_cell_formula_units_Z   1
loop_
 _symmetry_equiv_pos_site_id
 _symmetry_equiv_pos_as_xyz
  1  'x, y, z'
loop_
 _atom_site_type_symbol
 _atom_site_label
 _atom_site_symmetry_multiplicity
 _atom_site_fract_x
 _atom_site_fract_y
 _atom_site_fract_z
 _atom_site_occupancy
  In  In0  1  0.00372981  0.17729388  0.13139575  1
  In  In1  1  0.00424655  0.15362012  0.61989040  1
  In  In2  1  0.01128372  0.49298216  0.13185132  1
  In  In3  1  0.01134274  0.51949482  0.60264054  1
  In  In4  1  -0.00309387  0.82465543  0.13220411  1
  In  In5  1  -0.00021818  0.82401169  0.60799982  1
  In  In6  1  0.33815119  0.16189812  0.13557986  1
  In  In7  1  0.33746162  0.17727466  0.62344443  1
  In  In8  1  0.33014058  0.50416777  0.12764118  1
  In  In9  1  0.33323082  0.49950803  0.62887381  1
  In  In10  1  0.33026699  0.83133571  0.12919942  1
  In  In11  1  0.32274599  0.82444294  0.61762217  1
  In  In12  1  0.67601724  0.17102657  0.11269586  1
  In  In13  1  0.67622321  0.17425059  0.62975389  1
  In  In14  1  0.65266621  0.50836600  0.11937629  1
  In  In15  1  0.66668742  0.48853050  0.62406262  1
  In  In16  1  0.66645517  0.82899494  0.10676756  1
  In  In17  1  0.66372713  0.83739304  0.62267821  1
  In  In18  1  0.17646203  -0.01388490  0.37623021  1
  In  In19  1  0.15885249  -0.00683098  0.88030559  1
  In  In20  1  0.16798668  0.33459216  0.37608626  1
  In  In21  1  0.18590253  0.33139674  0.87641160  1
  In  In22  1  0.15556486  0.66714297  0.37099876  1
  In  In23  1  0.17546502  0.65795555  0.88437847  1
  In  In24  1  0.48278209  -0.00685378  0.36654413  1
  In  In25  1  0.51703640  -0.01028669  0.89825851  1
  In  In26  1  0.49295603  0.33142250  0.36417457  1
  In  In27  1  0.49777818  0.33780938  0.88317309  1
  In  In28  1  0.49419504  0.68241772  0.37292602  1
  In  In29  1  0.48724064  0.67923320  0.88559066  1
  In  In30  1  0.82877203  -0.01064016  0.37585955  1
  In  In31  1  0.83041970  -0.00236544  0.89063581  1
  In  In32  1  0.84430458  0.34488263  0.36048782  1
  In  In33  1  0.81893963  0.34346254  0.87609050  1
  In  In34  1  0.84176110  0.66279987  0.38207737  1
  In  In35  1  0.84022166  0.67499672  0.87683165  1
  In  In36  1  0.00533604  0.18391904  0.36676137  1
  In  In37  1  0.00061278  0.15364312  0.88199540  1
  In  In38  1  0.00465380  0.50468263  0.37881427  1
  In  In39  1  0.00455983  0.51484801  0.87802650  1
  In  In40  1  -0.00048893  0.82186524  0.37581258  1
  In  In41  1  0.00020937  0.83556675  0.88508769  1
  In  In42  1  0.30967346  0.15008961  0.35174966  1
  In  In43  1  0.33964289  0.18175380  0.87736294  1
  In  In44  1  0.31580818  0.48882138  0.36568384  1
  In  In45  1  0.33404877  0.50095760  0.87941969  1
  In  In46  1  0.32694140  0.83175138  0.36569206  1
  In  In47  1  0.33634502  0.82444267  0.88139316  1
  In  In48  1  0.65713672  0.17040243  0.37005970  1
  In  In49  1  0.65288338  0.17832094  0.89214522  1
  In  In50  1  0.67931990  0.50016295  0.37017322  1
  In  In51  1  0.66619534  0.48738475  0.87393709  1
  In  In52  1  0.66938440  0.82129404  0.38044117  1
  In  In53  1  0.67122925  0.82449607  0.89080379  1
  In  In54  1  0.18655819  -0.00082276  0.13880818  1
  In  In55  1  0.16043096  -0.00812154  0.61083796  1
  In  In56  1  0.15659116  0.33630732  0.13713733  1
  In  In57  1  0.17803323  0.34407406  0.61423003  1
  In  In58  1  0.16997085  0.66982591  0.13359870  1
  In  In59  1  0.17662197  0.67160536  0.61536752  1
  In  In60  1  0.49401382  -0.01021709  0.11216796  1
  In  In61  1  0.50450340  -0.00524121  0.62605896  1
  In  In62  1  0.50030615  0.34067028  0.12398256  1
  In  In63  1  0.50004108  0.32856289  0.63431347  1
  In  In64  1  0.49318873  0.65828813  0.11384123  1
  In  In65  1  0.48170060  0.66612196  0.62667115  1
  In  In66  1  0.82187935  -0.00769097  0.11364284  1
  In  In67  1  0.84132537  -0.00213035  0.62449976  1
  In  In68  1  0.84263056  0.32531719  0.13083157  1
  In  In69  1  0.82350689  0.33591018  0.62657322  1
  In  In70  1  0.84604172  0.69199995  0.13432986  1
  In  In71  1  0.84058343  0.67424971  0.61359288  1
  In  In72  1  0.16860084  0.16498184  0.00864651  1
  In  In73  1  0.66484802  0.66512651  0.76089011  1
  In  In74  1  0.33745959  0.00656684  0.75676622  1
  In  In75  1  0.49878591  0.50389151  0.50125150  1
  In  In76  1  0.83403085  0.16661990  0.50243721  1
  In  In77  1  -0.00148229  0.33697462  0.74516218  1
  In  In78  1  0.66554412  0.00438457  0.75588725  1
  In  In79  1  0.66445890  -0.00406966  0.23386246  1
  In  In80  1  0.49483997  0.16282562  0.49996542  1
  In  In81  1  0.66594111  0.66347889  0.24309642  1
  In  In82  1  0.00066345  -0.00356291  0.75026868  1
  In  In83  1  0.00078038  -0.00474218  0.25239467  1
  In  In84  1  0.00475653  0.67221037  0.73675685  1
  In  In85  1  0.83402740  0.50753229  -0.00101779  1
  Cu  Cu86  1  0.83247074  0.50145174  0.74257728  1
  Cu  Cu87  1  0.17706783  0.49312265  0.75107675  1
  Cu  Cu88  1  0.66725336  0.33579903  0.00189483  1
  Cu  Cu89  1  0.32684787  -0.00931122  0.48946250  1
  Cu  Cu90  1  0.32960746  0.66664855  0.49395278  1
  Cu  Cu91  1  0.00179115  -0.00840572  0.00742562  1
  Cu  Cu92  1  0.82520820  0.17686417  0.75915764  1
  Cu  Cu93  1  0.33313933  0.00160061  0.00753686  1
  Cu  Cu94  1  0.49412693  0.82895732  0.75687258  1
  Cu  Cu95  1  0.66704599  0.67126757  0.49713454  1
  Cu  Cu96  1  -0.00063776  0.33877964  0.49122643  1
  Cu  Cu97  1  0.82738179  0.16369078  0.24309748  1
  Cu  Cu98  1  0.50049596  0.17633506  0.76212828  1
  Cu  Cu99  1  0.65835787  -0.01235351  0.49857900  1
  Cu  Cu100  1  0.83575410  0.49550993  0.24842221  1
  Cu  Cu101  1  0.00049997  0.33224494  0.00825431  1
  Cu  Cu102  1  0.32567458  0.67092556  0.00656151  1
  Cu  Cu103  1  0.49725401  0.83776719  0.24400579  1
  Cu  Cu104  1  0.49734822  0.50334368  0.24322475  1
  Cu  Cu105  1  0.33066805  0.32747325  0.49353609  1
  Cu  Cu106  1  0.17524250  0.17062800  0.74243628  1
  Cu  Cu107  1  0.33528320  0.34187200  0.00456999  1
  Cu  Cu108  1  0.49298644  0.49247530  0.75437202  1
  Cu  Cu109  1  0.00739515  0.66753084  0.00613393  1
  Cu  Cu110  1  0.16597608  0.50310679  0.25377648  1
  Cu  Cu111  1  0.16900496  0.82253615  0.74687297  1
  Cu  Cu112  1  0.50358582  0.17632798  0.24448851  1
  Cu  Cu113  1  0.67318951  0.33762677  0.49583277  1
  Cu  Cu114  1  0.00471692  0.00036164  0.49119867  1
  Se  Se115  1  0.08045165  0.07320969  0.06843500  1
  Se  Se116  1  0.08652315  0.08550905  0.54446157  1
  Se  Se117  1  0.08783596  0.41395352  0.05672058  1
  Se  Se118  1  0.08665283  0.41715195  0.54661763  1
  Se  Se119  1  0.08677507  0.75155738  0.06186639  1
  Se  Se120  1  0.07798151  0.73222285  0.54781481  1
  Se  Se121  1  0.41337877  0.09125413  0.05596780  1
  Se  Se122  1  0.40361757  0.06770387  0.55765548  1
  Se  Se123  1  0.41836733  0.42743355  0.05653976  1
  Se  Se124  1  0.41485344  0.40234175  0.55661009  1
  Se  Se125  1  0.41314529  0.75566601  0.05494021  1
  Se  Se126  1  0.41389757  0.74782192  0.55023923  1
  Se  Se127  1  0.75141446  0.08230950  0.04588784  1
  Se  Se128  1  0.73692259  0.07278602  0.55785152  1
  Se  Se129  1  0.75141865  0.41365098  0.06215510  1
  Se  Se130  1  0.75432783  0.41955308  0.55079765  1
  Se  Se131  1  0.75037168  0.72806635  0.05700357  1
  Se  Se132  1  0.74633088  0.75642297  0.55374602  1
  Se  Se133  1  0.25556241  0.25956951  0.06497822  1
  Se  Se134  1  0.24984076  0.24420576  0.55059826  1
  Se  Se135  1  0.24421385  0.58466618  0.05877722  1
  Se  Se136  1  0.25878507  0.57846474  0.55361838  1
  Se  Se137  1  0.24936567  0.91863303  0.05904861  1
  Se  Se138  1  0.24506943  0.90758294  0.54642772  1
  Se  Se139  1  0.58101653  0.25516440  0.05435932  1
  Se  Se140  1  0.59169554  0.25627000  0.55588603  1
  Se  Se141  1  0.58954395  0.59364001  0.04503740  1
  Se  Se142  1  0.58949919  0.59363551  0.56265871  1
  Se  Se143  1  0.59238606  0.92580948  0.04670012  1
  Se  Se144  1  0.57222533  0.90917662  0.55283384  1
  Se  Se145  1  0.91818293  0.24485319  0.05558190  1
  Se  Se146  1  0.92598491  0.26017282  0.56017284  1
  Se  Se147  1  0.92494726  0.58684533  0.06512402  1
  Se  Se148  1  0.90415161  0.58016159  0.54540275  1
  Se  Se149  1  0.91838535  0.90662188  0.05916599  1
  Se  Se150  1  0.91961359  0.92364417  0.55049848  1
  Se  Se151  1  0.08362503  0.25032815  0.44553983  1
  Se  Se152  1  0.08126580  0.25547047  0.94211354  1
  Se  Se153  1  0.08921053  0.58286581  0.44783775  1
  Se  Se154  1  0.08739890  0.58009702  0.95376155  1
  Se  Se155  1  0.08351298  0.91060882  0.44107653  1
  Se  Se156  1  0.08844361  0.91149311  0.95447781  1
  Se  Se157  1  0.40919658  0.24635646  0.43412995  1
  Se  Se158  1  0.41718449  0.25315147  0.95396606  1
  Se  Se159  1  0.40945927  0.58422207  0.43469464  1
  Se  Se160  1  0.40878007  0.58778794  0.95052066  1
  Se  Se161  1  0.41418077  0.90869234  0.43996764  1
  Se  Se162  1  0.41008837  0.91550839  0.94988139  1
  Se  Se163  1  0.74963410  0.25391452  0.43607771  1
  Se  Se164  1  0.75587911  0.25520199  0.94978318  1
  Se  Se165  1  0.74596054  0.58335366  0.44545226  1
  Se  Se166  1  0.74288496  0.59103974  0.93552714  1
  Se  Se167  1  0.74875826  0.91089927  0.44730152  1
  Se  Se168  1  0.75466015  0.90846024  0.95532922  1
  Se  Se169  1  0.25058963  0.08493416  0.44075033  1
  Se  Se170  1  0.25685781  0.07918321  0.94022698  1
  Se  Se171  1  0.24789073  0.41908436  0.44873527  1
  Se  Se172  1  0.24797486  0.41987984  0.95012330  1
  Se  Se173  1  0.24869488  0.74803522  0.43680172  1
  Se  Se174  1  0.24341862  0.75510284  0.95078986  1
  Se  Se175  1  0.58501103  0.07204470  0.43808375  1
  Se  Se176  1  0.58295461  0.08850229  0.96066759  1
  Se  Se177  1  0.58430862  0.41133404  0.43819195  1
  Se  Se178  1  0.58369550  0.42140716  0.95091109  1
  Se  Se179  1  0.57594681  0.75136759  0.44921250  1
  Se  Se180  1  0.57569459  0.75269840  0.95309267  1
  Se  Se181  1  0.92133685  0.08264721  0.43477293  1
  Se  Se182  1  0.92124981  0.07948100  0.95478616  1
  Se  Se183  1  0.91080020  0.41845225  0.44146738  1
  Se  Se184  1  0.92669118  0.41221231  0.94111832  1
  Se  Se185  1  0.90437582  0.76298248  0.44764766  1
  Se  Se186  1  0.92024129  0.74731276  0.95161697  1
  Se  Se187  1  0.26772841  0.27554246  0.30663220  1
  Se  Se188  1  0.25552089  0.24900908  0.80083323  1
  Se  Se189  1  0.24918482  0.59096929  0.30330133  1
  Se  Se190  1  0.25019889  0.58207235  0.80760120  1
  Se  Se191  1  0.26311247  0.93059814  0.29816345  1
  Se  Se192  1  0.24123713  0.91041761  0.80737652  1
  Se  Se193  1  0.58772001  0.25701461  0.29840511  1
  Se  Se194  1  0.58664486  0.25815636  0.81320671  1
  Se  Se195  1  0.57486600  0.57963686  0.30990595  1
  Se  Se196  1  0.56881294  0.57658387  0.81547830  1
  Se  Se197  1  0.58380720  0.90895660  0.30610284  1
  Se  Se198  1  0.57903863  0.90687424  0.81337277  1
  Se  Se199  1  0.91297134  0.24690112  0.29497055  1
  Se  Se200  1  0.91734267  0.24826338  0.81515220  1
  Se  Se201  1  0.91215742  0.57767101  0.30816042  1
  Se  Se202  1  0.91205542  0.58137316  0.80193728  1
  Se  Se203  1  0.90415467  0.90493605  0.30430973  1
  Se  Se204  1  0.91006390  0.91375889  0.81310313  1
  Se  Se205  1  0.08927960  0.08457652  0.31202892  1
  Se  Se206  1  0.09627083  0.09213269  0.80483660  1
  Se  Se207  1  0.08293926  0.41881130  0.30851138  1
  Se  Se208  1  0.08840106  0.42154670  0.81075150  1
  Se  Se209  1  0.07066638  0.74517299  0.29795357  1
  Se  Se210  1  0.08644317  0.75135945  0.81188934  1
  Se  Se211  1  0.42283052  0.08872720  0.29649118  1
  Se  Se212  1  0.43303146  0.08421204  0.82133937  1
  Se  Se213  1  0.41485206  0.42163154  0.29948046  1
  Se  Se214  1  0.41099498  0.41140935  0.81058256  1
  Se  Se215  1  0.41535771  0.75123113  0.29593083  1
  Se  Se216  1  0.40811479  0.74452009  0.80483287  1
  Se  Se217  1  0.75017186  0.08351586  0.30503046  1
  Se  Se218  1  0.75220522  0.09230479  0.81983831  1
  Se  Se219  1  0.74441831  0.41339512  0.29540992  1
  Se  Se220  1  0.74979761  0.41976728  0.79698143  1
  Se  Se221  1  0.75450914  0.74798920  0.30692101  1
  Se  Se222  1  0.75817793  0.76357055  0.80780186  1
  Se  Se223  1  0.23776570  0.10439086  0.20384776  1
  Se  Se224  1  0.24484493  0.07951667  0.68462362  1
  Se  Se225  1  0.24824835  0.42087667  0.19770626  1
  Se  Se226  1  0.25568365  0.40785233  0.69574282  1
  Se  Se227  1  0.26349235  0.74121650  0.20119582  1
  Se  Se228  1  0.25436028  0.74191417  0.69456531  1
  Se  Se229  1  0.57558065  0.09189460  0.18076828  1
  Se  Se230  1  0.57303620  0.09666939  0.69480116  1
  Se  Se231  1  0.58611689  0.42245852  0.19409872  1
  Se  Se232  1  0.58142607  0.41837837  0.69771895  1
  Se  Se233  1  0.57711264  0.75669132  0.18458248  1
  Se  Se234  1  0.57624345  0.75264277  0.69435943  1
  Se  Se235  1  0.90710589  0.07897320  0.18681543  1
  Se  Se236  1  0.90573690  0.09711382  0.69804369  1
  Se  Se237  1  0.92275823  0.41151627  0.19790322  1
  Se  Se238  1  0.91944764  0.43161591  0.68124837  1
  Se  Se239  1  0.94210837  0.73466591  0.21163425  1
  Se  Se240  1  0.90822507  0.76676892  0.68957339  1
  Se  Se241  1  0.08647607  0.24365483  0.20564242  1
  Se  Se242  1  0.08840060  0.24541236  0.68497606  1
  Se  Se243  1  0.08257633  0.58514803  0.19963379  1
  Se  Se244  1  0.09704577  0.57257146  0.68908053  1
  Se  Se245  1  0.09485010  0.90689855  0.19622946  1
  Se  Se246  1  0.08785378  0.90357412  0.68798051  1
  Se  Se247  1  0.41720462  0.26003976  0.19473870  1
  Se  Se248  1  0.41425408  0.24787170  0.70177946  1
  Se  Se249  1  0.41596844  0.59099912  0.19378238  1
  Se  Se250  1  0.41473839  0.57963420  0.70016956  1
  Se  Se251  1  0.41575179  0.92437246  0.19205040  1
  Se  Se252  1  0.41725407  0.90957115  0.69379161  1
  Se  Se253  1  0.74415124  0.24924866  0.19245591  1
  Se  Se254  1  0.74590913  0.25920883  0.70272095  1
  Se  Se255  1  0.76159806  0.57653147  0.18436297  1
  Se  Se256  1  0.75106361  0.58683273  0.68754188  1
  Se  Se257  1  0.75580715  0.89639077  0.18742837  1
  Se  Se258  1  0.75501683  0.91575976  0.69440782  1
