# generated using pymatgen
data_In86Cu29Se144
_symmetry_space_group_name_H-M   'P 1'
_cell_length_a   17.57674952
_cell_length_b   17.57749929
_cell_length_c   23.43619494
_cell_angle_alpha   89.97789876
_cell_angle_beta   89.95308485
_cell_angle_gamma   89.99745896
_symmetry_Int_Tables_number   1
_chemical_formula_structural   In86Cu29Se144
_chemical_formula_sum   'In86 Cu29 Se144'
_cell_volume   7240.73371973
_cell_formula_units_Z   1
loop_
 _symmetry_equiv_pos_site_id
 _symmetry_equiv_pos_as_xyz
  1  'x, y, z'
loop_
 _atom_site_type_symbol
 _atom_site_label
 _atom_site_symmetry_multiplicity
 _atom_site_fract_x
 _atom_site_fract_y
 _atom_site_fract_z
 _atom_site_occupancy
  In  In0  1  0.00511909  0.16127731  0.12748261  1
  In  In1  1  -0.00184614  0.18521380  0.63020612  1
  In  In2  1  0.03441659  0.52501329  0.08641575  1
  In  In3  1  0.00456897  0.48846659  0.63653684  1
  In  In4  1  0.01223408  0.83095935  0.13593089  1
  In  In5  1  -0.00567034  0.82193098  0.62231557  1
  In  In6  1  0.33523740  0.17163524  0.12621985  1
  In  In7  1  0.33712022  0.16887428  0.62821932  1
  In  In8  1  0.31789423  0.51424574  0.12924567  1
  In  In9  1  0.33202998  0.50180384  0.62664472  1
  In  In10  1  0.34201108  0.82273368  0.12946721  1
  In  In11  1  0.32021559  0.82048542  0.61235123  1
  In  In12  1  0.66931102  0.18061036  0.12093695  1
  In  In13  1  0.66731647  0.15338058  0.63398700  1
  In  In14  1  0.66611078  0.48804417  0.11822408  1
  In  In15  1  0.65665602  0.50617736  0.63042097  1
  In  In16  1  0.65875698  0.84134910  0.12491369  1
  In  In17  1  0.67191043  0.83772499  0.61942911  1
  In  In18  1  0.15877535  -0.00482810  0.36811513  1
  In  In19  1  0.18025243  0.00525618  0.87903717  1
  In  In20  1  0.18130540  0.32941060  0.37633965  1
  In  In21  1  0.17204902  0.33710734  0.88451755  1
  In  In22  1  0.16795278  0.66568720  0.37523445  1
  In  In23  1  0.15343042  0.64916595  0.86893077  1
  In  In24  1  0.48671491  -0.00560321  0.37009908  1
  In  In25  1  0.50140121  0.00328011  0.87474078  1
  In  In26  1  0.49624518  0.34008697  0.37570322  1
  In  In27  1  0.48354502  0.32096599  0.87149383  1
  In  In28  1  0.48988843  0.67333405  0.38051101  1
  In  In29  1  0.49527217  0.68191727  0.87572781  1
  In  In30  1  0.84358967  -0.01113731  0.38527569  1
  In  In31  1  0.82734701  0.01274033  0.87193340  1
  In  In32  1  0.82218536  0.33078955  0.38284676  1
  In  In33  1  0.86757238  0.37734279  0.83224496  1
  In  In34  1  0.85464768  0.66644661  0.37531534  1
  In  In35  1  0.84617392  0.64801275  0.87881052  1
  In  In36  1  0.00384358  0.15504901  0.37811702  1
  In  In37  1  0.00946695  0.18599926  0.87612167  1
  In  In38  1  0.00467708  0.51601153  0.37229957  1
  In  In39  1  0.00786089  0.49752572  0.88247657  1
  In  In40  1  0.00793527  0.83274388  0.37884138  1
  In  In41  1  0.00967337  0.81876968  0.87380087  1
  In  In42  1  0.34093375  0.16350898  0.35789432  1
  In  In43  1  0.31015850  0.20238613  0.91138348  1
  In  In44  1  0.32682390  0.50000478  0.37544707  1
  In  In45  1  0.32020776  0.49062378  0.87439966  1
  In  In46  1  0.33086207  0.82906950  0.37367596  1
  In  In47  1  0.34447664  0.83566555  0.87266729  1
  In  In48  1  0.67050258  0.17924264  0.37840433  1
  In  In49  1  0.66361409  0.16898417  0.86944513  1
  In  In50  1  0.65870643  0.48629840  0.38108988  1
  In  In51  1  0.68680566  0.49840659  0.86950047  1
  In  In52  1  0.66646370  0.83449704  0.38493824  1
  In  In53  1  0.64906866  0.83291483  0.87072787  1
  In  In54  1  0.16591513  0.00773913  0.13290439  1
  In  In55  1  0.17721785  -0.00606528  0.62202547  1
  In  In56  1  0.18883108  0.35350374  0.09734347  1
  In  In57  1  0.15261327  0.34279594  0.63741420  1
  In  In58  1  0.17507485  0.66431808  0.12733562  1
  In  In59  1  0.16818952  0.66174498  0.62538212  1
  In  In60  1  0.49292194  -0.00281545  0.12513666  1
  In  In61  1  0.50736095  0.00165965  0.62273192  1
  In  In62  1  0.49114423  0.31501864  0.11195855  1
  In  In63  1  0.48729757  0.34150089  0.63582257  1
  In  In64  1  0.47064128  0.66351169  0.11664824  1
  In  In65  1  0.48925035  0.65397683  0.61678097  1
  In  In66  1  0.84356989  0.01069701  0.12866871  1
  In  In67  1  0.82644579  -0.01071243  0.62240880  1
  In  In68  1  0.83163535  0.34247744  0.11835528  1
  In  In69  1  0.84218298  0.32669156  0.63601267  1
  In  In70  1  0.85201238  0.66488557  0.12588305  1
  In  In71  1  0.83046170  0.67224906  0.62738916  1
  In  In72  1  0.49697928  0.50033459  -0.00604743  1
  In  In73  1  0.65980169  0.33406338  0.25007000  1
  In  In74  1  0.83196900  0.17229206  -0.00698156  1
  In  In75  1  0.66973608  0.00312978  0.24540295  1
  In  In76  1  0.66183236  0.66745410  0.25789098  1
  In  In77  1  0.83043467  0.50383567  0.50398410  1
  In  In78  1  0.33996937  0.00671796  0.74979184  1
  In  In79  1  0.16599727  0.16371538  0.50134829  1
  In  In80  1  0.50118919  0.16515028  0.49522807  1
  In  In81  1  -0.00017397  0.00061098  0.75892157  1
  In  In82  1  0.82964040  0.82635877  -0.00618276  1
  In  In83  1  0.66768943  0.66705913  0.74796746  1
  In  In84  1  0.00364449  0.33564672  0.24025209  1
  In  In85  1  0.17803059  0.82933561  0.00380422  1
  Cu  Cu86  1  -0.00168946  0.33989860  0.50890591  1
  Cu  Cu87  1  0.65507563  0.00163385  -0.00060492  1
  Cu  Cu88  1  0.16484257  0.50022121  0.24282687  1
  Cu  Cu89  1  0.66592553  0.66623313  0.50444986  1
  Cu  Cu90  1  0.17011556  0.49917506  0.75239290  1
  Cu  Cu91  1  0.00899624  0.66929953  0.50080182  1
  Cu  Cu92  1  0.48469153  0.49602845  0.24952882  1
  Cu  Cu93  1  0.33035723  0.34257454  0.50437693  1
  Cu  Cu94  1  0.16805100  0.83617210  0.25449147  1
  Cu  Cu95  1  0.82686904  0.83170936  0.74694749  1
  Cu  Cu96  1  0.67257068  0.33388433  -0.01166409  1
  Cu  Cu97  1  0.84322871  0.16287691  0.25561781  1
  Cu  Cu98  1  0.84913203  0.83562740  0.25631364  1
  Cu  Cu99  1  0.32987417  -0.00897357  0.49149096  1
  Cu  Cu100  1  0.49208982  0.17017964  0.75449627  1
  Cu  Cu101  1  0.49745714  0.83455553  0.74622087  1
  Cu  Cu102  1  0.82695222  0.16351180  0.75027711  1
  Cu  Cu103  1  0.16720068  0.82387166  0.74501188  1
  Cu  Cu104  1  0.33245099  0.66198697  0.49758755  1
  Cu  Cu105  1  0.66373878  0.32718257  0.50761168  1
  Cu  Cu106  1  0.00079113  -0.00645584  0.00515575  1
  Cu  Cu107  1  -0.00481216  -0.00089015  0.50104285  1
  Cu  Cu108  1  0.49604928  0.50129664  0.75199071  1
  Cu  Cu109  1  0.17343757  0.17193930  0.24657734  1
  Cu  Cu110  1  0.66406593  0.66962686  -0.00587026  1
  Cu  Cu111  1  0.34331556  0.00453683  0.00257656  1
  Cu  Cu112  1  0.49347097  0.82688143  0.24981486  1
  Cu  Cu113  1  0.83760158  0.50587021  0.24425794  1
  Cu  Cu114  1  0.66927199  -0.00135520  0.50368535  1
  Se  Se115  1  0.08316430  0.07767578  0.05670910  1
  Se  Se116  1  0.07321750  0.07824789  0.56470884  1
  Se  Se117  1  0.06932478  0.39623644  0.04245549  1
  Se  Se118  1  0.08540867  0.42117956  0.55771438  1
  Se  Se119  1  0.07774206  0.74614028  0.05837979  1
  Se  Se120  1  0.09038962  0.75222304  0.55640488  1
  Se  Se121  1  0.42320743  0.09007261  0.05668204  1
  Se  Se122  1  0.40520908  0.07463700  0.55359040  1
  Se  Se123  1  0.41009682  0.42227125  0.06294095  1
  Se  Se124  1  0.41908573  0.41984266  0.55712765  1
  Se  Se125  1  0.40756993  0.75367380  0.04560911  1
  Se  Se126  1  0.41777810  0.74755118  0.54903469  1
  Se  Se127  1  0.74500706  0.07589322  0.05685095  1
  Se  Se128  1  0.74913118  0.08372586  0.55760416  1
  Se  Se129  1  0.75067414  0.41827753  0.04475052  1
  Se  Se130  1  0.74449035  0.41110400  0.56505831  1
  Se  Se131  1  0.74195601  0.74350422  0.06273719  1
  Se  Se132  1  0.75298165  0.74915969  0.55308642  1
  Se  Se133  1  0.24468638  0.23320292  0.05110943  1
  Se  Se134  1  0.25105265  0.25728221  0.56205548  1
  Se  Se135  1  0.24573880  0.58574041  0.05030241  1
  Se  Se136  1  0.24999188  0.58056616  0.55422929  1
  Se  Se137  1  0.26049369  0.92555915  0.06410531  1
  Se  Se138  1  0.24366604  0.91220316  0.54546728  1
  Se  Se139  1  0.59156271  0.25185164  0.04459639  1
  Se  Se140  1  0.57989726  0.24907451  0.56689863  1
  Se  Se141  1  0.58529269  0.59132277  0.05922851  1
  Se  Se142  1  0.58310765  0.57736078  0.55112448  1
  Se  Se143  1  0.57633717  0.91593474  0.05362996  1
  Se  Se144  1  0.58087706  0.91547174  0.55215284  1
  Se  Se145  1  0.92194611  0.25184375  0.05932285  1
  Se  Se146  1  0.91316908  0.25252186  0.55484050  1
  Se  Se147  1  0.90189783  0.57120160  0.05249711  1
  Se  Se148  1  0.92648389  0.58861504  0.56175841  1
  Se  Se149  1  0.91845184  0.91367034  0.06100209  1
  Se  Se150  1  0.91604733  0.91214847  0.55590479  1
  Se  Se151  1  0.07554370  0.25958857  0.44388085  1
  Se  Se152  1  0.08621297  0.25276171  0.95350574  1
  Se  Se153  1  0.08773211  0.58163350  0.44799653  1
  Se  Se154  1  0.08683431  0.58247509  0.95315151  1
  Se  Se155  1  0.08512809  0.92278840  0.44744732  1
  Se  Se156  1  0.08134973  0.91857762  0.94146682  1
  Se  Se157  1  0.40226205  0.25429698  0.44265384  1
  Se  Se158  1  0.42817562  0.25689810  0.96109693  1
  Se  Se159  1  0.41598211  0.57750834  0.44453430  1
  Se  Se160  1  0.40752700  0.59101561  0.93674567  1
  Se  Se161  1  0.41933906  0.90883295  0.44375664  1
  Se  Se162  1  0.41851752  0.91996052  0.94424347  1
  Se  Se163  1  0.75085404  0.24629417  0.45628461  1
  Se  Se164  1  0.75551047  0.26098857  0.92645555  1
  Se  Se165  1  0.74379211  0.59092514  0.43628546  1
  Se  Se166  1  0.74931176  0.58360695  0.94749654  1
  Se  Se167  1  0.75345561  0.91289640  0.45203672  1
  Se  Se168  1  0.74029449  0.92474923  0.93986721  1
  Se  Se169  1  0.25749431  0.08269986  0.43503800  1
  Se  Se170  1  0.24754692  0.08200636  0.95720164  1
  Se  Se171  1  0.24417679  0.42003394  0.44904282  1
  Se  Se172  1  0.25223328  0.42019464  0.95569598  1
  Se  Se173  1  0.24974396  0.74826102  0.44512148  1
  Se  Se174  1  0.24899173  0.74631077  0.92907725  1
  Se  Se175  1  0.59139299  0.07223481  0.43636668  1
  Se  Se176  1  0.58296885  0.08943338  0.94261803  1
  Se  Se177  1  0.57927034  0.40801118  0.45293746  1
  Se  Se178  1  0.58786578  0.41462620  0.93172910  1
  Se  Se179  1  0.58255652  0.74695831  0.44744668  1
  Se  Se180  1  0.57882292  0.75649265  0.94915006  1
  Se  Se181  1  0.91466346  0.08760955  0.45017855  1
  Se  Se182  1  0.92818203  0.07592399  0.94067474  1
  Se  Se183  1  0.92243941  0.41636135  0.44052086  1
  Se  Se184  1  0.90837334  0.40973680  0.93384276  1
  Se  Se185  1  0.92206888  0.75146081  0.44919217  1
  Se  Se186  1  0.93110216  0.73644357  0.94829835  1
  Se  Se187  1  0.25562331  0.25611300  0.29940467  1
  Se  Se188  1  0.25588485  0.25058033  0.81760494  1
  Se  Se189  1  0.24512582  0.58009631  0.30336315  1
  Se  Se190  1  0.25386046  0.58451380  0.80300568  1
  Se  Se191  1  0.25418414  0.91930274  0.30524755  1
  Se  Se192  1  0.24393286  0.91013860  0.80365750  1
  Se  Se193  1  0.57145437  0.24006213  0.30781991  1
  Se  Se194  1  0.57959579  0.25404484  0.80273805  1
  Se  Se195  1  0.57228823  0.56869676  0.31070718  1
  Se  Se196  1  0.57738671  0.58140969  0.81269888  1
  Se  Se197  1  0.58352330  0.90477844  0.30403129  1
  Se  Se198  1  0.57751955  0.91992534  0.79957071  1
  Se  Se199  1  0.91570384  0.25298915  0.31291641  1
  Se  Se200  1  0.91550192  0.24190465  0.80167439  1
  Se  Se201  1  0.92247742  0.58698802  0.29727219  1
  Se  Se202  1  0.92728164  0.57703171  0.80687609  1
  Se  Se203  1  0.92739615  0.92194124  0.30961759  1
  Se  Se204  1  0.90673373  0.90493198  0.81434257  1
  Se  Se205  1  0.08789390  0.09178568  0.30143230  1
  Se  Se206  1  0.09549846  0.09068552  0.81146281  1
  Se  Se207  1  0.09046734  0.42009722  0.30906842  1
  Se  Se208  1  0.09167853  0.41656055  0.81088065  1
  Se  Se209  1  0.08458979  0.74963092  0.30634070  1
  Se  Se210  1  0.08167901  0.74198639  0.79785479  1
  Se  Se211  1  0.42582383  0.07951880  0.29523679  1
  Se  Se212  1  0.41007336  0.09796556  0.81911185  1
  Se  Se213  1  0.40738221  0.41174061  0.30616355  1
  Se  Se214  1  0.41284693  0.41755831  0.80581607  1
  Se  Se215  1  0.41113796  0.74306197  0.30308267  1
  Se  Se216  1  0.41447321  0.75064394  0.79785415  1
  Se  Se217  1  0.75704455  0.08707396  0.31351076  1
  Se  Se218  1  0.74083599  0.07892525  0.79891389  1
  Se  Se219  1  0.75887682  0.42604806  0.30589699  1
  Se  Se220  1  0.73543512  0.40934560  0.79100577  1
  Se  Se221  1  0.76004623  0.75831837  0.31181735  1
  Se  Se222  1  0.75585512  0.75153237  0.81576983  1
  Se  Se223  1  0.25789410  0.08402249  0.19807768  1
  Se  Se224  1  0.23906846  0.09142979  0.69335751  1
  Se  Se225  1  0.24491958  0.41290743  0.18986923  1
  Se  Se226  1  0.25306910  0.41649087  0.69706977  1
  Se  Se227  1  0.24785364  0.75242886  0.19764596  1
  Se  Se228  1  0.25547577  0.74453253  0.69372282  1
  Se  Se229  1  0.58311232  0.09485826  0.18717898  1
  Se  Se230  1  0.57180892  0.08241563  0.70115867  1
  Se  Se231  1  0.56884695  0.42100376  0.18829251  1
  Se  Se232  1  0.58100063  0.41906402  0.69976921  1
  Se  Se233  1  0.57425842  0.74779992  0.18855170  1
  Se  Se234  1  0.57619829  0.75217751  0.68508319  1
  Se  Se235  1  0.92660393  0.08121832  0.20226997  1
  Se  Se236  1  0.91148013  0.08269877  0.69104216  1
  Se  Se237  1  0.91681160  0.42902991  0.18315045  1
  Se  Se238  1  0.91552075  0.41451349  0.70500969  1
  Se  Se239  1  0.92333310  0.74776784  0.19992324  1
  Se  Se240  1  0.91462526  0.74898594  0.69873654  1
  Se  Se241  1  0.10015610  0.25273816  0.18242318  1
  Se  Se242  1  0.08398954  0.24743787  0.70396491  1
  Se  Se243  1  0.08041902  0.57716386  0.18470047  1
  Se  Se244  1  0.08615615  0.58167405  0.69713806  1
  Se  Se245  1  0.08513337  0.92241216  0.20206866  1
  Se  Se246  1  0.08648215  0.91237901  0.69192330  1
  Se  Se247  1  0.42028619  0.25327537  0.19460999  1
  Se  Se248  1  0.40734615  0.25223135  0.70168736  1
  Se  Se249  1  0.40844345  0.58804149  0.19921072  1
  Se  Se250  1  0.41506665  0.58552376  0.69719833  1
  Se  Se251  1  0.41527946  0.91544276  0.19733671  1
  Se  Se252  1  0.41456717  0.91006348  0.68331182  1
  Se  Se253  1  0.76404062  0.24623309  0.19605731  1
  Se  Se254  1  0.74509837  0.24803740  0.69663086  1
  Se  Se255  1  0.74548283  0.58005072  0.18944700  1
  Se  Se256  1  0.76150502  0.57278213  0.69562679  1
  Se  Se257  1  0.76542754  0.90699735  0.19186484  1
  Se  Se258  1  0.74349306  0.91640864  0.69739441  1
