# generated using pymatgen
data_In86Cu29Se144
_symmetry_space_group_name_H-M   'P 1'
_cell_length_a   17.57582608
_cell_length_b   17.57909890
_cell_length_c   23.44031634
_cell_angle_alpha   89.99497739
_cell_angle_beta   90.02648260
_cell_angle_gamma   90.00711335
_symmetry_Int_Tables_number   1
_chemical_formula_structural   In86Cu29Se144
_chemical_formula_sum   'In86 Cu29 Se144'
_cell_volume   7242.28769745
_cell_formula_units_Z   1
loop_
 _symmetry_equiv_pos_site_id
 _symmetry_equiv_pos_as_xyz
  1  'x, y, z'
loop_
 _atom_site_type_symbol
 _atom_site_label
 _atom_site_symmetry_multiplicity
 _atom_site_fract_x
 _atom_site_fract_y
 _atom_site_fract_z
 _atom_site_occupancy
  In  In0  1  -0.00519300  0.16660051  0.11947954  1
  In  In1  1  0.00295218  0.16193637  0.62476429  1
  In  In2  1  0.00054010  0.49205595  0.12184721  1
  In  In3  1  0.00117230  0.50461405  0.62527459  1
  In  In4  1  -0.01378215  0.84511074  0.12097977  1
  In  In5  1  0.00415158  0.82888741  0.62840168  1
  In  In6  1  0.33524796  0.15107305  0.12264904  1
  In  In7  1  0.32178728  0.16437847  0.62329880  1
  In  In8  1  0.33836368  0.50593890  0.12246918  1
  In  In9  1  0.34144144  0.50846527  0.61769798  1
  In  In10  1  0.32479302  0.82967147  0.13158351  1
  In  In11  1  0.33059010  0.83630988  0.62247804  1
  In  In12  1  0.66164053  0.15140463  0.10886584  1
  In  In13  1  0.66802693  0.14832581  0.62578314  1
  In  In14  1  0.65832817  0.51390906  0.12689347  1
  In  In15  1  0.67535814  0.51014515  0.61901639  1
  In  In16  1  0.67164540  0.83329849  0.12743040  1
  In  In17  1  0.65575342  0.84115047  0.62820387  1
  In  In18  1  0.19280479  -0.02070206  0.41803204  1
  In  In19  1  0.16416838  -0.00543086  0.86092793  1
  In  In20  1  0.16709602  0.33685673  0.38019367  1
  In  In21  1  0.16799164  0.34820029  0.87103742  1
  In  In22  1  0.17908229  0.65703255  0.38209421  1
  In  In23  1  0.16311955  0.66205954  0.86732086  1
  In  In24  1  0.50430005  -0.04173374  0.38221899  1
  In  In25  1  0.51172060  0.00533294  0.86871121  1
  In  In26  1  0.51216892  0.33909362  0.37761252  1
  In  In27  1  0.50241811  0.33094604  0.88252826  1
  In  In28  1  0.49329368  0.67387409  0.37460229  1
  In  In29  1  0.49385532  0.66129937  0.86804552  1
  In  In30  1  0.83077498  0.00247563  0.37574530  1
  In  In31  1  0.83388566  0.00044829  0.87614474  1
  In  In32  1  0.84279391  0.32401775  0.38541806  1
  In  In33  1  0.83749189  0.32242004  0.87355204  1
  In  In34  1  0.81506641  0.67550074  0.37760188  1
  In  In35  1  0.84030310  0.67768123  0.86824630  1
  In  In36  1  0.00323710  0.15291823  0.38777458  1
  In  In37  1  -0.01537053  0.15363110  0.85870206  1
  In  In38  1  0.00571732  0.49408107  0.38522399  1
  In  In39  1  0.01156984  0.51342961  0.86429361  1
  In  In40  1  0.00463292  0.84979091  0.38281455  1
  In  In41  1  -0.00664829  0.83113365  0.86970027  1
  In  In42  1  0.32865133  0.13952476  0.38726609  1
  In  In43  1  0.34567536  0.16298249  0.87267203  1
  In  In44  1  0.32191816  0.52036632  0.38202890  1
  In  In45  1  0.32920299  0.50428533  0.87729658  1
  In  In46  1  0.34686365  0.82244701  0.39381463  1
  In  In47  1  0.32994037  0.82911962  0.86169531  1
  In  In48  1  0.68071557  0.15978003  0.37650385  1
  In  In49  1  0.68698796  0.14375506  0.89148641  1
  In  In50  1  0.65243632  0.51642134  0.38633021  1
  In  In51  1  0.65329181  0.49988417  0.87543359  1
  In  In52  1  0.65120979  0.81365275  0.35286464  1
  In  In53  1  0.68138595  0.84547725  0.86920382  1
  In  In54  1  0.16399939  0.00067233  0.12554498  1
  In  In55  1  0.16523762  -0.00123248  0.62388328  1
  In  In56  1  0.15182563  0.33757909  0.12575017  1
  In  In57  1  0.15160081  0.32651799  0.61908669  1
  In  In58  1  0.17922716  0.66572425  0.12864771  1
  In  In59  1  0.16843907  0.66898174  0.62315658  1
  In  In60  1  0.49822963  0.00657471  0.11930604  1
  In  In61  1  0.50778971  -0.00730502  0.62851084  1
  In  In62  1  0.49955284  0.33147759  0.12008955  1
  In  In63  1  0.49047162  0.33816958  0.62298874  1
  In  In64  1  0.51171033  0.66584383  0.13154222  1
  In  In65  1  0.49612371  0.67125178  0.62521513  1
  In  In66  1  0.80745852  -0.02591159  0.08098222  1
  In  In67  1  0.82676458  0.00525520  0.62627833  1
  In  In68  1  0.84433274  0.32456183  0.12381371  1
  In  In69  1  0.84567690  0.34027059  0.62169777  1
  In  In70  1  0.81479791  0.67048111  0.13065639  1
  In  In71  1  0.84117087  0.66439056  0.63149483  1
  In  In72  1  0.50253697  0.83001260  -0.00118602  1
  In  In73  1  0.67286665  0.33775626  0.25435375  1
  In  In74  1  0.66788356  0.33028832  0.75642268  1
  In  In75  1  -0.00143910  0.66506613  0.24940015  1
  In  In76  1  0.50060588  0.17083780  0.50158086  1
  In  In77  1  0.16586428  0.17298267  -0.00023026  1
  In  In78  1  0.83239321  0.83664222  0.50152893  1
  In  In79  1  0.83043457  0.50038533  0.00389909  1
  In  In80  1  0.00007851  0.33233076  0.26119457  1
  In  In81  1  0.34281657  -0.01562849  0.25940078  1
  In  In82  1  -0.00234408  0.00333272  0.25616799  1
  In  In83  1  0.15917626  0.82753831  -0.00779174  1
  In  In84  1  0.33329957  0.33569795  0.24973898  1
  In  In85  1  0.32892776  0.33272395  0.74596040  1
  Cu  Cu86  1  0.50385291  0.15557524  0.75396688  1
  Cu  Cu87  1  0.66052552  0.33389785  0.00089822  1
  Cu  Cu88  1  0.67457539  0.33656218  0.49997553  1
  Cu  Cu89  1  0.16825977  0.83320624  0.74268720  1
  Cu  Cu90  1  0.16254926  0.16444138  0.74294955  1
  Cu  Cu91  1  0.49878680  0.82811840  0.74798267  1
  Cu  Cu92  1  0.50660095  0.15493919  0.24730260  1
  Cu  Cu93  1  0.83448628  0.16483773  0.74953494  1
  Cu  Cu94  1  0.33763060  0.34575337  0.49737250  1
  Cu  Cu95  1  -0.00402937  0.33483383  0.50642114  1
  Cu  Cu96  1  0.16590581  0.16141320  0.26217087  1
  Cu  Cu97  1  0.33630507  -0.00202674  -0.00495118  1
  Cu  Cu98  1  0.16850856  0.82738122  0.25802312  1
  Cu  Cu99  1  0.00177293  0.66566176  -0.00665209  1
  Cu  Cu100  1  0.00679571  0.34007772  -0.00833764  1
  Cu  Cu101  1  0.66331462  0.66803022  0.00177329  1
  Cu  Cu102  1  0.66446854  -0.00746864  0.49997920  1
  Cu  Cu103  1  0.83589579  0.50535218  0.74501614  1
  Cu  Cu104  1  0.33463816  0.67018052  0.50432304  1
  Cu  Cu105  1  0.33428860  0.33835424  -0.00122128  1
  Cu  Cu106  1  0.49323760  0.50976799  0.25355751  1
  Cu  Cu107  1  0.16542714  0.50394456  0.74534651  1
  Cu  Cu108  1  0.82676165  0.50370320  0.25886690  1
  Cu  Cu109  1  0.50073364  0.50343772  0.74681927  1
  Cu  Cu110  1  0.33821264  0.65647985  -0.00012288  1
  Cu  Cu111  1  0.82797244  0.15506559  0.24584848  1
  Cu  Cu112  1  0.65958111  0.67169470  0.50006130  1
  Cu  Cu113  1  -0.00015547  0.66349891  0.50640290  1
  Cu  Cu114  1  0.83078174  0.83656981  0.74628162  1
  Se  Se115  1  0.07717182  0.07352493  0.05284953  1
  Se  Se116  1  0.10628389  0.10404884  0.55699624  1
  Se  Se117  1  0.08635892  0.42135138  0.04869813  1
  Se  Se118  1  0.08177262  0.42260183  0.55314085  1
  Se  Se119  1  0.07655008  0.74267645  0.06293371  1
  Se  Se120  1  0.08264395  0.75101389  0.55446451  1
  Se  Se121  1  0.41700262  0.08470471  0.04635311  1
  Se  Se122  1  0.41527886  0.07936844  0.56143129  1
  Se  Se123  1  0.41788058  0.41846554  0.05524145  1
  Se  Se124  1  0.42532092  0.42480397  0.54905796  1
  Se  Se125  1  0.40838872  0.74504857  0.06003818  1
  Se  Se126  1  0.41908895  0.75623308  0.55359891  1
  Se  Se127  1  0.77751397  0.11084231  0.04982635  1
  Se  Se128  1  0.74768827  0.07948807  0.54848389  1
  Se  Se129  1  0.74050992  0.40933293  0.06593832  1
  Se  Se130  1  0.75594808  0.41959918  0.55538776  1
  Se  Se131  1  0.74865066  0.75051778  0.05256412  1
  Se  Se132  1  0.74385137  0.74628525  0.56279658  1
  Se  Se133  1  0.25777183  0.25943391  0.06443468  1
  Se  Se134  1  0.26099690  0.26647731  0.55884023  1
  Se  Se135  1  0.24731043  0.58154571  0.05340292  1
  Se  Se136  1  0.24861344  0.58413499  0.55254262  1
  Se  Se137  1  0.25429332  0.91987570  0.05474299  1
  Se  Se138  1  0.24146957  0.91208948  0.55391210  1
  Se  Se139  1  0.57779704  0.24673637  0.05143414  1
  Se  Se140  1  0.59454224  0.25780020  0.56322859  1
  Se  Se141  1  0.57728110  0.58476191  0.05159734  1
  Se  Se142  1  0.58030043  0.58668414  0.55592949  1
  Se  Se143  1  0.59036662  0.92347647  0.05433263  1
  Se  Se144  1  0.57650944  0.91177878  0.55007386  1
  Se  Se145  1  0.92622120  0.25721443  0.04778487  1
  Se  Se146  1  0.91609061  0.24419720  0.55602188  1
  Se  Se147  1  0.92048749  0.59442625  0.06187248  1
  Se  Se148  1  0.91159729  0.58244179  0.55571677  1
  Se  Se149  1  0.93076166  0.91940591  0.03813692  1
  Se  Se150  1  0.92220267  0.92360538  0.56180964  1
  Se  Se151  1  0.07592616  0.25798668  0.44409170  1
  Se  Se152  1  0.07935292  0.25375731  0.93148503  1
  Se  Se153  1  0.08520441  0.58398636  0.44954120  1
  Se  Se154  1  0.08786291  0.58347453  0.94389940  1
  Se  Se155  1  0.07350272  0.92068149  0.46210872  1
  Se  Se156  1  0.07689195  0.92645832  0.93743757  1
  Se  Se157  1  0.40908659  0.25687051  0.43658261  1
  Se  Se158  1  0.41229357  0.24982788  0.94676744  1
  Se  Se159  1  0.41915476  0.58863353  0.44806326  1
  Se  Se160  1  0.42295554  0.57843631  0.94392457  1
  Se  Se161  1  0.38292634  0.95132602  0.44219431  1
  Se  Se162  1  0.41081606  0.91463754  0.93491235  1
  Se  Se163  1  0.75141316  0.24500190  0.44974848  1
  Se  Se164  1  0.74780800  0.25792014  0.94600396  1
  Se  Se165  1  0.74914690  0.58814814  0.45179708  1
  Se  Se166  1  0.74558099  0.58941095  0.93973856  1
  Se  Se167  1  0.73709233  0.91041019  0.43516164  1
  Se  Se168  1  0.74939556  0.92144361  0.94754051  1
  Se  Se169  1  0.22546225  0.11063761  0.46214818  1
  Se  Se170  1  0.25036490  0.07676745  0.93794079  1
  Se  Se171  1  0.24800201  0.42396959  0.44624299  1
  Se  Se172  1  0.24872385  0.41914985  0.94644329  1
  Se  Se173  1  0.24466347  0.75123579  0.45274074  1
  Se  Se174  1  0.25985126  0.74032492  0.94018635  1
  Se  Se175  1  0.58313929  0.07515373  0.43887848  1
  Se  Se176  1  0.57550166  0.08512871  0.94720236  1
  Se  Se177  1  0.58400420  0.41812777  0.45284574  1
  Se  Se178  1  0.57913740  0.42075667  0.95033823  1
  Se  Se179  1  0.58372753  0.75595846  0.44133213  1
  Se  Se180  1  0.59053628  0.74533964  0.93366857  1
  Se  Se181  1  0.91096562  0.07466254  0.44918763  1
  Se  Se182  1  0.91105035  0.09527857  0.94096656  1
  Se  Se183  1  0.91379967  0.41876926  0.45113297  1
  Se  Se184  1  0.92142168  0.42163764  0.93604294  1
  Se  Se185  1  0.92285045  0.74306075  0.44168582  1
  Se  Se186  1  0.91704955  0.75132295  0.94543964  1
  Se  Se187  1  0.25304205  0.24024722  0.31566011  1
  Se  Se188  1  0.24216923  0.24067308  0.80854916  1
  Se  Se189  1  0.25260814  0.58979169  0.30142444  1
  Se  Se190  1  0.25241792  0.58088731  0.80178612  1
  Se  Se191  1  0.23971697  0.91293418  0.32019676  1
  Se  Se192  1  0.25347809  0.91790153  0.79467002  1
  Se  Se193  1  0.58060019  0.23989422  0.30815655  1
  Se  Se194  1  0.58080662  0.23771355  0.81503069  1
  Se  Se195  1  0.58058263  0.58889011  0.30706185  1
  Se  Se196  1  0.58604452  0.58435272  0.80040539  1
  Se  Se197  1  0.59439006  0.93041722  0.30030518  1
  Se  Se198  1  0.58262059  0.91165356  0.80205980  1
  Se  Se199  1  0.90957046  0.23121708  0.30890273  1
  Se  Se200  1  0.91746454  0.25627338  0.79541914  1
  Se  Se201  1  0.91336395  0.57827657  0.31700684  1
  Se  Se202  1  0.91859236  0.58965232  0.80051603  1
  Se  Se203  1  0.90722821  0.90482666  0.30808930  1
  Se  Se204  1  0.91320105  0.91860807  0.80315015  1
  Se  Se205  1  0.09619132  0.07412345  0.32113887  1
  Se  Se206  1  0.07984729  0.07901956  0.79551985  1
  Se  Se207  1  0.09583918  0.42931141  0.30607943  1
  Se  Se208  1  0.08312163  0.41784737  0.79728003  1
  Se  Se209  1  0.08289127  0.75290752  0.31642655  1
  Se  Se210  1  0.08639370  0.75504177  0.80395908  1
  Se  Se211  1  0.42931058  0.08284234  0.31490299  1
  Se  Se212  1  0.41310273  0.07363242  0.80123816  1
  Se  Se213  1  0.42009889  0.42396189  0.31380890  1
  Se  Se214  1  0.42349701  0.41766865  0.80686358  1
  Se  Se215  1  0.41855566  0.76804077  0.30903258  1
  Se  Se216  1  0.41330954  0.74278152  0.79768653  1
  Se  Se217  1  0.74588452  0.07432639  0.30083678  1
  Se  Se218  1  0.74987594  0.08231031  0.80367575  1
  Se  Se219  1  0.75477977  0.42219911  0.32293380  1
  Se  Se220  1  0.75956349  0.42736859  0.81117034  1
  Se  Se221  1  0.75452135  0.74552498  0.29395685  1
  Se  Se222  1  0.74888719  0.75060954  0.80013234  1
  Se  Se223  1  0.24690478  0.08173627  0.20010167  1
  Se  Se224  1  0.25047126  0.08065794  0.69597571  1
  Se  Se225  1  0.24175263  0.42191014  0.19026279  1
  Se  Se226  1  0.24420661  0.42326919  0.68406246  1
  Se  Se227  1  0.25215311  0.74635443  0.20441452  1
  Se  Se228  1  0.25338065  0.74841408  0.69315286  1
  Se  Se229  1  0.58870862  0.07883385  0.18930877  1
  Se  Se230  1  0.58854605  0.07508499  0.70014773  1
  Se  Se231  1  0.57241131  0.42220405  0.19676947  1
  Se  Se232  1  0.58132210  0.41888695  0.69102887  1
  Se  Se233  1  0.58927892  0.75330983  0.19597801  1
  Se  Se234  1  0.58479275  0.74663103  0.69547677  1
  Se  Se235  1  0.91232107  0.08100150  0.18595263  1
  Se  Se236  1  0.91653255  0.08173887  0.69415063  1
  Se  Se237  1  0.90679486  0.42349964  0.19841203  1
  Se  Se238  1  0.92013549  0.41982918  0.69626949  1
  Se  Se239  1  0.90902863  0.75787977  0.19213010  1
  Se  Se240  1  0.91891369  0.75172568  0.69917886  1
  Se  Se241  1  0.08742791  0.23669848  0.19801586  1
  Se  Se242  1  0.07787814  0.25227246  0.69658586  1
  Se  Se243  1  0.08762309  0.57341247  0.19102516  1
  Se  Se244  1  0.08220343  0.58998133  0.69398689  1
  Se  Se245  1  0.09001358  0.90599217  0.19475558  1
  Se  Se246  1  0.08208037  0.91902595  0.69524821  1
  Se  Se247  1  0.42259275  0.23645382  0.19271489  1
  Se  Se248  1  0.42629925  0.23841071  0.69358847  1
  Se  Se249  1  0.41444363  0.58948304  0.19434170  1
  Se  Se250  1  0.41451901  0.58470855  0.69497508  1
  Se  Se251  1  0.42956187  0.90646103  0.18866480  1
  Se  Se252  1  0.41771008  0.91379172  0.69390226  1
  Se  Se253  1  0.75242711  0.24463780  0.18980931  1
  Se  Se254  1  0.75353419  0.24556710  0.68878930  1
  Se  Se255  1  0.74415550  0.58108184  0.20159267  1
  Se  Se256  1  0.74714541  0.58697936  0.69695763  1
  Se  Se257  1  0.76563869  0.92490473  0.17851642  1
  Se  Se258  1  0.74591178  0.91987402  0.69407023  1
