# generated using pymatgen
data_In86Cu29Se144
_symmetry_space_group_name_H-M   'P 1'
_cell_length_a   17.57094142
_cell_length_b   17.56957902
_cell_length_c   23.42403620
_cell_angle_alpha   90.02854970
_cell_angle_beta   89.99764089
_cell_angle_gamma   89.98934711
_symmetry_Int_Tables_number   1
_chemical_formula_structural   In86Cu29Se144
_chemical_formula_sum   'In86 Cu29 Se144'
_cell_volume   7231.32790531
_cell_formula_units_Z   1
loop_
 _symmetry_equiv_pos_site_id
 _symmetry_equiv_pos_as_xyz
  1  'x, y, z'
loop_
 _atom_site_type_symbol
 _atom_site_label
 _atom_site_symmetry_multiplicity
 _atom_site_fract_x
 _atom_site_fract_y
 _atom_site_fract_z
 _atom_site_occupancy
  In  In0  1  -0.00639115  0.15801346  0.11353734  1
  In  In1  1  -0.01715833  0.17413305  0.64089003  1
  In  In2  1  -0.00869072  0.49134262  0.11150222  1
  In  In3  1  0.01010725  0.48821418  0.65602279  1
  In  In4  1  0.00252306  0.84479122  0.12735012  1
  In  In5  1  0.00938206  0.82647196  0.63075270  1
  In  In6  1  0.33228881  0.16659463  0.12201256  1
  In  In7  1  0.34245741  0.17421020  0.62585496  1
  In  In8  1  0.32444586  0.50925533  0.13057213  1
  In  In9  1  0.32859028  0.49514630  0.61872343  1
  In  In10  1  0.31720489  0.84730855  0.15471549  1
  In  In11  1  0.32639908  0.84697458  0.61643924  1
  In  In12  1  0.65868024  0.16535925  0.10998218  1
  In  In13  1  0.68400373  0.16324745  0.62538830  1
  In  In14  1  0.66732012  0.49825710  0.11861962  1
  In  In15  1  0.66640958  0.49777356  0.63086722  1
  In  In16  1  0.66929954  0.82818656  0.13008021  1
  In  In17  1  0.66524265  0.81669662  0.62473493  1
  In  In18  1  0.15728767  -0.01429306  0.35741157  1
  In  In19  1  0.16051205  0.02617707  0.88644762  1
  In  In20  1  0.17386727  0.32995521  0.37687274  1
  In  In21  1  0.16110175  0.33627431  0.87302227  1
  In  In22  1  0.17402178  0.65847610  0.38403460  1
  In  In23  1  0.14781688  0.65950339  0.86782615  1
  In  In24  1  0.48480793  -0.02270855  0.34719614  1
  In  In25  1  0.51029300  0.00846400  0.88310897  1
  In  In26  1  0.49578617  0.34376877  0.37904295  1
  In  In27  1  0.49393123  0.32434774  0.87049708  1
  In  In28  1  0.49398541  0.65717712  0.36985716  1
  In  In29  1  0.50218791  0.65209538  0.87695835  1
  In  In30  1  0.83834611  0.00168978  0.36731081  1
  In  In31  1  0.83872662  -0.00409937  0.88192396  1
  In  In32  1  0.81859180  0.32607963  0.38008508  1
  In  In33  1  0.84265864  0.32983331  0.86883614  1
  In  In34  1  0.83748758  0.67349983  0.37171091  1
  In  In35  1  0.83437313  0.66719048  0.87450483  1
  In  In36  1  0.00202348  0.15764594  0.37654246  1
  In  In37  1  0.00123146  0.16867092  0.87142750  1
  In  In38  1  0.00145018  0.51116408  0.38254523  1
  In  In39  1  -0.00287518  0.49939559  0.86615361  1
  In  In40  1  -0.00744985  0.84503594  0.37676301  1
  In  In41  1  -0.01195280  0.82213202  0.86883413  1
  In  In42  1  0.33194654  0.16932887  0.36197187  1
  In  In43  1  0.31477163  0.18005768  0.89889366  1
  In  In44  1  0.33160784  0.49941320  0.37588209  1
  In  In45  1  0.33204868  0.48836433  0.87530413  1
  In  In46  1  0.31567446  0.81090591  0.35134904  1
  In  In47  1  0.33068575  0.84176560  0.88425064  1
  In  In48  1  0.67612904  0.16104218  0.37576951  1
  In  In49  1  0.66810281  0.18020292  0.88266086  1
  In  In50  1  0.65520901  0.49057212  0.37624936  1
  In  In51  1  0.68459499  0.50479185  0.86233144  1
  In  In52  1  0.64851538  0.81957326  0.35067790  1
  In  In53  1  0.68115352  0.83750200  0.88165113  1
  In  In54  1  0.16048275  0.00174107  0.13012533  1
  In  In55  1  0.16312959  -0.00733999  0.62030647  1
  In  In56  1  0.17629732  0.34327687  0.11724955  1
  In  In57  1  0.16100930  0.35219213  0.64235962  1
  In  In58  1  0.17208274  0.66887499  0.12870033  1
  In  In59  1  0.16314571  0.66094062  0.62010055  1
  In  In60  1  0.48720101  0.01373987  0.13460212  1
  In  In61  1  0.49581639  -0.00289404  0.62030919  1
  In  In62  1  0.49635262  0.30777924  0.11317903  1
  In  In63  1  0.48505261  0.34285579  0.63613613  1
  In  In64  1  0.49089974  0.67891774  0.13789515  1
  In  In65  1  0.52243993  0.65858043  0.62453194  1
  In  In66  1  0.83793450  0.00017725  0.12164165  1
  In  In67  1  0.83497094  0.01308221  0.62482483  1
  In  In68  1  0.81303310  0.32655812  0.09205009  1
  In  In69  1  0.84743429  0.32360667  0.65348585  1
  In  In70  1  0.81888555  0.65551623  0.11347453  1
  In  In71  1  0.84488098  0.65008313  0.64512517  1
  In  In72  1  0.16531760  0.83521243  0.01233227  1
  In  In73  1  0.50483384  0.49514027  -0.00375902  1
  In  In74  1  0.83857789  0.49544078  0.51540430  1
  In  In75  1  0.50567229  0.16372892  0.49614733  1
  In  In76  1  0.83150198  0.83554031  0.49747879  1
  In  In77  1  0.65856800  0.32932663  0.23909293  1
  In  In78  1  0.49643483  0.83611435  0.01794104  1
  In  In79  1  0.49611371  0.82685088  0.48988305  1
  In  In80  1  0.33055318  0.66124872  0.74932875  1
  In  In81  1  0.00308448  0.67114080  0.24922559  1
  In  In82  1  0.67166482  0.00341860  0.75863506  1
  In  In83  1  -0.00262906  0.33331789  0.24170952  1
  In  In84  1  0.16284174  0.17162881  0.50215557  1
  In  In85  1  0.33065567  0.00812833  0.75079891  1
  Cu  Cu86  1  0.16678794  0.16725275  0.24541235  1
  Cu  Cu87  1  -0.00810489  0.66018695  -0.00802469  1
  Cu  Cu88  1  0.00373624  -0.00276031  -0.00195854  1
  Cu  Cu89  1  0.49998985  0.17026845  0.24329187  1
  Cu  Cu90  1  0.16602706  0.49930684  0.25167949  1
  Cu  Cu91  1  0.66704407  0.32458326  0.50562882  1
  Cu  Cu92  1  0.31909941  -0.00118229  0.48662303  1
  Cu  Cu93  1  0.34065191  0.66615744  0.49505426  1
  Cu  Cu94  1  0.32865259  0.34293076  0.50279120  1
  Cu  Cu95  1  0.67647048  0.65425604  0.50090962  1
  Cu  Cu96  1  0.66055888  0.67046667  -0.00157232  1
  Cu  Cu97  1  -0.00233736  0.33832586  0.51910972  1
  Cu  Cu98  1  0.16498869  0.84148348  0.75041344  1
  Cu  Cu99  1  0.66963405  -0.00268473  0.49231020  1
  Cu  Cu100  1  0.49972716  0.16612221  0.75517844  1
  Cu  Cu101  1  0.50727780  0.49535728  0.75299967  1
  Cu  Cu102  1  0.82806539  0.49882420  0.23848618  1
  Cu  Cu103  1  0.83827482  0.16450258  0.24188773  1
  Cu  Cu104  1  0.33094676  0.33196182  -0.00154289  1
  Cu  Cu105  1  0.50076122  0.82116418  0.75134488  1
  Cu  Cu106  1  0.01790087  0.66639855  0.50881986  1
  Cu  Cu107  1  0.00744794  0.33172141  -0.01092533  1
  Cu  Cu108  1  0.31746026  0.66564780  0.00707731  1
  Cu  Cu109  1  0.82936420  0.83541689  0.75419434  1
  Cu  Cu110  1  0.16568319  0.17201835  0.75869876  1
  Cu  Cu111  1  -0.00319961  0.00527674  0.49533746  1
  Cu  Cu112  1  0.67265898  0.00698352  0.00149811  1
  Cu  Cu113  1  0.83218822  0.83259715  0.24638480  1
  Cu  Cu114  1  0.49479191  0.49873299  0.25128865  1
  Se  Se115  1  0.08919203  0.07848900  0.05149225  1
  Se  Se116  1  0.06958420  0.08528472  0.56165655  1
  Se  Se117  1  0.08504743  0.41547180  0.04803830  1
  Se  Se118  1  0.07904883  0.42552987  0.56799299  1
  Se  Se119  1  0.06892135  0.73601438  0.05965355  1
  Se  Se120  1  0.09536380  0.76143962  0.55430687  1
  Se  Se121  1  0.43864445  0.10626206  0.05799545  1
  Se  Se122  1  0.40073744  0.07353769  0.55054438  1
  Se  Se123  1  0.41002065  0.41521550  0.06018738  1
  Se  Se124  1  0.42255320  0.41798704  0.55294114  1
  Se  Se125  1  0.39469935  0.74729543  0.06664029  1
  Se  Se126  1  0.41600686  0.74319631  0.56398334  1
  Se  Se127  1  0.76069785  0.08905551  0.05275762  1
  Se  Se128  1  0.75048780  0.07956297  0.54813370  1
  Se  Se129  1  0.74901188  0.43745180  0.04053250  1
  Se  Se130  1  0.74870119  0.39963413  0.56794755  1
  Se  Se131  1  0.74494692  0.75416913  0.05109243  1
  Se  Se132  1  0.75800009  0.73331432  0.56018362  1
  Se  Se133  1  0.24748547  0.24707452  0.05142249  1
  Se  Se134  1  0.25086268  0.26132883  0.56442568  1
  Se  Se135  1  0.23666104  0.57683347  0.05591135  1
  Se  Se136  1  0.25583527  0.58822288  0.55251585  1
  Se  Se137  1  0.26390179  0.92221372  0.06521369  1
  Se  Se138  1  0.23998531  0.91665887  0.54377431  1
  Se  Se139  1  0.61418907  0.28297364  0.05189209  1
  Se  Se140  1  0.58229410  0.24962536  0.56758613  1
  Se  Se141  1  0.57600879  0.59805132  0.05969139  1
  Se  Se142  1  0.58969881  0.57179617  0.55069601  1
  Se  Se143  1  0.59262908  0.93066668  0.06538641  1
  Se  Se144  1  0.59111474  0.91619760  0.55413906  1
  Se  Se145  1  0.92327019  0.25170349  0.04569058  1
  Se  Se146  1  0.90965479  0.25556342  0.56572028  1
  Se  Se147  1  0.90798738  0.57752607  0.04682582  1
  Se  Se148  1  0.93407236  0.58743626  0.56703295  1
  Se  Se149  1  0.92045949  0.91445143  0.05193464  1
  Se  Se150  1  0.92310976  0.92116664  0.55908984  1
  Se  Se151  1  0.06788449  0.26363038  0.44583343  1
  Se  Se152  1  0.09203745  0.24200674  0.94266680  1
  Se  Se153  1  0.09172271  0.57605360  0.45403808  1
  Se  Se154  1  0.07984900  0.57814596  0.94317108  1
  Se  Se155  1  0.08210100  0.92442607  0.44238313  1
  Se  Se156  1  0.08131192  0.91288756  0.93728679  1
  Se  Se157  1  0.40327116  0.25313665  0.44412565  1
  Se  Se158  1  0.42440431  0.25134612  0.95198295  1
  Se  Se159  1  0.42130540  0.57810325  0.44520471  1
  Se  Se160  1  0.40240235  0.59003768  0.94720449  1
  Se  Se161  1  0.40651969  0.91869780  0.43328638  1
  Se  Se162  1  0.41528835  0.92757980  0.94993220  1
  Se  Se163  1  0.74928291  0.24055166  0.45280022  1
  Se  Se164  1  0.76651575  0.25126940  0.94412527  1
  Se  Se165  1  0.75765801  0.57748970  0.43836446  1
  Se  Se166  1  0.74335328  0.58972422  0.94259284  1
  Se  Se167  1  0.74203444  0.91254480  0.42989917  1
  Se  Se168  1  0.75554564  0.91773347  0.95424294  1
  Se  Se169  1  0.24296819  0.08637865  0.43119478  1
  Se  Se170  1  0.26463719  0.06586405  0.95604893  1
  Se  Se171  1  0.24389518  0.42040438  0.44664160  1
  Se  Se172  1  0.24699706  0.41520379  0.94610555  1
  Se  Se173  1  0.25890096  0.75307218  0.44362927  1
  Se  Se174  1  0.24426744  0.74337401  0.94054172  1
  Se  Se175  1  0.58070406  0.06805376  0.43186068  1
  Se  Se176  1  0.58828212  0.09225195  0.95162938  1
  Se  Se177  1  0.58639754  0.40880532  0.45212104  1
  Se  Se178  1  0.59012688  0.41727003  0.92705807  1
  Se  Se179  1  0.59832697  0.73754613  0.43997846  1
  Se  Se180  1  0.57796124  0.75280036  0.94208803  1
  Se  Se181  1  0.90927749  0.08579525  0.44417784  1
  Se  Se182  1  0.92385468  0.08439031  0.94461148  1
  Se  Se183  1  0.91997533  0.40795022  0.44253563  1
  Se  Se184  1  0.92142098  0.41735907  0.94000401  1
  Se  Se185  1  0.93108962  0.73882953  0.44713144  1
  Se  Se186  1  0.91045558  0.75352641  0.94784797  1
  Se  Se187  1  0.24558657  0.25548343  0.29841252  1
  Se  Se188  1  0.25499231  0.24788900  0.81244147  1
  Se  Se189  1  0.24822417  0.58254074  0.30633516  1
  Se  Se190  1  0.24176529  0.57083026  0.80707735  1
  Se  Se191  1  0.26802316  0.93046357  0.29943655  1
  Se  Se192  1  0.24249437  0.91919855  0.81340347  1
  Se  Se193  1  0.57637676  0.24564495  0.31215875  1
  Se  Se194  1  0.58731175  0.24916578  0.80408557  1
  Se  Se195  1  0.58411669  0.57605168  0.30454342  1
  Se  Se196  1  0.58592349  0.58582853  0.80266146  1
  Se  Se197  1  0.61200228  0.94297606  0.30020294  1
  Se  Se198  1  0.57524353  0.90817935  0.81164870  1
  Se  Se199  1  0.90869099  0.24654004  0.30844623  1
  Se  Se200  1  0.94045619  0.26457667  0.80023562  1
  Se  Se201  1  0.90944480  0.57131125  0.30273694  1
  Se  Se202  1  0.93449377  0.60800376  0.80683381  1
  Se  Se203  1  0.91788175  0.91526451  0.29810729  1
  Se  Se204  1  0.91419933  0.91921820  0.80489042  1
  Se  Se205  1  0.08018246  0.08742083  0.29993287  1
  Se  Se206  1  0.08349386  0.07940903  0.80224121  1
  Se  Se207  1  0.08127087  0.42227143  0.31040492  1
  Se  Se208  1  0.07993015  0.41213112  0.80040610  1
  Se  Se209  1  0.08570588  0.75201167  0.31899392  1
  Se  Se210  1  0.08225917  0.75384830  0.79915300  1
  Se  Se211  1  0.41401329  0.08596680  0.29406135  1
  Se  Se212  1  0.41762351  0.09061846  0.81724890  1
  Se  Se213  1  0.41321321  0.41433112  0.30517681  1
  Se  Se214  1  0.41820872  0.41686435  0.80420365  1
  Se  Se215  1  0.44546200  0.77084457  0.31106262  1
  Se  Se216  1  0.41702476  0.75336715  0.81522334  1
  Se  Se217  1  0.75466750  0.08736216  0.29990322  1
  Se  Se218  1  0.75982311  0.09299602  0.81585932  1
  Se  Se219  1  0.75254091  0.41739769  0.30316453  1
  Se  Se220  1  0.76933201  0.42125788  0.79649826  1
  Se  Se221  1  0.75401664  0.74230348  0.29777508  1
  Se  Se222  1  0.74603931  0.75225264  0.80693733  1
  Se  Se223  1  0.25143888  0.08423774  0.19321388  1
  Se  Se224  1  0.23925962  0.09534257  0.68778239  1
  Se  Se225  1  0.24890055  0.41597087  0.19742399  1
  Se  Se226  1  0.27145451  0.41247359  0.69864833  1
  Se  Se227  1  0.24505034  0.74044667  0.20648304  1
  Se  Se228  1  0.24911991  0.76350657  0.69105446  1
  Se  Se229  1  0.59030876  0.09245196  0.19138117  1
  Se  Se230  1  0.57455036  0.08313808  0.69133225  1
  Se  Se231  1  0.56665512  0.42060253  0.18306025  1
  Se  Se232  1  0.58748871  0.40881274  0.69896837  1
  Se  Se233  1  0.59258204  0.74336380  0.19929488  1
  Se  Se234  1  0.58934438  0.74239087  0.70130149  1
  Se  Se235  1  0.92400673  0.08059191  0.19255506  1
  Se  Se236  1  0.91351640  0.07514973  0.70371386  1
  Se  Se237  1  0.89924817  0.41151033  0.17994393  1
  Se  Se238  1  0.88095773  0.45169531  0.70234830  1
  Se  Se239  1  0.90795186  0.74797793  0.18430450  1
  Se  Se240  1  0.91616854  0.75654994  0.69924881  1
  Se  Se241  1  0.08825897  0.24573166  0.18227632  1
  Se  Se242  1  0.08443241  0.25016829  0.69868351  1
  Se  Se243  1  0.08014679  0.56920229  0.18872146  1
  Se  Se244  1  0.09034403  0.59541429  0.70085068  1
  Se  Se245  1  0.09980820  0.89998557  0.19675808  1
  Se  Se246  1  0.08142647  0.92390242  0.69639194  1
  Se  Se247  1  0.41307657  0.25361476  0.19399121  1
  Se  Se248  1  0.41264593  0.24908083  0.70417179  1
  Se  Se249  1  0.41114504  0.58551438  0.20020782  1
  Se  Se250  1  0.42836982  0.57752091  0.69059207  1
  Se  Se251  1  0.44369141  0.89820020  0.19418041  1
  Se  Se252  1  0.42265915  0.90742304  0.69493844  1
  Se  Se253  1  0.75929004  0.24773801  0.18277755  1
  Se  Se254  1  0.74955937  0.23790037  0.70419931  1
  Se  Se255  1  0.74053097  0.58328173  0.19170190  1
  Se  Se256  1  0.72979309  0.59705043  0.69766427  1
  Se  Se257  1  0.75450348  0.91880764  0.19158547  1
  Se  Se258  1  0.74981697  0.91057205  0.68815131  1
