# generated using pymatgen
data_In86Cu29Se144
_symmetry_space_group_name_H-M   'P 1'
_cell_length_a   17.61339008
_cell_length_b   17.60928000
_cell_length_c   23.48033372
_cell_angle_alpha   89.94102298
_cell_angle_beta   89.99360426
_cell_angle_gamma   89.99622300
_symmetry_Int_Tables_number   1
_chemical_formula_structural   In86Cu29Se144
_chemical_formula_sum   'In86 Cu29 Se144'
_cell_volume   7282.63567104
_cell_formula_units_Z   1
loop_
 _symmetry_equiv_pos_site_id
 _symmetry_equiv_pos_as_xyz
  1  'x, y, z'
loop_
 _atom_site_type_symbol
 _atom_site_label
 _atom_site_symmetry_multiplicity
 _atom_site_fract_x
 _atom_site_fract_y
 _atom_site_fract_z
 _atom_site_occupancy
  In  In0  1  0.00646815  0.16878758  0.12788371  1
  In  In1  1  -0.00893103  0.15514034  0.61653829  1
  In  In2  1  -0.01021367  0.49316531  0.12811377  1
  In  In3  1  -0.00589309  0.52161380  0.62716039  1
  In  In4  1  -0.00205446  0.84199433  0.12053232  1
  In  In5  1  -0.00399848  0.83669265  0.62729217  1
  In  In6  1  0.35164024  0.17444793  0.12709113  1
  In  In7  1  0.32623612  0.16417625  0.61391074  1
  In  In8  1  0.32525269  0.50818343  0.12546612  1
  In  In9  1  0.34369400  0.50542265  0.62132213  1
  In  In10  1  0.32950898  0.80345675  0.12595334  1
  In  In11  1  0.34977708  0.81765143  0.62848358  1
  In  In12  1  0.67176609  0.17978527  0.12463302  1
  In  In13  1  0.66583330  0.16668250  0.62245526  1
  In  In14  1  0.65125197  0.51517230  0.15014359  1
  In  In15  1  0.66594748  0.50086619  0.62521104  1
  In  In16  1  0.66820190  0.81858327  0.12501432  1
  In  In17  1  0.66600920  0.83135812  0.62264707  1
  In  In18  1  0.17923876  0.00028108  0.38055673  1
  In  In19  1  0.15878813  -0.01137802  0.85787305  1
  In  In20  1  0.16614026  0.32921637  0.37115388  1
  In  In21  1  0.18024350  0.33986759  0.88132487  1
  In  In22  1  0.16667948  0.65920424  0.37269102  1
  In  In23  1  0.16645607  0.66709154  0.87343989  1
  In  In24  1  0.50867322  -0.00912572  0.38959515  1
  In  In25  1  0.49893384  -0.00119602  0.85720774  1
  In  In26  1  0.50230920  0.33507466  0.37376866  1
  In  In27  1  0.50667556  0.34097964  0.87321063  1
  In  In28  1  0.50195118  0.65869656  0.37680421  1
  In  In29  1  0.49498440  0.65642936  0.86683941  1
  In  In30  1  0.83624744  -0.00336857  0.38638212  1
  In  In31  1  0.82086314  -0.01399113  0.85909237  1
  In  In32  1  0.83445005  0.33547980  0.38109892  1
  In  In33  1  0.82205772  0.34272632  0.87365575  1
  In  In34  1  0.81511434  0.68511627  0.39223161  1
  In  In35  1  0.83987987  0.67704111  0.86597004  1
  In  In36  1  -0.00729629  0.17529663  0.38631745  1
  In  In37  1  0.00986769  0.16285107  0.87016396  1
  In  In38  1  0.00426652  0.48999307  0.37665943  1
  In  In39  1  -0.00003394  0.52318790  0.87948399  1
  In  In40  1  -0.01931923  0.82202406  0.37618179  1
  In  In41  1  -0.01241326  0.81745875  0.86210941  1
  In  In42  1  0.32830269  0.17016036  0.38163095  1
  In  In43  1  0.34300535  0.16845828  0.87041553  1
  In  In44  1  0.35768685  0.51687815  0.35694991  1
  In  In45  1  0.32361628  0.51559309  0.89470534  1
  In  In46  1  0.34157487  0.82869766  0.37754003  1
  In  In47  1  0.33077839  0.82949650  0.86238537  1
  In  In48  1  0.65898496  0.17378075  0.38976966  1
  In  In49  1  0.66646159  0.16798871  0.86293306  1
  In  In50  1  0.66122694  0.50331911  0.37495599  1
  In  In51  1  0.65737718  0.49470450  0.86653778  1
  In  In52  1  0.67199467  0.81933555  0.38011801  1
  In  In53  1  0.67081992  0.83329620  0.86558941  1
  In  In54  1  0.16325384  -0.00442398  0.11996681  1
  In  In55  1  0.16046344  0.00387681  0.62734147  1
  In  In56  1  0.15306672  0.34169066  0.13441858  1
  In  In57  1  0.17849427  0.33220568  0.61995687  1
  In  In58  1  0.18293949  0.66681093  0.12659090  1
  In  In59  1  0.16463211  0.67108960  0.63358187  1
  In  In60  1  0.49634004  0.00226230  0.12325338  1
  In  In61  1  0.50155663  -0.00042281  0.62323080  1
  In  In62  1  0.46371793  0.38911966  0.18249758  1
  In  In63  1  0.51081839  0.34685316  0.61275181  1
  In  In64  1  0.50469789  0.65578817  0.12947113  1
  In  In65  1  0.49768235  0.67014981  0.62128342  1
  In  In66  1  0.83897516  -0.00165731  0.12064423  1
  In  In67  1  0.83205788  -0.00216727  0.62462207  1
  In  In68  1  0.82142903  0.34863745  0.14375038  1
  In  In69  1  0.82412666  0.32486562  0.61717921  1
  In  In70  1  0.82643912  0.66659689  0.12414557  1
  In  In71  1  0.83067347  0.66284295  0.61954255  1
  In  In72  1  0.83220028  0.50489742  0.00079978  1
  In  In73  1  0.83675190  0.17140468  -0.00149078  1
  In  In74  1  0.66886875  0.00117441  0.25120992  1
  In  In75  1  -0.00305780  0.66774676  0.25215588  1
  In  In76  1  0.00151628  0.00109600  0.25289554  1
  In  In77  1  0.16489227  0.82542155  -0.00377281  1
  In  In78  1  -0.00201771  0.33297269  0.75114701  1
  In  In79  1  0.33835618  0.33433711  0.74905157  1
  In  In80  1  0.17020826  0.49539467  0.49435849  1
  In  In81  1  0.33544098  0.00045252  0.24959616  1
  In  In82  1  0.50360554  0.82847160  0.00329467  1
  In  In83  1  0.16458710  0.83474921  0.50134131  1
  In  In84  1  0.17117094  0.16539242  0.00100326  1
  In  In85  1  0.50589982  0.17472490  -0.00550629  1
  Cu  Cu86  1  0.33644477  0.33622076  0.49236207  1
  Cu  Cu87  1  0.49747709  0.82373464  0.25203658  1
  Cu  Cu88  1  0.50292050  0.16848954  0.26167992  1
  Cu  Cu89  1  0.83364517  0.17344378  0.26221944  1
  Cu  Cu90  1  0.50094801  0.50360864  0.74475456  1
  Cu  Cu91  1  0.16675479  0.50657162  0.75602726  1
  Cu  Cu92  1  0.33666194  0.34510859  0.01309830  1
  Cu  Cu93  1  0.16972429  0.49730786  0.25372091  1
  Cu  Cu94  1  0.83414416  0.50286086  0.26085260  1
  Cu  Cu95  1  0.65966536  0.66305218  0.50319817  1
  Cu  Cu96  1  0.33005048  -0.00728312  -0.01032879  1
  Cu  Cu97  1  0.16906961  0.16945680  0.25129143  1
  Cu  Cu98  1  0.17511021  0.83705042  0.74422399  1
  Cu  Cu99  1  0.00245927  0.33446934  0.50124689  1
  Cu  Cu100  1  0.65667039  0.34202179  0.00388804  1
  Cu  Cu101  1  0.33572237  -0.00188065  0.50335125  1
  Cu  Cu102  1  0.67000582  0.66386797  0.00220270  1
  Cu  Cu103  1  0.67257898  -0.00541933  -0.01208707  1
  Cu  Cu104  1  0.50613301  0.83245659  0.74425023  1
  Cu  Cu105  1  0.16388149  0.15934976  0.74247896  1
  Cu  Cu106  1  0.49847272  0.16720005  0.74197852  1
  Cu  Cu107  1  -0.01299741  -0.00936563  -0.00933253  1
  Cu  Cu108  1  -0.00237784  0.33554944  0.00773075  1
  Cu  Cu109  1  0.66713047  0.33655831  0.49695801  1
  Cu  Cu110  1  0.83093334  0.16374071  0.74157834  1
  Cu  Cu111  1  0.82803518  0.49933504  0.74724041  1
  Cu  Cu112  1  0.83175833  0.82869520  0.74081078  1
  Cu  Cu113  1  0.00097115  0.00268546  0.50482689  1
  Cu  Cu114  1  0.66905909  -0.00229385  0.50676666  1
  Se  Se115  1  0.06760603  0.07226219  0.05042332  1
  Se  Se116  1  0.09000478  0.08613059  0.55116752  1
  Se  Se117  1  0.08001620  0.42027658  0.05834491  1
  Se  Se118  1  0.07815938  0.41624801  0.56378568  1
  Se  Se119  1  0.07832256  0.74210046  0.06211229  1
  Se  Se120  1  0.07594964  0.74216353  0.55911987  1
  Se  Se121  1  0.40877811  0.07714535  0.04848490  1
  Se  Se122  1  0.42016765  0.08416241  0.55309609  1
  Se  Se123  1  0.42026938  0.41072832  0.07627855  1
  Se  Se124  1  0.41441500  0.42018280  0.54902275  1
  Se  Se125  1  0.41396295  0.73000436  0.05277874  1
  Se  Se126  1  0.41336031  0.74424587  0.54798999  1
  Se  Se127  1  0.74104002  0.07900239  0.05408092  1
  Se  Se128  1  0.75285074  0.08435235  0.55555196  1
  Se  Se129  1  0.74401256  0.41615932  0.06192086  1
  Se  Se130  1  0.74828036  0.41894923  0.55386291  1
  Se  Se131  1  0.75293147  0.75078457  0.05048449  1
  Se  Se132  1  0.74652927  0.74812687  0.55238052  1
  Se  Se133  1  0.25500317  0.25599226  0.06460494  1
  Se  Se134  1  0.25068252  0.25398406  0.54475782  1
  Se  Se135  1  0.24914053  0.58612240  0.05097538  1
  Se  Se136  1  0.24837363  0.58894549  0.55981834  1
  Se  Se137  1  0.26055120  0.91504354  0.05738382  1
  Se  Se138  1  0.25642520  0.91830170  0.56414766  1
  Se  Se139  1  0.57840266  0.26225988  0.06433268  1
  Se  Se140  1  0.58527864  0.25000605  0.55074687  1
  Se  Se141  1  0.59339356  0.57951744  0.06033465  1
  Se  Se142  1  0.57814251  0.57798395  0.55609557  1
  Se  Se143  1  0.59433868  0.92662572  0.05826371  1
  Se  Se144  1  0.58092624  0.91352109  0.55392118  1
  Se  Se145  1  0.91449475  0.26085087  0.06724802  1
  Se  Se146  1  0.91768430  0.24944251  0.55230194  1
  Se  Se147  1  0.92582361  0.59323246  0.05778218  1
  Se  Se148  1  0.90982067  0.57793734  0.54980072  1
  Se  Se149  1  0.90861173  0.91148486  0.04857348  1
  Se  Se150  1  0.91699524  0.91667300  0.55452983  1
  Se  Se151  1  0.08848141  0.25390888  0.44776673  1
  Se  Se152  1  0.07571296  0.25855113  0.94451526  1
  Se  Se153  1  0.07466197  0.59105712  0.44470902  1
  Se  Se154  1  0.09580619  0.58231685  0.94731083  1
  Se  Se155  1  0.07346492  0.92238350  0.43813514  1
  Se  Se156  1  0.07581210  0.91674288  0.93482955  1
  Se  Se157  1  0.42119903  0.24962084  0.44367289  1
  Se  Se158  1  0.40466485  0.26642194  0.94360595  1
  Se  Se159  1  0.41551285  0.57795855  0.44489143  1
  Se  Se160  1  0.44012485  0.57006737  0.94610292  1
  Se  Se161  1  0.41491815  0.91128632  0.45061755  1
  Se  Se162  1  0.41911541  0.91815741  0.93537637  1
  Se  Se163  1  0.75529417  0.24991382  0.45135708  1
  Se  Se164  1  0.73435697  0.25764617  0.94433162  1
  Se  Se165  1  0.74385951  0.58124337  0.44881191  1
  Se  Se166  1  0.74430610  0.58731683  0.93419496  1
  Se  Se167  1  0.74578682  0.91384773  0.44743349  1
  Se  Se168  1  0.75416747  0.90911196  0.93951552  1
  Se  Se169  1  0.25128208  0.08353518  0.45229458  1
  Se  Se170  1  0.25116188  0.07565585  0.93280243  1
  Se  Se171  1  0.26314896  0.41771448  0.42932138  1
  Se  Se172  1  0.24815276  0.41911488  0.95768533  1
  Se  Se173  1  0.25245975  0.74109248  0.44358482  1
  Se  Se174  1  0.26618025  0.74433993  0.94102475  1
  Se  Se175  1  0.58312832  0.08199686  0.45522020  1
  Se  Se176  1  0.58819681  0.07487283  0.93469192  1
  Se  Se177  1  0.58061130  0.41789545  0.44478512  1
  Se  Se178  1  0.57956610  0.42431318  0.94613078  1
  Se  Se179  1  0.57886212  0.74831034  0.44738832  1
  Se  Se180  1  0.59178173  0.74354937  0.93907268  1
  Se  Se181  1  0.91489485  0.08540225  0.45198570  1
  Se  Se182  1  0.91473987  0.07799200  0.93265657  1
  Se  Se183  1  0.91930703  0.41852943  0.44976352  1
  Se  Se184  1  0.92223305  0.41073456  0.94005883  1
  Se  Se185  1  0.91627115  0.74961681  0.45628429  1
  Se  Se186  1  0.92537602  0.73977610  0.94172634  1
  Se  Se187  1  0.25557448  0.24804456  0.30463286  1
  Se  Se188  1  0.23919469  0.24255227  0.80499615  1
  Se  Se189  1  0.25080035  0.58699669  0.30017137  1
  Se  Se190  1  0.25577385  0.58181988  0.81017728  1
  Se  Se191  1  0.24653962  0.90929357  0.30714989  1
  Se  Se192  1  0.25963140  0.92307523  0.79523005  1
  Se  Se193  1  0.59148029  0.24949239  0.30971210  1
  Se  Se194  1  0.57415449  0.25018905  0.80236818  1
  Se  Se195  1  0.58929747  0.58999680  0.30363220  1
  Se  Se196  1  0.58679292  0.58617567  0.79713401  1
  Se  Se197  1  0.57735073  0.90914543  0.30805722  1
  Se  Se198  1  0.58962467  0.91746820  0.79662097  1
  Se  Se199  1  0.92165230  0.25524427  0.31047678  1
  Se  Se200  1  0.90434765  0.24166495  0.81046755  1
  Se  Se201  1  0.91282855  0.58412083  0.31977526  1
  Se  Se202  1  0.91388107  0.57967326  0.80147329  1
  Se  Se203  1  0.90341814  0.91288150  0.30515741  1
  Se  Se204  1  0.91657312  0.91223207  0.79576366  1
  Se  Se205  1  0.09160304  0.08953622  0.31396418  1
  Se  Se206  1  0.07717524  0.08017570  0.79534428  1
  Se  Se207  1  0.08378755  0.41365293  0.30320986  1
  Se  Se208  1  0.08922954  0.42065646  0.81312258  1
  Se  Se209  1  0.08636948  0.76070620  0.31148829  1
  Se  Se210  1  0.09424336  0.75432771  0.80202901  1
  Se  Se211  1  0.42619817  0.08005591  0.31599869  1
  Se  Se212  1  0.41248360  0.08663847  0.79609263  1
  Se  Se213  1  0.42234421  0.41084102  0.29831798  1
  Se  Se214  1  0.41765712  0.43013603  0.81016042  1
  Se  Se215  1  0.41597509  0.74364482  0.30716541  1
  Se  Se216  1  0.42229222  0.75005307  0.79985561  1
  Se  Se217  1  0.75372084  0.08823268  0.31672790  1
  Se  Se218  1  0.74601081  0.08188942  0.79657069  1
  Se  Se219  1  0.75153416  0.41686495  0.31198670  1
  Se  Se220  1  0.74441816  0.41310350  0.79790991  1
  Se  Se221  1  0.75699371  0.75276616  0.30592193  1
  Se  Se222  1  0.74869149  0.74692887  0.79658164  1
  Se  Se223  1  0.24315010  0.09047636  0.18610816  1
  Se  Se224  1  0.25452391  0.08457972  0.69053016  1
  Se  Se225  1  0.24929058  0.41580491  0.19591126  1
  Se  Se226  1  0.24357705  0.42705701  0.69350940  1
  Se  Se227  1  0.24560130  0.74942418  0.20430673  1
  Se  Se228  1  0.25719547  0.74686001  0.69806196  1
  Se  Se229  1  0.57451334  0.09277140  0.19181128  1
  Se  Se230  1  0.58420880  0.08291559  0.69229462  1
  Se  Se231  1  0.60994925  0.38809720  0.19236920  1
  Se  Se232  1  0.58210569  0.41518600  0.69450058  1
  Se  Se233  1  0.58354531  0.74661569  0.19583777  1
  Se  Se234  1  0.58578308  0.74526292  0.69147903  1
  Se  Se235  1  0.90567583  0.09408438  0.19452372  1
  Se  Se236  1  0.91826668  0.08046964  0.69401338  1
  Se  Se237  1  0.91876298  0.41907396  0.20751825  1
  Se  Se238  1  0.91075810  0.41939097  0.68804184  1
  Se  Se239  1  0.91149029  0.75996912  0.18989924  1
  Se  Se240  1  0.91563152  0.74409871  0.69008654  1
  Se  Se241  1  0.07865002  0.24889040  0.20132072  1
  Se  Se242  1  0.08662897  0.24708272  0.68643979  1
  Se  Se243  1  0.08657732  0.57665624  0.19279326  1
  Se  Se244  1  0.08153624  0.58671945  0.70178158  1
  Se  Se245  1  0.09384677  0.90949442  0.19459557  1
  Se  Se246  1  0.08361584  0.91623664  0.69535615  1
  Se  Se247  1  0.41593122  0.24696647  0.20747544  1
  Se  Se248  1  0.42141546  0.24927644  0.68144343  1
  Se  Se249  1  0.42077219  0.57376286  0.19570152  1
  Se  Se250  1  0.41565425  0.58754339  0.69444592  1
  Se  Se251  1  0.42267436  0.90399272  0.18773396  1
  Se  Se252  1  0.41960061  0.91556999  0.69325465  1
  Se  Se253  1  0.74877383  0.24749504  0.20341772  1
  Se  Se254  1  0.74716405  0.25063066  0.69361120  1
  Se  Se255  1  0.75883624  0.58780640  0.20222159  1
  Se  Se256  1  0.74800298  0.58511803  0.69337432  1
  Se  Se257  1  0.75585636  0.91254640  0.18940542  1
  Se  Se258  1  0.74752173  0.91606014  0.69268712  1
