# generated using pymatgen
data_In86Cu29Se144
_symmetry_space_group_name_H-M   'P 1'
_cell_length_a   17.58814367
_cell_length_b   17.58808508
_cell_length_c   23.44336587
_cell_angle_alpha   90.00388241
_cell_angle_beta   89.96771404
_cell_angle_gamma   89.99267719
_symmetry_Int_Tables_number   1
_chemical_formula_structural   In86Cu29Se144
_chemical_formula_sum   'In86 Cu29 Se144'
_cell_volume   7252.01099870
_cell_formula_units_Z   1
loop_
 _symmetry_equiv_pos_site_id
 _symmetry_equiv_pos_as_xyz
  1  'x, y, z'
loop_
 _atom_site_type_symbol
 _atom_site_label
 _atom_site_symmetry_multiplicity
 _atom_site_fract_x
 _atom_site_fract_y
 _atom_site_fract_z
 _atom_site_occupancy
  In  In0  1  -0.01113931  0.16154570  0.12036929  1
  In  In1  1  -0.01484428  0.18110776  0.63748305  1
  In  In2  1  -0.00129801  0.50698899  0.13020228  1
  In  In3  1  -0.03824918  0.45971210  0.58516590  1
  In  In4  1  -0.01268944  0.84004490  0.13261764  1
  In  In5  1  -0.00171897  0.84801115  0.63122546  1
  In  In6  1  0.32394305  0.17645650  0.13651485  1
  In  In7  1  0.33941126  0.16399088  0.61170337  1
  In  In8  1  0.34279199  0.48882372  0.13656545  1
  In  In9  1  0.33419987  0.48448249  0.60194856  1
  In  In10  1  0.33868313  0.82647875  0.13173208  1
  In  In11  1  0.33197112  0.85007529  0.62337602  1
  In  In12  1  0.67556016  0.16182076  0.13302149  1
  In  In13  1  0.68453972  0.16446090  0.61175044  1
  In  In14  1  0.65781097  0.49334037  0.12547083  1
  In  In15  1  0.65290442  0.48070784  0.60284240  1
  In  In16  1  0.67941144  0.84334030  0.11895522  1
  In  In17  1  0.66839640  0.82234119  0.62391651  1
  In  In18  1  0.16601657  0.01794421  0.35149403  1
  In  In19  1  0.16847856  0.01591570  0.88074573  1
  In  In20  1  0.18528063  0.32782202  0.37810824  1
  In  In21  1  0.15147665  0.33222081  0.87265511  1
  In  In22  1  0.16155234  0.65985232  0.36739022  1
  In  In23  1  0.17358251  0.66269402  0.87830034  1
  In  In24  1  0.51785684  0.02021457  0.36032812  1
  In  In25  1  0.49339457  -0.00034439  0.87722921  1
  In  In26  1  0.49417368  0.32795537  0.38450594  1
  In  In27  1  0.52056996  0.33109327  0.87213964  1
  In  In28  1  0.48928696  0.66413670  0.36849609  1
  In  In29  1  0.49992910  0.66538631  0.88302121  1
  In  In30  1  0.83328769  0.00291594  0.37993541  1
  In  In31  1  0.84107637  -0.00657173  0.87887382  1
  In  In32  1  0.82504356  0.33579150  0.39670023  1
  In  In33  1  0.83170756  0.33069884  0.87556935  1
  In  In34  1  0.84213048  0.66412979  0.37797122  1
  In  In35  1  0.82914664  0.66857818  0.88527721  1
  In  In36  1  0.00323225  0.15743952  0.37409126  1
  In  In37  1  -0.00216598  0.16570708  0.87563848  1
  In  In38  1  -0.01013646  0.50430840  0.38607424  1
  In  In39  1  -0.00781905  0.48466642  0.87085615  1
  In  In40  1  -0.00339345  0.83560316  0.36752399  1
  In  In41  1  -0.01412807  0.83170911  0.87624086  1
  In  In42  1  0.34564840  0.19017081  0.35254408  1
  In  In43  1  0.33456486  0.15422210  0.87910344  1
  In  In44  1  0.33509718  0.49775911  0.37915502  1
  In  In45  1  0.33375711  0.50755512  0.87654592  1
  In  In46  1  0.33455572  0.83401822  0.36183572  1
  In  In47  1  0.34067715  0.84341132  0.88394511  1
  In  In48  1  0.66385988  0.16355110  0.38605297  1
  In  In49  1  0.66444913  0.18921454  0.86991239  1
  In  In50  1  0.67202027  0.48180674  0.39106194  1
  In  In51  1  0.67529107  0.49375148  0.87802084  1
  In  In52  1  0.67164663  0.85472809  0.37939091  1
  In  In53  1  0.66493698  0.83777735  0.88330650  1
  In  In54  1  0.15010038  0.01774493  0.13979284  1
  In  In55  1  0.16425487  -0.00780234  0.62290056  1
  In  In56  1  0.17780590  0.33805728  0.12837995  1
  In  In57  1  0.14698374  0.32740650  0.61425683  1
  In  In58  1  0.16741401  0.66158318  0.13587770  1
  In  In59  1  0.17372178  0.65386669  0.62659995  1
  In  In60  1  0.50931447  -0.00368584  0.13248592  1
  In  In61  1  0.49888574  0.00251947  0.61934787  1
  In  In62  1  0.50013759  0.34012813  0.13181277  1
  In  In63  1  0.50977342  0.32969357  0.61320980  1
  In  In64  1  0.49426145  0.65945592  0.12409989  1
  In  In65  1  0.50980034  0.66151497  0.62701002  1
  In  In66  1  0.83412163  0.00402598  0.12759711  1
  In  In67  1  0.84470228  0.01437688  0.61049112  1
  In  In68  1  0.82546102  0.32306995  0.12351721  1
  In  In69  1  0.82934014  0.32484780  0.61920335  1
  In  In70  1  0.83682873  0.66925247  0.12597428  1
  In  In71  1  0.82829770  0.65970637  0.61943469  1
  In  In72  1  0.33466433  0.66572499  0.75483664  1
  In  In73  1  -0.00106493  0.65927931  0.75254350  1
  In  In74  1  0.50254836  0.16575401  -0.00230343  1
  In  In75  1  0.33742951  0.33159173  0.74279485  1
  In  In76  1  0.66970439  0.00549872  0.74415576  1
  In  In77  1  0.33738987  0.00735344  0.74969637  1
  In  In78  1  0.00223115  0.32998023  0.25796989  1
  In  In79  1  0.49991779  0.82893654  0.49870058  1
  In  In80  1  0.16706490  0.83853145  0.01206165  1
  In  In81  1  0.66733371  0.66488104  0.24906218  1
  In  In82  1  0.16457070  0.49724104  -0.00087321  1
  In  In83  1  0.66897942  0.66150042  0.74530725  1
  In  In84  1  0.16814648  0.16626274  0.49323278  1
  In  In85  1  0.15423686  0.83336250  0.49085305  1
  Cu  Cu86  1  0.16162742  0.16709750  0.75150812  1
  Cu  Cu87  1  0.34099042  0.00444213  0.48692767  1
  Cu  Cu88  1  0.83051626  0.83910073  0.24932405  1
  Cu  Cu89  1  0.83641294  0.16883453  0.74885218  1
  Cu  Cu90  1  0.50275233  0.49690628  0.74137725  1
  Cu  Cu91  1  -0.00236914  0.00461651  0.49796118  1
  Cu  Cu92  1  0.66836525  0.33576100  0.00041969  1
  Cu  Cu93  1  0.33673104  0.00065895  0.00810416  1
  Cu  Cu94  1  0.83077349  0.49199821  0.26386371  1
  Cu  Cu95  1  0.33829230  0.33294491  0.00847501  1
  Cu  Cu96  1  -0.00592108  0.32749103  -0.00303040  1
  Cu  Cu97  1  -0.00788109  0.66586876  0.00427512  1
  Cu  Cu98  1  0.83238353  0.83978605  0.75067441  1
  Cu  Cu99  1  0.33179965  0.66652962  0.49722707  1
  Cu  Cu100  1  0.34112406  0.66198024  0.00738625  1
  Cu  Cu101  1  0.67210849  0.66951675  0.49537852  1
  Cu  Cu102  1  0.00471288  0.67707833  0.49678735  1
  Cu  Cu103  1  0.66388099  0.66486865  0.00467121  1
  Cu  Cu104  1  0.16402783  0.83755964  0.74932307  1
  Cu  Cu105  1  0.67304917  0.00276739  0.00484771  1
  Cu  Cu106  1  0.17114812  0.49954490  0.25467737  1
  Cu  Cu107  1  0.83186449  0.48389224  0.74329321  1
  Cu  Cu108  1  -0.00102861  0.00036917  0.00584975  1
  Cu  Cu109  1  0.15261544  0.49042738  0.73790285  1
  Cu  Cu110  1  0.50305679  0.17127822  0.25191741  1
  Cu  Cu111  1  0.82308264  0.17047385  0.25522283  1
  Cu  Cu112  1  0.50500030  0.49029104  0.25557959  1
  Cu  Cu113  1  0.16389823  0.83107060  0.24782548  1
  Cu  Cu114  1  0.50415485  0.83416746  0.25048893  1
  Se  Se115  1  0.08414095  0.08517988  0.05482652  1
  Se  Se116  1  0.07940591  0.08196385  0.56017868  1
  Se  Se117  1  0.07362638  0.40826368  0.05928784  1
  Se  Se118  1  0.09831163  0.43290150  0.54891852  1
  Se  Se119  1  0.07629465  0.74108923  0.06426627  1
  Se  Se120  1  0.08114886  0.74812018  0.56690589  1
  Se  Se121  1  0.41566035  0.08520040  0.06648811  1
  Se  Se122  1  0.42309839  0.08169354  0.54474294  1
  Se  Se123  1  0.42054279  0.41903914  0.05752732  1
  Se  Se124  1  0.43859272  0.42042463  0.54247672  1
  Se  Se125  1  0.42026320  0.75272059  0.05643064  1
  Se  Se126  1  0.40611979  0.74399021  0.56382471  1
  Se  Se127  1  0.75365038  0.08879136  0.05654354  1
  Se  Se128  1  0.74460081  0.06641026  0.54175738  1
  Se  Se129  1  0.74872663  0.41669106  0.05822743  1
  Se  Se130  1  0.77267688  0.43192112  0.55276958  1
  Se  Se131  1  0.75135764  0.74598354  0.05560197  1
  Se  Se132  1  0.75293674  0.75015609  0.55202256  1
  Se  Se133  1  0.25073120  0.25138633  0.05653348  1
  Se  Se134  1  0.25689448  0.26031261  0.55318903  1
  Se  Se135  1  0.25527541  0.58191210  0.06265953  1
  Se  Se136  1  0.24859891  0.58258814  0.54881300  1
  Se  Se137  1  0.25423098  0.92776930  0.07156785  1
  Se  Se138  1  0.25565420  0.92632819  0.54448638  1
  Se  Se139  1  0.58848237  0.25369565  0.06151163  1
  Se  Se140  1  0.60156468  0.25286705  0.54566779  1
  Se  Se141  1  0.58096566  0.58011761  0.05625468  1
  Se  Se142  1  0.58326287  0.59078291  0.54918730  1
  Se  Se143  1  0.58512412  0.92097650  0.05477632  1
  Se  Se144  1  0.59105827  0.91698501  0.55678622  1
  Se  Se145  1  0.90952717  0.24707863  0.05157139  1
  Se  Se146  1  0.91948914  0.24317497  0.55347631  1
  Se  Se147  1  0.91391351  0.57835819  0.05728238  1
  Se  Se148  1  0.92029731  0.59384627  0.54908581  1
  Se  Se149  1  0.91339925  0.91721173  0.05658300  1
  Se  Se150  1  0.92250157  0.91270396  0.55123029  1
  Se  Se151  1  0.07541688  0.25905834  0.43925732  1
  Se  Se152  1  0.08329157  0.24734653  0.94636702  1
  Se  Se153  1  0.08425898  0.58958476  0.44524439  1
  Se  Se154  1  0.07105353  0.58895866  0.93995288  1
  Se  Se155  1  0.08075469  0.93588869  0.43201304  1
  Se  Se156  1  0.07906929  0.91959988  0.94317916  1
  Se  Se157  1  0.40031074  0.24368166  0.44445500  1
  Se  Se158  1  0.41286627  0.25983007  0.93796883  1
  Se  Se159  1  0.41941764  0.58666263  0.44582078  1
  Se  Se160  1  0.41789553  0.57841240  0.94898106  1
  Se  Se161  1  0.41931069  0.91727913  0.43164424  1
  Se  Se162  1  0.42267824  0.92010405  0.95488625  1
  Se  Se163  1  0.72239008  0.26460603  0.45807012  1
  Se  Se164  1  0.74900733  0.24943235  0.94768667  1
  Se  Se165  1  0.75479421  0.58322586  0.44491235  1
  Se  Se166  1  0.74685662  0.58229056  0.94912645  1
  Se  Se167  1  0.75832304  0.91743195  0.45286655  1
  Se  Se168  1  0.75329936  0.91723483  0.94840228  1
  Se  Se169  1  0.25538663  0.08012721  0.42925350  1
  Se  Se170  1  0.25367256  0.08460999  0.95514383  1
  Se  Se171  1  0.24792043  0.42071367  0.44803603  1
  Se  Se172  1  0.25678077  0.40547154  0.93981618  1
  Se  Se173  1  0.25532038  0.74843616  0.43801420  1
  Se  Se174  1  0.25823028  0.74359701  0.94898214  1
  Se  Se175  1  0.57918310  0.07391405  0.44972255  1
  Se  Se176  1  0.59649868  0.07868574  0.93759868  1
  Se  Se177  1  0.56325548  0.42523294  0.45300841  1
  Se  Se178  1  0.58368005  0.41818508  0.94694575  1
  Se  Se179  1  0.58974124  0.74364632  0.43343487  1
  Se  Se180  1  0.58359802  0.74963005  0.94844063  1
  Se  Se181  1  0.91495643  0.09139924  0.44798438  1
  Se  Se182  1  0.91848149  0.08162902  0.94686317  1
  Se  Se183  1  0.92112343  0.41465296  0.45697582  1
  Se  Se184  1  0.91210430  0.41628621  0.94691464  1
  Se  Se185  1  0.92015051  0.75783922  0.44319670  1
  Se  Se186  1  0.91277322  0.75348642  0.95147411  1
  Se  Se187  1  0.22899368  0.23932259  0.29735588  1
  Se  Se188  1  0.24900807  0.24351993  0.80968508  1
  Se  Se189  1  0.25775748  0.58321468  0.30579537  1
  Se  Se190  1  0.23291317  0.56729905  0.80147518  1
  Se  Se191  1  0.24743819  0.91685693  0.29789042  1
  Se  Se192  1  0.24708616  0.91390281  0.81137417  1
  Se  Se193  1  0.58056478  0.24716266  0.31560378  1
  Se  Se194  1  0.58466611  0.25514280  0.79314391  1
  Se  Se195  1  0.58728756  0.57198821  0.31407961  1
  Se  Se196  1  0.57565613  0.57678560  0.80700258  1
  Se  Se197  1  0.59029181  0.91806988  0.30024372  1
  Se  Se198  1  0.58069711  0.91578926  0.80822991  1
  Se  Se199  1  0.90324702  0.24864491  0.31728016  1
  Se  Se200  1  0.91740174  0.25045640  0.80608110  1
  Se  Se201  1  0.91862474  0.57991339  0.30606772  1
  Se  Se202  1  0.89811370  0.57364313  0.80756254  1
  Se  Se203  1  0.91251904  0.92343951  0.30426100  1
  Se  Se204  1  0.92057564  0.91872207  0.80183682  1
  Se  Se205  1  0.06924526  0.09021601  0.29015871  1
  Se  Se206  1  0.08322725  0.08182137  0.80609637  1
  Se  Se207  1  0.08770197  0.42395814  0.31708454  1
  Se  Se208  1  0.07512173  0.41097584  0.79839587  1
  Se  Se209  1  0.08089538  0.74930119  0.30293707  1
  Se  Se210  1  0.09216822  0.75430629  0.81142830  1
  Se  Se211  1  0.41427944  0.08175172  0.29657775  1
  Se  Se212  1  0.43270298  0.09918832  0.80388590  1
  Se  Se213  1  0.41777251  0.41289615  0.31039356  1
  Se  Se214  1  0.42060200  0.42461321  0.80691977  1
  Se  Se215  1  0.41727659  0.74773077  0.29571862  1
  Se  Se216  1  0.42272309  0.75901091  0.81195977  1
  Se  Se217  1  0.74623997  0.08532802  0.31260729  1
  Se  Se218  1  0.75650899  0.08906503  0.81191192  1
  Se  Se219  1  0.75009340  0.40683104  0.31525428  1
  Se  Se220  1  0.74672080  0.41036856  0.80368974  1
  Se  Se221  1  0.75309002  0.75654828  0.31126333  1
  Se  Se222  1  0.75452844  0.75665028  0.80884928  1
  Se  Se223  1  0.25864428  0.07556252  0.19926362  1
  Se  Se224  1  0.24424819  0.09392604  0.68757284  1
  Se  Se225  1  0.25349790  0.41278320  0.20443439  1
  Se  Se226  1  0.24570783  0.41867346  0.68242452  1
  Se  Se227  1  0.25139141  0.74674802  0.19969653  1
  Se  Se228  1  0.24659952  0.76014634  0.69132862  1
  Se  Se229  1  0.58607814  0.08511845  0.20026208  1
  Se  Se230  1  0.58208487  0.09337723  0.68293466  1
  Se  Se231  1  0.59126077  0.41049090  0.20273380  1
  Se  Se232  1  0.58411021  0.41453104  0.68733582  1
  Se  Se233  1  0.58342357  0.75618900  0.18650417  1
  Se  Se234  1  0.57215649  0.75962173  0.69867217  1
  Se  Se235  1  0.90868034  0.09273122  0.19849727  1
  Se  Se236  1  0.91439834  0.07731331  0.69676534  1
  Se  Se237  1  0.91020798  0.41686822  0.19585500  1
  Se  Se238  1  0.91841079  0.41080843  0.68538321  1
  Se  Se239  1  0.91299242  0.74830717  0.20066225  1
  Se  Se240  1  0.90932085  0.75175387  0.69277327  1
  Se  Se241  1  0.08186821  0.24940814  0.18528084  1
  Se  Se242  1  0.08382084  0.25547491  0.69887480  1
  Se  Se243  1  0.08302715  0.57933353  0.20276205  1
  Se  Se244  1  0.07378597  0.57260049  0.68237526  1
  Se  Se245  1  0.07756681  0.91583340  0.19908460  1
  Se  Se246  1  0.08333408  0.92567605  0.70079999  1
  Se  Se247  1  0.41853755  0.25462895  0.19901615  1
  Se  Se248  1  0.42534390  0.24006751  0.68484951  1
  Se  Se249  1  0.42529240  0.57760416  0.20112048  1
  Se  Se250  1  0.41342845  0.57399145  0.68626678  1
  Se  Se251  1  0.41900501  0.91613843  0.19758700  1
  Se  Se252  1  0.42873958  0.91023886  0.69535136  1
  Se  Se253  1  0.74408751  0.25691141  0.20193681  1
  Se  Se254  1  0.75040957  0.24360170  0.69172087  1
  Se  Se255  1  0.75873412  0.57039354  0.19506671  1
  Se  Se256  1  0.75005759  0.56500820  0.68566353  1
  Se  Se257  1  0.74807027  0.92232888  0.19663449  1
  Se  Se258  1  0.75799734  0.91402387  0.68426699  1
