# generated using pymatgen
data_In86Cu29Se144
_symmetry_space_group_name_H-M   'P 1'
_cell_length_a   17.56987790
_cell_length_b   17.57126697
_cell_length_c   23.41961941
_cell_angle_alpha   90.01409590
_cell_angle_beta   90.00086366
_cell_angle_gamma   90.00415642
_symmetry_Int_Tables_number   1
_chemical_formula_structural   In86Cu29Se144
_chemical_formula_sum   'In86 Cu29 Se144'
_cell_volume   7230.22212400
_cell_formula_units_Z   1
loop_
 _symmetry_equiv_pos_site_id
 _symmetry_equiv_pos_as_xyz
  1  'x, y, z'
loop_
 _atom_site_type_symbol
 _atom_site_label
 _atom_site_symmetry_multiplicity
 _atom_site_fract_x
 _atom_site_fract_y
 _atom_site_fract_z
 _atom_site_occupancy
  In  In0  1  -0.04545549  0.20026627  0.17988298  1
  In  In1  1  0.00854703  0.16936985  0.60688578  1
  In  In2  1  -0.01418924  0.50655288  0.12261112  1
  In  In3  1  -0.00369932  0.49463799  0.62605544  1
  In  In4  1  -0.00879483  0.84860743  0.13304632  1
  In  In5  1  -0.01604468  0.83656898  0.62018675  1
  In  In6  1  0.34572281  0.17210367  0.13079806  1
  In  In7  1  0.33030744  0.16984868  0.62233578  1
  In  In8  1  0.36097686  0.47690433  0.14704819  1
  In  In9  1  0.31651260  0.49860346  0.62298065  1
  In  In10  1  0.32001698  0.82557553  0.13067898  1
  In  In11  1  0.35439526  0.83157509  0.62183449  1
  In  In12  1  0.67556774  0.16404573  0.15157205  1
  In  In13  1  0.66274321  0.15415050  0.59867948  1
  In  In14  1  0.67679355  0.49611466  0.13003112  1
  In  In15  1  0.68333518  0.50047155  0.62308786  1
  In  In16  1  0.66961018  0.82667171  0.12683917  1
  In  In17  1  0.66228446  0.83420544  0.61614226  1
  In  In18  1  0.16078661  0.03003492  0.37661803  1
  In  In19  1  0.16961055  -0.01580638  0.86856306  1
  In  In20  1  0.16875509  0.32481387  0.36693973  1
  In  In21  1  0.16360526  0.33007244  0.86943033  1
  In  In22  1  0.16120429  0.65284285  0.37849574  1
  In  In23  1  0.16562593  0.68042469  0.87013597  1
  In  In24  1  0.52374910  -0.01211149  0.39449564  1
  In  In25  1  0.49787018  0.01412601  0.87358293  1
  In  In26  1  0.48698434  0.32867264  0.36288155  1
  In  In27  1  0.49923583  0.34483260  0.87134993  1
  In  In28  1  0.51247733  0.67064116  0.36075132  1
  In  In29  1  0.49852962  0.65347304  0.87785518  1
  In  In30  1  0.82960183  0.00536187  0.37333013  1
  In  In31  1  0.82222363  -0.01144268  0.87570595  1
  In  In32  1  0.83928777  0.33321584  0.37230386  1
  In  In33  1  0.84349556  0.32907175  0.87264657  1
  In  In34  1  0.82281496  0.67236808  0.38122845  1
  In  In35  1  0.82920444  0.66673651  0.87245889  1
  In  In36  1  -0.00621136  0.16811290  0.36922781  1
  In  In37  1  -0.01209050  0.17865048  0.86888200  1
  In  In38  1  0.01393085  0.48484117  0.38291868  1
  In  In39  1  -0.00898380  0.49562022  0.86894450  1
  In  In40  1  -0.02873605  0.84085488  0.38713660  1
  In  In41  1  -0.00172071  0.82455609  0.87107282  1
  In  In42  1  0.32783081  0.17688644  0.38310655  1
  In  In43  1  0.33136978  0.16503625  0.86297091  1
  In  In44  1  0.32655843  0.48870751  0.36319747  1
  In  In45  1  0.34875499  0.50185776  0.87628564  1
  In  In46  1  0.35173581  0.84121083  0.37669682  1
  In  In47  1  0.32312814  0.83153036  0.86950493  1
  In  In48  1  0.67084853  0.16544787  0.37405320  1
  In  In49  1  0.67078997  0.16610786  0.87578922  1
  In  In50  1  0.66701403  0.50965195  0.36212251  1
  In  In51  1  0.65055079  0.50403180  0.88157927  1
  In  In52  1  0.67166808  0.83371592  0.37379913  1
  In  In53  1  0.69200132  0.83506947  0.88214950  1
  In  In54  1  0.15138914  -0.00353091  0.13268809  1
  In  In55  1  0.16295623  0.02497132  0.61418347  1
  In  In56  1  0.15643123  0.32275759  0.14285778  1
  In  In57  1  0.16102288  0.33148300  0.62292985  1
  In  In58  1  0.17490914  0.67671789  0.12980775  1
  In  In59  1  0.16869459  0.64512886  0.62124959  1
  In  In60  1  0.50351297  0.01155741  0.12934242  1
  In  In61  1  0.50039547  -0.00847530  0.61518713  1
  In  In62  1  0.50852249  0.33596653  0.13888138  1
  In  In63  1  0.49963922  0.32110013  0.62184329  1
  In  In64  1  0.52961441  0.62652739  0.16093783  1
  In  In65  1  0.50550138  0.68011909  0.62335454  1
  In  In66  1  0.83419787  -0.00012255  0.13313336  1
  In  In67  1  0.83202845  -0.00636881  0.59158583  1
  In  In68  1  0.81518001  0.35035442  0.15163843  1
  In  In69  1  0.84004342  0.33963013  0.61683330  1
  In  In70  1  0.82186953  0.65352568  0.11546376  1
  In  In71  1  0.83308443  0.66685630  0.62728792  1
  In  In72  1  0.50095651  0.83044150  0.01086371  1
  In  In73  1  0.33579915  0.00706197  0.25820576  1
  In  In74  1  -0.00230590  0.66804761  0.25377757  1
  In  In75  1  0.51215531  0.18058645  0.00785776  1
  In  In76  1  0.16448967  0.50328424  -0.00178669  1
  In  In77  1  0.16764656  0.83219519  0.50080749  1
  In  In78  1  0.33128945  0.66229321  0.75043769  1
  In  In79  1  0.66974365  0.33230933  0.74829917  1
  In  In80  1  0.16073543  0.82990127  -0.00267665  1
  In  In81  1  0.49987179  0.49799542  0.48898483  1
  In  In82  1  0.16107375  0.15945918  0.01485729  1
  In  In83  1  0.66528940  -0.00550497  0.74322432  1
  In  In84  1  0.83177925  0.17391388  0.01110337  1
  In  In85  1  0.00317758  0.01304758  0.73634460  1
  Cu  Cu86  1  -0.01138042  0.67192825  -0.00310988  1
  Cu  Cu87  1  0.34451896  0.65419568  0.01123148  1
  Cu  Cu88  1  -0.00523560  0.65488177  0.50172643  1
  Cu  Cu89  1  0.50309092  0.83827540  0.25386348  1
  Cu  Cu90  1  0.66495373  0.66303011  0.00559514  1
  Cu  Cu91  1  -0.01242335  0.00697370  0.00992109  1
  Cu  Cu92  1  0.83922501  0.50300107  0.25421839  1
  Cu  Cu93  1  0.83526831  0.83228757  0.74529917  1
  Cu  Cu94  1  0.83477022  0.50556177  0.74950652  1
  Cu  Cu95  1  0.50860997  0.83809865  0.74663052  1
  Cu  Cu96  1  0.15817987  0.49128893  0.74716035  1
  Cu  Cu97  1  0.16158956  0.83617512  0.26366175  1
  Cu  Cu98  1  0.49029837  0.16302309  0.74336395  1
  Cu  Cu99  1  0.49940905  0.50044332  0.74934112  1
  Cu  Cu100  1  -0.00122802  0.33232082  0.49544896  1
  Cu  Cu101  1  0.17037474  0.49956368  0.25305796  1
  Cu  Cu102  1  0.16672685  0.17264472  0.74230428  1
  Cu  Cu103  1  0.32446272  0.33686140  0.49574023  1
  Cu  Cu104  1  0.67333714  0.33246267  0.49285293  1
  Cu  Cu105  1  0.32984401  -0.00242379  -0.00689455  1
  Cu  Cu106  1  0.66705482  0.66797004  0.49513503  1
  Cu  Cu107  1  0.82332999  0.83015630  0.25412832  1
  Cu  Cu108  1  0.50153285  0.16477670  0.26200211  1
  Cu  Cu109  1  0.33887575  0.66475077  0.49675619  1
  Cu  Cu110  1  -0.00425786  0.33375081  0.00372290  1
  Cu  Cu111  1  0.17039748  0.83587501  0.74130444  1
  Cu  Cu112  1  0.83259209  0.16883734  0.73480674  1
  Cu  Cu113  1  0.34335440  0.33790165  0.00552050  1
  Cu  Cu114  1  0.33693904  0.00688102  0.49908941  1
  Se  Se115  1  0.06026652  0.08523906  0.07345542  1
  Se  Se116  1  0.07019950  0.07177501  0.53819641  1
  Se  Se117  1  0.08219735  0.40907394  0.06355087  1
  Se  Se118  1  0.07887357  0.41474859  0.55410170  1
  Se  Se119  1  0.07012956  0.74534351  0.06223710  1
  Se  Se120  1  0.07904803  0.73785557  0.55994324  1
  Se  Se121  1  0.41013884  0.07898833  0.05305275  1
  Se  Se122  1  0.41882360  0.08819501  0.55642564  1
  Se  Se123  1  0.42912456  0.41312652  0.06150184  1
  Se  Se124  1  0.40984375  0.41383891  0.55662179  1
  Se  Se125  1  0.41456541  0.74175165  0.07113048  1
  Se  Se126  1  0.42342682  0.74803754  0.54686924  1
  Se  Se127  1  0.74021250  0.08310981  0.06687702  1
  Se  Se128  1  0.74427934  0.07565518  0.53045987  1
  Se  Se129  1  0.76433504  0.41616087  0.06287327  1
  Se  Se130  1  0.75164059  0.41798482  0.54827031  1
  Se  Se131  1  0.74959158  0.75142511  0.05156136  1
  Se  Se132  1  0.74912303  0.74537641  0.55526461  1
  Se  Se133  1  0.25741132  0.25925062  0.06276972  1
  Se  Se134  1  0.24585175  0.25146693  0.55294346  1
  Se  Se135  1  0.25328940  0.58062346  0.06660589  1
  Se  Se136  1  0.25259313  0.57977962  0.54412906  1
  Se  Se137  1  0.24914097  0.92354668  0.05747124  1
  Se  Se138  1  0.25985662  0.92174781  0.56107758  1
  Se  Se139  1  0.60506849  0.25530037  0.07414260  1
  Se  Se140  1  0.58280302  0.25648432  0.54535201  1
  Se  Se141  1  0.58723935  0.58208670  0.06456220  1
  Se  Se142  1  0.58737434  0.58518483  0.55668959  1
  Se  Se143  1  0.58935026  0.92889601  0.06161108  1
  Se  Se144  1  0.59703512  0.92828558  0.54803333  1
  Se  Se145  1  0.92240925  0.25882344  0.07285269  1
  Se  Se146  1  0.91230185  0.24962859  0.54729934  1
  Se  Se147  1  0.91092009  0.57898913  0.04509464  1
  Se  Se148  1  0.91005746  0.57720721  0.55893710  1
  Se  Se149  1  0.90773194  0.91457659  0.05666392  1
  Se  Se150  1  0.93113120  0.91387499  0.53715798  1
  Se  Se151  1  0.08021951  0.25169811  0.43838382  1
  Se  Se152  1  0.07714072  0.25104804  0.94574945  1
  Se  Se153  1  0.08531734  0.57633777  0.45335184  1
  Se  Se154  1  0.07682525  0.59714441  0.93803129  1
  Se  Se155  1  0.08820694  0.91774607  0.43245553  1
  Se  Se156  1  0.06921988  0.92848864  0.94361416  1
  Se  Se157  1  0.41880502  0.25951838  0.44707518  1
  Se  Se158  1  0.40959480  0.24932080  0.94073001  1
  Se  Se159  1  0.41286587  0.58844924  0.42923464  1
  Se  Se160  1  0.42510332  0.57392928  0.95398559  1
  Se  Se161  1  0.42129746  0.91608146  0.45574246  1
  Se  Se162  1  0.41234713  0.91594703  0.93841905  1
  Se  Se163  1  0.75814295  0.24889077  0.44181774  1
  Se  Se164  1  0.74432487  0.25991673  0.94279601  1
  Se  Se165  1  0.74353140  0.57691407  0.44347097  1
  Se  Se166  1  0.74424108  0.58593382  0.94203169  1
  Se  Se167  1  0.76771397  0.90236987  0.43936725  1
  Se  Se168  1  0.74541839  0.92840425  0.95606049  1
  Se  Se169  1  0.24887855  0.09113656  0.45284236  1
  Se  Se170  1  0.24619669  0.08005204  0.93876948  1
  Se  Se171  1  0.24445741  0.41662105  0.43772688  1
  Se  Se172  1  0.25788260  0.40849120  0.94154831  1
  Se  Se173  1  0.25862124  0.74657908  0.43697396  1
  Se  Se174  1  0.26443583  0.73573092  0.94865286  1
  Se  Se175  1  0.57863549  0.10203544  0.44777909  1
  Se  Se176  1  0.59180693  0.07904251  0.94666759  1
  Se  Se177  1  0.59066402  0.40929954  0.43104373  1
  Se  Se178  1  0.58451293  0.40476748  0.94644876  1
  Se  Se179  1  0.58273463  0.74730809  0.43950598  1
  Se  Se180  1  0.58762973  0.74539992  0.94133640  1
  Se  Se181  1  0.92428876  0.07885483  0.44015486  1
  Se  Se182  1  0.91631206  0.08325825  0.93995789  1
  Se  Se183  1  0.91263279  0.41922123  0.44678542  1
  Se  Se184  1  0.91743195  0.41502677  0.94488474  1
  Se  Se185  1  0.91000745  0.74188778  0.45501125  1
  Se  Se186  1  0.90944659  0.75643245  0.94200067  1
  Se  Se187  1  0.26810676  0.25595629  0.30232901  1
  Se  Se188  1  0.24927695  0.25330419  0.79970320  1
  Se  Se189  1  0.24831301  0.58913891  0.30367480  1
  Se  Se190  1  0.23944012  0.57161714  0.81081203  1
  Se  Se191  1  0.24371888  0.91830021  0.31941171  1
  Se  Se192  1  0.25559834  0.91671116  0.79413592  1
  Se  Se193  1  0.58921854  0.25333048  0.30481943  1
  Se  Se194  1  0.57428853  0.23882640  0.80559008  1
  Se  Se195  1  0.57298981  0.57429020  0.29053159  1
  Se  Se196  1  0.58182954  0.58340336  0.80268202  1
  Se  Se197  1  0.58608724  0.92085364  0.30756712  1
  Se  Se198  1  0.58209839  0.91147874  0.81615445  1
  Se  Se199  1  0.92131062  0.25573163  0.29681578  1
  Se  Se200  1  0.91214129  0.25189442  0.79188997  1
  Se  Se201  1  0.91788119  0.57844038  0.31951286  1
  Se  Se202  1  0.91800309  0.58991730  0.80316606  1
  Se  Se203  1  0.91063420  0.91339812  0.30320225  1
  Se  Se204  1  0.91633617  0.91997298  0.80195138  1
  Se  Se205  1  0.08779117  0.09804322  0.29651546  1
  Se  Se206  1  0.09072371  0.09267323  0.80972164  1
  Se  Se207  1  0.08367294  0.41476812  0.30150059  1
  Se  Se208  1  0.07569571  0.40979177  0.80388015  1
  Se  Se209  1  0.07840713  0.75736005  0.32233846  1
  Se  Se210  1  0.08638281  0.75736103  0.79691653  1
  Se  Se211  1  0.42597010  0.08379368  0.32475300  1
  Se  Se212  1  0.41177799  0.07526572  0.79722392  1
  Se  Se213  1  0.42597870  0.42894733  0.29600712  1
  Se  Se214  1  0.41266819  0.41705346  0.79898012  1
  Se  Se215  1  0.41607663  0.75432543  0.30225434  1
  Se  Se216  1  0.42652535  0.75510707  0.80711527  1
  Se  Se217  1  0.75021844  0.08513372  0.30164963  1
  Se  Se218  1  0.75914994  0.08987973  0.80135453  1
  Se  Se219  1  0.75411643  0.41728226  0.30377140  1
  Se  Se220  1  0.75388270  0.42383057  0.81092955  1
  Se  Se221  1  0.74270463  0.73999245  0.30294443  1
  Se  Se222  1  0.74998312  0.75395226  0.80141772  1
  Se  Se223  1  0.24895790  0.08672936  0.18899046  1
  Se  Se224  1  0.24794189  0.08414870  0.69246762  1
  Se  Se225  1  0.24828575  0.41114596  0.19942697  1
  Se  Se226  1  0.24569459  0.41252320  0.69474110  1
  Se  Se227  1  0.24278049  0.75459393  0.20877756  1
  Se  Se228  1  0.24970666  0.75113678  0.68277061  1
  Se  Se229  1  0.58115858  0.07803487  0.20775398  1
  Se  Se230  1  0.58129010  0.09156522  0.68534434  1
  Se  Se231  1  0.58376758  0.42973080  0.20211816  1
  Se  Se232  1  0.57867674  0.42248213  0.68683423  1
  Se  Se233  1  0.58371902  0.75430527  0.19934505  1
  Se  Se234  1  0.59070619  0.75419920  0.69443894  1
  Se  Se235  1  0.92951819  0.05932104  0.20415657  1
  Se  Se236  1  0.90450318  0.08458232  0.67281384  1
  Se  Se237  1  0.92746545  0.42266302  0.20170466  1
  Se  Se238  1  0.91035624  0.41507175  0.69669518  1
  Se  Se239  1  0.90484913  0.75081011  0.19089586  1
  Se  Se240  1  0.92145105  0.74870071  0.69566961  1
  Se  Se241  1  0.09797409  0.22236813  0.20961250  1
  Se  Se242  1  0.07481480  0.24499633  0.68879140  1
  Se  Se243  1  0.08948964  0.57901242  0.19079255  1
  Se  Se244  1  0.08078179  0.58016977  0.69523831  1
  Se  Se245  1  0.07980416  0.91432571  0.20671839  1
  Se  Se246  1  0.09179522  0.91524689  0.67973414  1
  Se  Se247  1  0.42264416  0.24881426  0.20386183  1
  Se  Se248  1  0.41133093  0.25372056  0.69436641  1
  Se  Se249  1  0.38924334  0.60845810  0.18905497  1
  Se  Se250  1  0.42189560  0.57800646  0.68463874  1
  Se  Se251  1  0.41821207  0.91306773  0.19145076  1
  Se  Se252  1  0.42351903  0.91939295  0.69434736  1
  Se  Se253  1  0.78097289  0.23002885  0.21052798  1
  Se  Se254  1  0.74369886  0.24174991  0.67736887  1
  Se  Se255  1  0.75677603  0.58577279  0.19984289  1
  Se  Se256  1  0.74725544  0.58658760  0.69830701  1
  Se  Se257  1  0.74437561  0.91519370  0.19677019  1
  Se  Se258  1  0.76427634  0.91727934  0.68241546  1
