# generated using pymatgen
data_In86Cu29Se144
_symmetry_space_group_name_H-M   'P 1'
_cell_length_a   17.56573862
_cell_length_b   17.56876034
_cell_length_c   23.41869232
_cell_angle_alpha   89.98827714
_cell_angle_beta   89.99160372
_cell_angle_gamma   90.00365381
_symmetry_Int_Tables_number   1
_chemical_formula_structural   In86Cu29Se144
_chemical_formula_sum   'In86 Cu29 Se144'
_cell_volume   7227.20145995
_cell_formula_units_Z   1
loop_
 _symmetry_equiv_pos_site_id
 _symmetry_equiv_pos_as_xyz
  1  'x, y, z'
loop_
 _atom_site_type_symbol
 _atom_site_label
 _atom_site_symmetry_multiplicity
 _atom_site_fract_x
 _atom_site_fract_y
 _atom_site_fract_z
 _atom_site_occupancy
  In  In0  1  0.01702908  0.16530802  0.12029599  1
  In  In1  1  -0.00324159  0.16767383  0.63947283  1
  In  In2  1  -0.01120291  0.50214841  0.11819918  1
  In  In3  1  -0.00192555  0.49988097  0.63305514  1
  In  In4  1  0.00554473  0.83803984  0.10932229  1
  In  In5  1  -0.00366562  0.83698048  0.63865125  1
  In  In6  1  0.33321055  0.16199807  0.11779461  1
  In  In7  1  0.33917641  0.15801394  0.62967919  1
  In  In8  1  0.34230124  0.49086962  0.12811964  1
  In  In9  1  0.32589516  0.50450221  0.63573583  1
  In  In10  1  0.32838001  0.82822861  0.12427667  1
  In  In11  1  0.33765305  0.83285774  0.63870559  1
  In  In12  1  0.65668266  0.17777526  0.12678165  1
  In  In13  1  0.65728115  0.17127854  0.62169605  1
  In  In14  1  0.65835838  0.48892832  0.11590414  1
  In  In15  1  0.67649551  0.50419845  0.62658178  1
  In  In16  1  0.66802486  0.83392081  0.11792198  1
  In  In17  1  0.65677484  0.83177790  0.62971380  1
  In  In18  1  0.18312896  -0.01034851  0.37079716  1
  In  In19  1  0.17753413  -0.00326057  0.87485661  1
  In  In20  1  0.16563703  0.33216534  0.36629797  1
  In  In21  1  0.16300693  0.32065575  0.87641620  1
  In  In22  1  0.16560866  0.66285981  0.37592425  1
  In  In23  1  0.17920207  0.69604350  0.84980323  1
  In  In24  1  0.49665832  0.00583373  0.37850058  1
  In  In25  1  0.47708333  0.00591183  0.89295782  1
  In  In26  1  0.48992046  0.32081679  0.36238199  1
  In  In27  1  0.49077609  0.34295251  0.88375977  1
  In  In28  1  0.49814980  0.67811780  0.37626031  1
  In  In29  1  0.50326926  0.66979461  0.87915256  1
  In  In30  1  0.82792408  -0.00842023  0.38074608  1
  In  In31  1  0.83563982  -0.01156780  0.86661725  1
  In  In32  1  0.83526111  0.34053854  0.36567371  1
  In  In33  1  0.85224086  0.33386343  0.87310094  1
  In  In34  1  0.84301360  0.67460327  0.37984012  1
  In  In35  1  0.83117741  0.67098686  0.86699839  1
  In  In36  1  -0.00813238  0.17200697  0.37590540  1
  In  In37  1  0.00872158  0.17734252  0.86560735  1
  In  In38  1  0.00813896  0.50126538  0.37637825  1
  In  In39  1  -0.00033885  0.49504338  0.87488360  1
  In  In40  1  -0.00319408  0.82550905  0.38086440  1
  In  In41  1  0.00133978  0.83512604  0.86376281  1
  In  In42  1  0.33996713  0.17077664  0.36618733  1
  In  In43  1  0.32702377  0.16306781  0.87978917  1
  In  In44  1  0.33548220  0.50020024  0.36592345  1
  In  In45  1  0.34299305  0.51125415  0.87311645  1
  In  In46  1  0.34025401  0.84810647  0.36087809  1
  In  In47  1  0.33047160  0.83720041  0.87985042  1
  In  In48  1  0.65241125  0.16238587  0.37163335  1
  In  In49  1  0.65658396  0.15789093  0.87714118  1
  In  In50  1  0.67700137  0.49634697  0.37151131  1
  In  In51  1  0.65680707  0.51175055  0.88193052  1
  In  In52  1  0.66498863  0.82903153  0.38528263  1
  In  In53  1  0.67718669  0.82329071  0.87972266  1
  In  In54  1  0.18251916  -0.00149390  0.10949875  1
  In  In55  1  0.16710574  -0.00577451  0.64428436  1
  In  In56  1  0.17987083  0.32386234  0.13142492  1
  In  In57  1  0.16547099  0.33974891  0.63141986  1
  In  In58  1  0.17563511  0.68214951  0.11853443  1
  In  In59  1  0.16342307  0.68334361  0.64811028  1
  In  In60  1  0.46860428  -0.02403447  0.09784648  1
  In  In61  1  0.49447341  -0.00409796  0.62220077  1
  In  In62  1  0.49611165  0.32847577  0.11988316  1
  In  In63  1  0.49971382  0.31891506  0.62217672  1
  In  In64  1  0.49383828  0.65485287  0.11819588  1
  In  In65  1  0.48424842  0.68182850  0.63759293  1
  In  In66  1  0.84515571  -0.00590640  0.11618023  1
  In  In67  1  0.85176067  -0.00826185  0.63934259  1
  In  In68  1  0.82285436  0.34006090  0.12868865  1
  In  In69  1  0.83698007  0.33451567  0.62795027  1
  In  In70  1  0.84269547  0.66808604  0.11178346  1
  In  In71  1  0.82817118  0.67714652  0.64310529  1
  In  In72  1  0.83380442  0.50567182  0.50128839  1
  In  In73  1  0.49940299  0.50142971  0.49842099  1
  In  In74  1  0.66299530  0.66010968  0.24917786  1
  In  In75  1  0.16523590  0.50783523  0.50335778  1
  In  In76  1  0.82786809  0.16254772  0.51214914  1
  In  In77  1  0.16409090  0.16842516  0.49971873  1
  In  In78  1  0.66668717  0.33361636  0.74356978  1
  In  In79  1  0.16635676  0.83468262  0.51095481  1
  In  In80  1  0.65980475  0.00787834  0.24745446  1
  In  In81  1  0.00649032  0.66533129  0.25356854  1
  In  In82  1  0.66513642  -0.00413159  0.75926263  1
  In  In83  1  0.01526094  0.00354223  0.24037387  1
  In  In84  1  0.15944994  0.50295265  -0.00641373  1
  In  In85  1  0.83030750  0.16386557  -0.00535971  1
  Cu  Cu86  1  0.84023300  0.83382346  0.24880415  1
  Cu  Cu87  1  0.66173594  0.32367844  0.49329498  1
  Cu  Cu88  1  0.66307800  -0.00180792  -0.00427197  1
  Cu  Cu89  1  0.67346152  0.67216446  -0.00203239  1
  Cu  Cu90  1  0.49837338  0.50523925  0.75630225  1
  Cu  Cu91  1  0.33188891  0.33093496  0.00230204  1
  Cu  Cu92  1  0.82813022  0.49347578  0.24289950  1
  Cu  Cu93  1  0.48974380  0.16722509  0.75459738  1
  Cu  Cu94  1  0.66076181  0.67428188  0.51034574  1
  Cu  Cu95  1  0.17586120  0.17005140  0.75313098  1
  Cu  Cu96  1  0.66689352  -0.01232496  0.50292188  1
  Cu  Cu97  1  0.34421579  -0.00030908  0.50115271  1
  Cu  Cu98  1  0.00269011  -0.00453301  0.51227940  1
  Cu  Cu99  1  0.83024780  0.49663052  0.75276979  1
  Cu  Cu100  1  0.83715253  0.17617759  0.24904298  1
  Cu  Cu101  1  0.33467304  0.66749625  -0.00560857  1
  Cu  Cu102  1  0.33723399  0.32971174  0.49466872  1
  Cu  Cu103  1  0.16660556  0.50246929  0.24821529  1
  Cu  Cu104  1  0.00048802  0.32957297  -0.00200144  1
  Cu  Cu105  1  0.17080352  0.48768088  0.75935258  1
  Cu  Cu106  1  0.49982174  0.83696918  0.75971637  1
  Cu  Cu107  1  0.00281638  -0.00768793  -0.00885113  1
  Cu  Cu108  1  0.17072782  0.16776836  0.24435566  1
  Cu  Cu109  1  0.66902326  0.34035126  0.00154406  1
  Cu  Cu110  1  0.00236820  0.67416310  -0.01405203  1
  Cu  Cu111  1  0.49268202  0.16176222  0.24176635  1
  Cu  Cu112  1  0.32926778  0.68082974  0.50642067  1
  Cu  Cu113  1  0.49682148  0.49289884  0.24093451  1
  Cu  Cu114  1  0.49327579  0.83497104  0.24669966  1
  Se  Se115  1  0.08205008  0.07439960  0.04944397  1
  Se  Se116  1  0.08302066  0.07846156  0.56759219  1
  Se  Se117  1  0.08231233  0.40791418  0.06010901  1
  Se  Se118  1  0.07528620  0.41242834  0.55741188  1
  Se  Se119  1  0.08703196  0.74902157  0.04548497  1
  Se  Se120  1  0.07702340  0.74274463  0.56668743  1
  Se  Se121  1  0.42640258  0.09717326  0.04656387  1
  Se  Se122  1  0.42249650  0.08923475  0.55320596  1
  Se  Se123  1  0.41754805  0.41743630  0.05068988  1
  Se  Se124  1  0.40706096  0.41471635  0.55956546  1
  Se  Se125  1  0.41551530  0.74641743  0.05500833  1
  Se  Se126  1  0.41460297  0.76101288  0.55958644  1
  Se  Se127  1  0.74094811  0.07755832  0.06047036  1
  Se  Se128  1  0.74274962  0.06501340  0.56935033  1
  Se  Se129  1  0.75857290  0.42181078  0.04996409  1
  Se  Se130  1  0.74004317  0.40432395  0.55403303  1
  Se  Se131  1  0.75723730  0.75644323  0.05075716  1
  Se  Se132  1  0.74826189  0.74918312  0.56592180  1
  Se  Se133  1  0.24488229  0.24729534  0.05121010  1
  Se  Se134  1  0.25574005  0.25694937  0.55966755  1
  Se  Se135  1  0.25697971  0.58265284  0.05635373  1
  Se  Se136  1  0.25041122  0.60067772  0.56624003  1
  Se  Se137  1  0.26654691  0.91372010  0.04390932  1
  Se  Se138  1  0.25909802  0.92907494  0.56455619  1
  Se  Se139  1  0.58433325  0.25218627  0.04868221  1
  Se  Se140  1  0.57656431  0.24293433  0.54602183  1
  Se  Se141  1  0.59001194  0.58695950  0.05131004  1
  Se  Se142  1  0.58081068  0.58983960  0.56625545  1
  Se  Se143  1  0.58318665  0.90989103  0.04747997  1
  Se  Se144  1  0.57764222  0.91042640  0.55601653  1
  Se  Se145  1  0.91736716  0.25137501  0.05982673  1
  Se  Se146  1  0.92760547  0.25447435  0.55894535  1
  Se  Se147  1  0.92390281  0.58673516  0.04152719  1
  Se  Se148  1  0.91531282  0.59172563  0.56760897  1
  Se  Se149  1  0.91341867  0.91141931  0.04147302  1
  Se  Se150  1  0.91805894  0.91103383  0.56104629  1
  Se  Se151  1  0.07505434  0.26232602  0.44310701  1
  Se  Se152  1  0.08267945  0.24228988  0.94930462  1
  Se  Se153  1  0.06774852  0.60017639  0.44902070  1
  Se  Se154  1  0.08804298  0.59836558  0.92731102  1
  Se  Se155  1  0.08199055  0.92714448  0.44330974  1
  Se  Se156  1  0.08548928  0.90989692  0.93706897  1
  Se  Se157  1  0.41942352  0.24565140  0.44238193  1
  Se  Se158  1  0.41483024  0.24832353  0.94676464  1
  Se  Se159  1  0.40227367  0.59343867  0.44485482  1
  Se  Se160  1  0.42347290  0.58209201  0.94919752  1
  Se  Se161  1  0.41740058  0.91268283  0.44261821  1
  Se  Se162  1  0.40217023  0.91411472  0.95991901  1
  Se  Se163  1  0.75024326  0.24870793  0.43646459  1
  Se  Se164  1  0.74283158  0.25956554  0.93604204  1
  Se  Se165  1  0.73667666  0.59713709  0.44416214  1
  Se  Se166  1  0.75425511  0.58847257  0.94235725  1
  Se  Se167  1  0.75486637  0.90733135  0.45189038  1
  Se  Se168  1  0.75241267  0.92117534  0.94324649  1
  Se  Se169  1  0.25925713  0.07850667  0.44312899  1
  Se  Se170  1  0.25005288  0.07852930  0.94995964  1
  Se  Se171  1  0.25426946  0.41401791  0.44078822  1
  Se  Se172  1  0.25617604  0.41345342  0.93879490  1
  Se  Se173  1  0.25273020  0.75485655  0.43958604  1
  Se  Se174  1  0.24528525  0.74430735  0.94193517  1
  Se  Se175  1  0.59025089  0.07599386  0.44768391  1
  Se  Se176  1  0.57688617  0.08648519  0.95160855  1
  Se  Se177  1  0.58521392  0.40960372  0.43536858  1
  Se  Se178  1  0.58112226  0.42161576  0.94934162  1
  Se  Se179  1  0.57594861  0.75098008  0.45235520  1
  Se  Se180  1  0.58397970  0.75421634  0.94906853  1
  Se  Se181  1  0.92280898  0.07455178  0.44852485  1
  Se  Se182  1  0.92362055  0.07886039  0.93462731  1
  Se  Se183  1  0.92129246  0.41160949  0.44329247  1
  Se  Se184  1  0.91846910  0.41740915  0.94963766  1
  Se  Se185  1  0.91190961  0.75695488  0.45284940  1
  Se  Se186  1  0.91507269  0.75573754  0.93508538  1
  Se  Se187  1  0.25234028  0.25166010  0.30048447  1
  Se  Se188  1  0.25793530  0.25382712  0.80697138  1
  Se  Se189  1  0.24681558  0.58595376  0.30432637  1
  Se  Se190  1  0.25142664  0.58176096  0.80360198  1
  Se  Se191  1  0.25110479  0.91916541  0.29152608  1
  Se  Se192  1  0.24310518  0.90191322  0.80329456  1
  Se  Se193  1  0.58085920  0.24242211  0.29597178  1
  Se  Se194  1  0.57525151  0.24914759  0.80897896  1
  Se  Se195  1  0.57048567  0.57063227  0.30986157  1
  Se  Se196  1  0.58416835  0.58916012  0.80496556  1
  Se  Se197  1  0.58078717  0.90724503  0.30849455  1
  Se  Se198  1  0.57239178  0.91770334  0.82468319  1
  Se  Se199  1  0.92315284  0.25614041  0.30165971  1
  Se  Se200  1  0.91597044  0.24992709  0.79846143  1
  Se  Se201  1  0.90493096  0.57447882  0.30696795  1
  Se  Se202  1  0.91520611  0.57645137  0.80644158  1
  Se  Se203  1  0.91962612  0.91795201  0.30602973  1
  Se  Se204  1  0.92743068  0.92746772  0.79491136  1
  Se  Se205  1  0.09353249  0.09254152  0.31287580  1
  Se  Se206  1  0.09474862  0.08558943  0.80737082  1
  Se  Se207  1  0.08154524  0.42115791  0.30257320  1
  Se  Se208  1  0.08176525  0.40741658  0.80894756  1
  Se  Se209  1  0.09315901  0.76420379  0.30803091  1
  Se  Se210  1  0.05455967  0.72754149  0.79521077  1
  Se  Se211  1  0.41708113  0.07719899  0.30162953  1
  Se  Se212  1  0.41282782  0.08034710  0.80978219  1
  Se  Se213  1  0.41243095  0.41252744  0.29830047  1
  Se  Se214  1  0.41662829  0.41704467  0.80530027  1
  Se  Se215  1  0.41572434  0.74653873  0.30120710  1
  Se  Se216  1  0.41697795  0.75212441  0.81263410  1
  Se  Se217  1  0.76158700  0.08978244  0.30871453  1
  Se  Se218  1  0.75693273  0.09574484  0.80885735  1
  Se  Se219  1  0.74294826  0.41192253  0.29628992  1
  Se  Se220  1  0.74777131  0.41841733  0.81348682  1
  Se  Se221  1  0.75560410  0.75592226  0.30661757  1
  Se  Se222  1  0.74607063  0.75330621  0.79928794  1
  Se  Se223  1  0.24717064  0.08216441  0.18822409  1
  Se  Se224  1  0.25718075  0.08218114  0.70199052  1
  Se  Se225  1  0.25204791  0.41768177  0.19751949  1
  Se  Se226  1  0.25596608  0.40943370  0.70198727  1
  Se  Se227  1  0.25357403  0.74425616  0.19733479  1
  Se  Se228  1  0.24801347  0.76706123  0.71192907  1
  Se  Se229  1  0.56683904  0.07856411  0.17939930  1
  Se  Se230  1  0.57658950  0.08926756  0.69640648  1
  Se  Se231  1  0.58258898  0.41047567  0.19033721  1
  Se  Se232  1  0.57112636  0.42614338  0.68769695  1
  Se  Se233  1  0.57853494  0.75531647  0.18967479  1
  Se  Se234  1  0.57977679  0.75238048  0.70411986  1
  Se  Se235  1  0.91146478  0.09192594  0.18823541  1
  Se  Se236  1  0.92138217  0.08120137  0.70745473  1
  Se  Se237  1  0.91966834  0.41624889  0.19225342  1
  Se  Se238  1  0.91492042  0.41396991  0.69955747  1
  Se  Se239  1  0.91963010  0.75548735  0.18831263  1
  Se  Se240  1  0.93551952  0.73425484  0.70620321  1
  Se  Se241  1  0.08186317  0.25075482  0.19634402  1
  Se  Se242  1  0.08889182  0.25131912  0.69940221  1
  Se  Se243  1  0.08925416  0.57963590  0.18403504  1
  Se  Se244  1  0.09510427  0.56983355  0.69796678  1
  Se  Se245  1  0.09649274  0.90744834  0.18236206  1
  Se  Se246  1  0.08238626  0.91280747  0.70814665  1
  Se  Se247  1  0.41107191  0.24879459  0.18960570  1
  Se  Se248  1  0.41395801  0.25266403  0.69662395  1
  Se  Se249  1  0.41489651  0.58495779  0.19618039  1
  Se  Se250  1  0.41108178  0.58668126  0.70213411  1
  Se  Se251  1  0.41372666  0.91783419  0.19053790  1
  Se  Se252  1  0.42252723  0.92230566  0.70173095  1
  Se  Se253  1  0.74624761  0.25009085  0.19607819  1
  Se  Se254  1  0.75737772  0.23566014  0.69077028  1
  Se  Se255  1  0.75643904  0.58161835  0.18345565  1
  Se  Se256  1  0.74529364  0.58218396  0.70326279  1
  Se  Se257  1  0.75794154  0.91589294  0.19193736  1
  Se  Se258  1  0.75401444  0.90689241  0.69860243  1
