# generated using pymatgen
data_In86Cu29Se144
_symmetry_space_group_name_H-M   'P 1'
_cell_length_a   17.59306077
_cell_length_b   17.59035158
_cell_length_c   23.45893181
_cell_angle_alpha   89.99107304
_cell_angle_beta   89.99061967
_cell_angle_gamma   90.01914236
_symmetry_Int_Tables_number   1
_chemical_formula_structural   In86Cu29Se144
_chemical_formula_sum   'In86 Cu29 Se144'
_cell_volume   7259.79103789
_cell_formula_units_Z   1
loop_
 _symmetry_equiv_pos_site_id
 _symmetry_equiv_pos_as_xyz
  1  'x, y, z'
loop_
 _atom_site_type_symbol
 _atom_site_label
 _atom_site_symmetry_multiplicity
 _atom_site_fract_x
 _atom_site_fract_y
 _atom_site_fract_z
 _atom_site_occupancy
  In  In0  1  0.02119411  0.15929752  0.14178225  1
  In  In1  1  -0.03824877  0.17883071  0.63220732  1
  In  In2  1  -0.00635543  0.49200733  0.12168422  1
  In  In3  1  0.00252912  0.50399140  0.61417817  1
  In  In4  1  -0.00663705  0.84524286  0.11768424  1
  In  In5  1  -0.00687170  0.83964232  0.63502620  1
  In  In6  1  0.32588771  0.16799946  0.12861797  1
  In  In7  1  0.33246252  0.15594369  0.61808369  1
  In  In8  1  0.33528365  0.50208334  0.12204346  1
  In  In9  1  0.33062934  0.50492331  0.62627357  1
  In  In10  1  0.33954544  0.82965896  0.13652915  1
  In  In11  1  0.33141955  0.81744051  0.62271232  1
  In  In12  1  0.66317635  0.18501906  0.12091542  1
  In  In13  1  0.67465525  0.17611036  0.61554859  1
  In  In14  1  0.67150393  0.51236375  0.11483666  1
  In  In15  1  0.67584024  0.48818674  0.63691316  1
  In  In16  1  0.66482659  0.81164492  0.11770055  1
  In  In17  1  0.65445050  0.83340339  0.62465596  1
  In  In18  1  0.17358596  0.01391810  0.35755034  1
  In  In19  1  0.16230451  0.01172464  0.88150084  1
  In  In20  1  0.17417713  0.33633355  0.36219805  1
  In  In21  1  0.15969781  0.33445697  0.88513627  1
  In  In22  1  0.16664917  0.64965604  0.37683972  1
  In  In23  1  0.15748787  0.64955818  0.86254706  1
  In  In24  1  0.49375229  0.01157164  0.38055727  1
  In  In25  1  0.50483465  0.00389118  0.88025329  1
  In  In26  1  0.48480278  0.33579243  0.37030054  1
  In  In27  1  0.50670962  0.32726716  0.87871665  1
  In  In28  1  0.50964327  0.66246507  0.36876955  1
  In  In29  1  0.49239434  0.65799280  0.86997701  1
  In  In30  1  0.85017578  0.00534245  0.37316855  1
  In  In31  1  0.83449875  -0.00946688  0.87695966  1
  In  In32  1  0.84913308  0.32410343  0.38998411  1
  In  In33  1  0.83646335  0.34748585  0.87557840  1
  In  In34  1  0.82513440  0.66200085  0.37516067  1
  In  In35  1  0.83131422  0.65873524  0.87642910  1
  In  In36  1  0.00276121  0.16579372  0.36775618  1
  In  In37  1  0.00327849  0.17403442  0.87675954  1
  In  In38  1  0.01656479  0.48684487  0.39371664  1
  In  In39  1  -0.00700118  0.50043614  0.88148295  1
  In  In40  1  -0.00313656  0.85089930  0.37256948  1
  In  In41  1  -0.00208257  0.82546069  0.87262470  1
  In  In42  1  0.33373092  0.18000371  0.35905677  1
  In  In43  1  0.32882719  0.16744468  0.88542288  1
  In  In44  1  0.33350717  0.48635140  0.35986251  1
  In  In45  1  0.32346353  0.50663081  0.88273333  1
  In  In46  1  0.34136877  0.84185109  0.36888172  1
  In  In47  1  0.34172911  0.82306891  0.87584686  1
  In  In48  1  0.66929960  0.17073586  0.38250682  1
  In  In49  1  0.65941846  0.15924293  0.87520887  1
  In  In50  1  0.66799458  0.51364212  0.37054131  1
  In  In51  1  0.66897518  0.50367487  0.87527308  1
  In  In52  1  0.66642358  0.81376678  0.37409113  1
  In  In53  1  0.67950334  0.82767795  0.87957034  1
  In  In54  1  0.15486125  0.01349841  0.13822715  1
  In  In55  1  0.16338380  -0.00625444  0.62627701  1
  In  In56  1  0.16849818  0.33523428  0.12804884  1
  In  In57  1  0.15098461  0.35173961  0.62368681  1
  In  In58  1  0.18359781  0.66409885  0.12480081  1
  In  In59  1  0.16864439  0.65259626  0.63483566  1
  In  In60  1  0.48189003  0.00249962  0.12832045  1
  In  In61  1  0.50390912  -0.00022119  0.61376838  1
  In  In62  1  0.48909747  0.32783141  0.11934857  1
  In  In63  1  0.51259019  0.34036572  0.62233927  1
  In  In64  1  0.51231393  0.65327639  0.14061805  1
  In  In65  1  0.49488581  0.66745532  0.62964920  1
  In  In66  1  0.85907963  -0.00032500  0.11821152  1
  In  In67  1  0.83444376  0.01220644  0.62922357  1
  In  In68  1  0.83584717  0.34938922  0.12521151  1
  In  In69  1  0.83173688  0.32777577  0.61521038  1
  In  In70  1  0.82283760  0.65904211  0.10976040  1
  In  In71  1  0.84284368  0.65544597  0.63652858  1
  In  In72  1  0.82998782  0.83225399  0.49811081  1
  In  In73  1  0.16639749  0.83210453  0.00413702  1
  In  In74  1  0.33246575  -0.00816806  0.75603257  1
  In  In75  1  -0.00004384  0.66967266  0.25160128  1
  In  In76  1  -0.00350233  0.33735407  0.75218685  1
  In  In77  1  0.33662750  0.33672588  0.74358455  1
  In  In78  1  0.50283989  0.49792220  0.49486000  1
  In  In79  1  0.66998270  -0.00445052  0.75528362  1
  In  In80  1  0.66233500  0.34756212  0.24862004  1
  In  In81  1  0.16784566  0.83158051  0.50076640  1
  In  In82  1  0.16627681  0.17002346  0.49768591  1
  In  In83  1  0.66875475  -0.00580353  0.24403060  1
  In  In84  1  0.50055273  0.83325870  -0.00258974  1
  In  In85  1  0.83425739  0.17150735  0.00093176  1
  Cu  Cu86  1  0.50328198  0.49862596  0.75170179  1
  Cu  Cu87  1  0.33400019  0.66258382  0.00111344  1
  Cu  Cu88  1  0.83660785  0.50344527  0.24842305  1
  Cu  Cu89  1  0.49710060  0.82394945  0.74828431  1
  Cu  Cu90  1  0.50874911  0.16853935  0.74915478  1
  Cu  Cu91  1  0.83153144  0.50172293  0.75357152  1
  Cu  Cu92  1  0.34490849  0.00104120  0.49248660  1
  Cu  Cu93  1  0.49319562  0.16878900  0.24842438  1
  Cu  Cu94  1  -0.00114857  0.66804201  0.50592689  1
  Cu  Cu95  1  0.00749428  0.32756253  0.00596955  1
  Cu  Cu96  1  0.16098206  0.17067226  0.75563360  1
  Cu  Cu97  1  -0.00080136  0.66395462  -0.00577969  1
  Cu  Cu98  1  0.66337675  0.66476723  0.50237454  1
  Cu  Cu99  1  0.66789127  -0.00056783  0.49872380  1
  Cu  Cu100  1  0.16954465  0.49817740  0.24903633  1
  Cu  Cu101  1  0.33380615  0.33451368  0.00396720  1
  Cu  Cu102  1  0.83938477  0.17134807  0.25323608  1
  Cu  Cu103  1  0.66014036  0.00770864  0.00257182  1
  Cu  Cu104  1  0.50371358  0.82987252  0.25251883  1
  Cu  Cu105  1  0.83587255  0.82746283  0.75692652  1
  Cu  Cu106  1  0.00434004  0.01250032  0.49908741  1
  Cu  Cu107  1  0.66746520  0.32998291  0.50141237  1
  Cu  Cu108  1  0.83026757  0.83016224  0.24635828  1
  Cu  Cu109  1  0.16459613  0.83376106  0.24500817  1
  Cu  Cu110  1  0.32348627  0.00755579  0.01053585  1
  Cu  Cu111  1  0.33714914  0.66432056  0.50212031  1
  Cu  Cu112  1  0.66071636  0.34313109  -0.00020170  1
  Cu  Cu113  1  0.32810940  0.33109480  0.48988742  1
  Cu  Cu114  1  0.16216798  0.82832405  0.74925078  1
  Se  Se115  1  0.07655378  0.07929982  0.05970440  1
  Se  Se116  1  0.07876793  0.08735931  0.56545991  1
  Se  Se117  1  0.08717435  0.41767190  0.05625553  1
  Se  Se118  1  0.07516763  0.41477568  0.54468431  1
  Se  Se119  1  0.07600056  0.73797829  0.06227681  1
  Se  Se120  1  0.07679904  0.75030690  0.56524672  1
  Se  Se121  1  0.41452046  0.09034069  0.05636455  1
  Se  Se122  1  0.42221915  0.08759173  0.54803647  1
  Se  Se123  1  0.41864133  0.42157677  0.05131664  1
  Se  Se124  1  0.40768957  0.40961866  0.55501554  1
  Se  Se125  1  0.41162295  0.74669896  0.05940631  1
  Se  Se126  1  0.42176940  0.74807848  0.55275776  1
  Se  Se127  1  0.74470774  0.08065302  0.06453402  1
  Se  Se128  1  0.75262732  0.07983444  0.55297390  1
  Se  Se129  1  0.75133995  0.41903249  0.05164682  1
  Se  Se130  1  0.74487665  0.41871727  0.55456786  1
  Se  Se131  1  0.75448053  0.75510821  0.04349653  1
  Se  Se132  1  0.74676991  0.74283025  0.56279142  1
  Se  Se133  1  0.24886596  0.25180215  0.05677993  1
  Se  Se134  1  0.25330732  0.26235111  0.56196307  1
  Se  Se135  1  0.24672784  0.57831651  0.04947401  1
  Se  Se136  1  0.25009153  0.58570573  0.55557801  1
  Se  Se137  1  0.25336834  0.91826272  0.06872026  1
  Se  Se138  1  0.26332343  0.92623864  0.55647136  1
  Se  Se139  1  0.57876223  0.25341950  0.04798952  1
  Se  Se140  1  0.57783349  0.24916494  0.55086253  1
  Se  Se141  1  0.58382266  0.59965389  0.05444216  1
  Se  Se142  1  0.58784397  0.58046765  0.56370530  1
  Se  Se143  1  0.58399114  0.92453295  0.06404991  1
  Se  Se144  1  0.58457498  0.91219746  0.54758440  1
  Se  Se145  1  0.92293524  0.25253397  0.06721174  1
  Se  Se146  1  0.93197298  0.26437064  0.54831597  1
  Se  Se147  1  0.91931953  0.57889060  0.05100125  1
  Se  Se148  1  0.90809996  0.58612124  0.55249746  1
  Se  Se149  1  0.90881103  0.90812094  0.04183735  1
  Se  Se150  1  0.92348234  0.92469819  0.55470150  1
  Se  Se151  1  0.08231835  0.25904140  0.43551560  1
  Se  Se152  1  0.08701049  0.24205911  0.95239628  1
  Se  Se153  1  0.08845626  0.58602552  0.45691651  1
  Se  Se154  1  0.08663371  0.58125344  0.94505160  1
  Se  Se155  1  0.08682774  0.93176543  0.44114628  1
  Se  Se156  1  0.07647978  0.91891761  0.94334600  1
  Se  Se157  1  0.41199307  0.24672456  0.43992933  1
  Se  Se158  1  0.41584766  0.25175577  0.94704785  1
  Se  Se159  1  0.40929782  0.58356415  0.43637907  1
  Se  Se160  1  0.41878483  0.58153875  0.94728328  1
  Se  Se161  1  0.42482353  0.91041883  0.44469827  1
  Se  Se162  1  0.40169939  0.92882170  0.94546128  1
  Se  Se163  1  0.75514416  0.24576926  0.45249984  1
  Se  Se164  1  0.74141145  0.25875515  0.94064192  1
  Se  Se165  1  0.74687171  0.58346879  0.44878412  1
  Se  Se166  1  0.76198100  0.56810211  0.94650854  1
  Se  Se167  1  0.74539658  0.92257566  0.43331109  1
  Se  Se168  1  0.74153949  0.92535021  0.94798451  1
  Se  Se169  1  0.25783673  0.08101148  0.43767516  1
  Se  Se170  1  0.24291288  0.08863976  0.95350699  1
  Se  Se171  1  0.25070876  0.41778251  0.43645282  1
  Se  Se172  1  0.24845073  0.41532131  0.94918434  1
  Se  Se173  1  0.25758774  0.74402508  0.43941675  1
  Se  Se174  1  0.25103378  0.74083320  0.94073754  1
  Se  Se175  1  0.58499759  0.08600077  0.44761376  1
  Se  Se176  1  0.57599717  0.09054469  0.95162340  1
  Se  Se177  1  0.59184344  0.40654401  0.43464900  1
  Se  Se178  1  0.57915903  0.42341200  0.94320960  1
  Se  Se179  1  0.58016746  0.74384973  0.44677685  1
  Se  Se180  1  0.58640736  0.74066190  0.93898529  1
  Se  Se181  1  0.91981649  0.09226464  0.44478768  1
  Se  Se182  1  0.92168585  0.07916642  0.94286956  1
  Se  Se183  1  0.89374978  0.44375230  0.44322981  1
  Se  Se184  1  0.92213497  0.40941437  0.95205288  1
  Se  Se185  1  0.92678525  0.74627601  0.43869817  1
  Se  Se186  1  0.91547848  0.74683099  0.94288641  1
  Se  Se187  1  0.22665025  0.23157705  0.29512625  1
  Se  Se188  1  0.24710110  0.24959715  0.80976897  1
  Se  Se189  1  0.25071726  0.58375820  0.30195503  1
  Se  Se190  1  0.26331969  0.58732625  0.80267284  1
  Se  Se191  1  0.25032287  0.91423269  0.30028783  1
  Se  Se192  1  0.23864969  0.90530785  0.81555343  1
  Se  Se193  1  0.58113140  0.24367634  0.30653994  1
  Se  Se194  1  0.58854126  0.24962438  0.80492765  1
  Se  Se195  1  0.57964003  0.57471279  0.29742375  1
  Se  Se196  1  0.58560700  0.58410334  0.80365541  1
  Se  Se197  1  0.58229275  0.91316660  0.31290042  1
  Se  Se198  1  0.57295424  0.90485719  0.81140702  1
  Se  Se199  1  0.91831980  0.25802889  0.30595047  1
  Se  Se200  1  0.90549982  0.24476428  0.80896898  1
  Se  Se201  1  0.91873503  0.57634810  0.31379000  1
  Se  Se202  1  0.91944400  0.58080452  0.80626373  1
  Se  Se203  1  0.91207302  0.91664506  0.29722422  1
  Se  Se204  1  0.91818052  0.91548516  0.80535314  1
  Se  Se205  1  0.06441476  0.06878532  0.29910054  1
  Se  Se206  1  0.08040676  0.08532895  0.80756742  1
  Se  Se207  1  0.08019784  0.42463763  0.30549124  1
  Se  Se208  1  0.09013580  0.42323629  0.81078815  1
  Se  Se209  1  0.09100003  0.75867657  0.31477517  1
  Se  Se210  1  0.07894011  0.74459543  0.80190650  1
  Se  Se211  1  0.41596253  0.08090252  0.30272251  1
  Se  Se212  1  0.42387143  0.09161914  0.80795532  1
  Se  Se213  1  0.42809367  0.41894304  0.29253134  1
  Se  Se214  1  0.42087495  0.41953941  0.81159427  1
  Se  Se215  1  0.41971074  0.74763685  0.30636754  1
  Se  Se216  1  0.41087154  0.74316672  0.80006790  1
  Se  Se217  1  0.75315508  0.08951590  0.30691891  1
  Se  Se218  1  0.76054397  0.08969146  0.80906422  1
  Se  Se219  1  0.76093909  0.42075813  0.31175411  1
  Se  Se220  1  0.74785235  0.41618339  0.80419639  1
  Se  Se221  1  0.75224404  0.74470382  0.30070723  1
  Se  Se222  1  0.74962421  0.74459973  0.80586414  1
  Se  Se223  1  0.26153710  0.07226388  0.19799375  1
  Se  Se224  1  0.24426703  0.08941183  0.69695017  1
  Se  Se225  1  0.25519459  0.41904383  0.19431257  1
  Se  Se226  1  0.23675639  0.42825879  0.69661989  1
  Se  Se227  1  0.25108873  0.74667057  0.20097817  1
  Se  Se228  1  0.24856449  0.74821147  0.69636690  1
  Se  Se229  1  0.57990067  0.09385778  0.18947242  1
  Se  Se230  1  0.58310535  0.08262533  0.68888636  1
  Se  Se231  1  0.57818518  0.42474100  0.17927295  1
  Se  Se232  1  0.58451292  0.40933146  0.70245215  1
  Se  Se233  1  0.59139932  0.74966370  0.20152048  1
  Se  Se234  1  0.58578980  0.74560590  0.69660725  1
  Se  Se235  1  0.91564532  0.08442085  0.19764613  1
  Se  Se236  1  0.92959095  0.06999231  0.69958147  1
  Se  Se237  1  0.92090483  0.41668873  0.20050059  1
  Se  Se238  1  0.90802943  0.42303854  0.68842019  1
  Se  Se239  1  0.91075546  0.75048146  0.18525095  1
  Se  Se240  1  0.91981688  0.74727976  0.70118496  1
  Se  Se241  1  0.08821189  0.25914666  0.20292064  1
  Se  Se242  1  0.08572270  0.24536472  0.68887731  1
  Se  Se243  1  0.08832145  0.58006961  0.18979812  1
  Se  Se244  1  0.06694734  0.58276761  0.69341907  1
  Se  Se245  1  0.07580256  0.91185000  0.19465548  1
  Se  Se246  1  0.08411269  0.91952606  0.69977827  1
  Se  Se247  1  0.41213328  0.25377846  0.19575040  1
  Se  Se248  1  0.42412393  0.23940820  0.68617775  1
  Se  Se249  1  0.39276823  0.60463832  0.19006598  1
  Se  Se250  1  0.41760993  0.57779307  0.69648404  1
  Se  Se251  1  0.41926675  0.91665811  0.20435011  1
  Se  Se252  1  0.42333584  0.91154177  0.68889168  1
  Se  Se253  1  0.75727780  0.25015126  0.19425407  1
  Se  Se254  1  0.76005949  0.24318317  0.68805062  1
  Se  Se255  1  0.75549531  0.58329192  0.19099066  1
  Se  Se256  1  0.74542620  0.58598512  0.70195654  1
  Se  Se257  1  0.75735888  0.91008631  0.18022940  1
  Se  Se258  1  0.75800144  0.90565549  0.69125478  1
