# generated using pymatgen
data_In86Cu29Se144
_symmetry_space_group_name_H-M   'P 1'
_cell_length_a   17.56867177
_cell_length_b   17.57410296
_cell_length_c   23.42858409
_cell_angle_alpha   89.99351838
_cell_angle_beta   89.98961273
_cell_angle_gamma   90.00465144
_symmetry_Int_Tables_number   1
_chemical_formula_structural   In86Cu29Se144
_chemical_formula_sum   'In86 Cu29 Se144'
_cell_volume   7233.66058047
_cell_formula_units_Z   1
loop_
 _symmetry_equiv_pos_site_id
 _symmetry_equiv_pos_as_xyz
  1  'x, y, z'
loop_
 _atom_site_type_symbol
 _atom_site_label
 _atom_site_symmetry_multiplicity
 _atom_site_fract_x
 _atom_site_fract_y
 _atom_site_fract_z
 _atom_site_occupancy
  In  In0  1  0.01159303  0.15417536  0.12907073  1
  In  In1  1  0.01525852  0.15829086  0.61898248  1
  In  In2  1  -0.00471864  0.49016747  0.12617624  1
  In  In3  1  -0.00502417  0.51436672  0.62595892  1
  In  In4  1  -0.00995903  0.85592010  0.12246816  1
  In  In5  1  -0.00404385  0.84386213  0.61935154  1
  In  In6  1  0.32986241  0.17661805  0.14081322  1
  In  In7  1  0.32031211  0.16938041  0.61570885  1
  In  In8  1  0.33156224  0.49872530  0.11768086  1
  In  In9  1  0.34842819  0.49910441  0.61254845  1
  In  In10  1  0.35077425  0.82836178  0.12577816  1
  In  In11  1  0.36178563  0.83825193  0.61796697  1
  In  In12  1  0.65506140  0.16600483  0.14516983  1
  In  In13  1  0.66135307  0.16749649  0.62834718  1
  In  In14  1  0.66443455  0.50673303  0.12024140  1
  In  In15  1  0.66606649  0.49978761  0.62392395  1
  In  In16  1  0.66744881  0.83365152  0.12037476  1
  In  In17  1  0.66657490  0.82896823  0.62547591  1
  In  In18  1  0.18281210  0.01600314  0.36437625  1
  In  In19  1  0.18007731  -0.00478660  0.87893536  1
  In  In20  1  0.16228277  0.31960854  0.36820659  1
  In  In21  1  0.17019506  0.33067682  0.88726890  1
  In  In22  1  0.17148554  0.66739353  0.37032027  1
  In  In23  1  0.15810515  0.65963050  0.88060847  1
  In  In24  1  0.49227560  -0.01035627  0.36815294  1
  In  In25  1  0.49623747  -0.00582171  0.87394865  1
  In  In26  1  0.50730581  0.34212293  0.36305994  1
  In  In27  1  0.51074864  0.33830175  0.87531555  1
  In  In28  1  0.50711606  0.65638484  0.38402016  1
  In  In29  1  0.52630718  0.64356257  0.90304714  1
  In  In30  1  0.82210444  -0.01088123  0.36582445  1
  In  In31  1  0.81987416  0.00698732  0.87741371  1
  In  In32  1  0.83449340  0.33809053  0.36831405  1
  In  In33  1  0.82386880  0.34516796  0.88101020  1
  In  In34  1  0.81976889  0.67764050  0.38100398  1
  In  In35  1  0.79857939  0.69220721  0.90805830  1
  In  In36  1  0.00908926  0.17409343  0.36863794  1
  In  In37  1  0.00390120  0.17705210  0.88341023  1
  In  In38  1  -0.00109604  0.48253931  0.36997107  1
  In  In39  1  -0.01384587  0.50789567  0.89108418  1
  In  In40  1  -0.01779493  0.83183724  0.37095050  1
  In  In41  1  -0.00205031  0.82546982  0.87970310  1
  In  In42  1  0.33318252  0.15434862  0.36427715  1
  In  In43  1  0.33516852  0.15235021  0.87860831  1
  In  In44  1  0.35476300  0.49712576  0.38024756  1
  In  In45  1  0.34232329  0.49921543  0.89258352  1
  In  In46  1  0.33665176  0.84870067  0.38142325  1
  In  In47  1  0.34245292  0.84358504  0.87402991  1
  In  In48  1  0.65196707  0.16377815  0.35386597  1
  In  In49  1  0.66264785  0.16400082  0.86797096  1
  In  In50  1  0.66465966  0.50409079  0.37278237  1
  In  In51  1  0.66891544  0.49866647  0.87815105  1
  In  In52  1  0.66827898  0.82929325  0.37385184  1
  In  In53  1  0.66100831  0.83670094  0.87891980  1
  In  In54  1  0.15666822  0.01089742  0.12958624  1
  In  In55  1  0.16832649  0.01667046  0.61968893  1
  In  In56  1  0.16999236  0.33118463  0.12930673  1
  In  In57  1  0.18009669  0.32264024  0.61850488  1
  In  In58  1  0.18317975  0.65782111  0.12074145  1
  In  In59  1  0.16775614  0.65724123  0.62954521  1
  In  In60  1  0.50582304  -0.00680641  0.13810275  1
  In  In61  1  0.50853093  -0.00749359  0.62905837  1
  In  In62  1  0.49338939  0.33974965  0.13813131  1
  In  In63  1  0.50313146  0.35025693  0.61779273  1
  In  In64  1  0.51915598  0.68691380  0.09854504  1
  In  In65  1  0.51178072  0.67972495  0.61291031  1
  In  In66  1  0.83430368  -0.00859706  0.12604151  1
  In  In67  1  0.82931209  -0.01655716  0.61993369  1
  In  In68  1  0.82383989  0.34546935  0.13620280  1
  In  In69  1  0.81518488  0.33220798  0.62125319  1
  In  In70  1  0.81443332  0.65833247  0.10988355  1
  In  In71  1  0.82325018  0.65241372  0.61700500  1
  In  In72  1  -0.00713148  0.00392122  0.74877387  1
  In  In73  1  0.49440152  0.17127865  0.01087083  1
  In  In74  1  0.83800361  0.16225797  0.00878236  1
  In  In75  1  0.34415014  0.66381291  0.24760404  1
  In  In76  1  0.34379743  0.67547843  0.75269491  1
  In  In77  1  0.34061626  0.33187906  0.73976879  1
  In  In78  1  0.16618287  0.83581370  0.49648158  1
  In  In79  1  0.83225878  0.17123357  0.48966914  1
  In  In80  1  -0.00845580  0.33713593  0.75549056  1
  In  In81  1  0.49435863  0.16267799  0.48843987  1
  In  In82  1  0.16578936  0.83198720  0.00253791  1
  In  In83  1  0.16388107  0.49813752  0.50012217  1
  In  In84  1  -0.00887872  0.66652572  0.24037643  1
  In  In85  1  -0.01577564  0.67339721  0.76324844  1
  Cu  Cu86  1  0.33208971  0.33034582  0.01078479  1
  Cu  Cu87  1  0.82381735  0.83299898  0.24559327  1
  Cu  Cu88  1  0.17427556  0.16388098  0.75079473  1
  Cu  Cu89  1  0.16457473  0.84030281  0.24974219  1
  Cu  Cu90  1  0.50563465  0.51173797  0.24464126  1
  Cu  Cu91  1  0.84093892  0.16557682  0.24903436  1
  Cu  Cu92  1  0.17100639  0.49511414  0.75973499  1
  Cu  Cu93  1  0.50790287  0.82960752  0.75218778  1
  Cu  Cu94  1  0.82285775  0.16760072  0.74732915  1
  Cu  Cu95  1  0.66229400  -0.00060192  0.00473554  1
  Cu  Cu96  1  -0.00859203  0.66507895  0.49697263  1
  Cu  Cu97  1  0.49930149  0.16125050  0.75015613  1
  Cu  Cu98  1  0.33017713  0.00374307  0.00400823  1
  Cu  Cu99  1  0.81697320  0.50158493  0.75313194  1
  Cu  Cu100  1  0.82872314  0.50731936  0.24988607  1
  Cu  Cu101  1  0.66932969  0.33735081  0.00441169  1
  Cu  Cu102  1  0.00367947  0.66110357  0.00715450  1
  Cu  Cu103  1  0.17318331  0.48845300  0.24751749  1
  Cu  Cu104  1  0.66486780  0.66497147  0.50014649  1
  Cu  Cu105  1  0.66897163  -0.00797747  0.49783577  1
  Cu  Cu106  1  0.50730034  0.82700263  0.25000649  1
  Cu  Cu107  1  0.18158114  0.84372184  0.74896273  1
  Cu  Cu108  1  0.82325569  0.82661844  0.75153448  1
  Cu  Cu109  1  0.66234221  0.34030746  0.49190350  1
  Cu  Cu110  1  -0.00441707  0.33414166  0.49437680  1
  Cu  Cu111  1  0.16561130  0.16387362  0.24787901  1
  Cu  Cu112  1  0.00171222  0.00002737  0.49270373  1
  Cu  Cu113  1  0.00882628  0.32751153  0.00897404  1
  Cu  Cu114  1  0.50597863  0.50531390  0.75116629  1
  Se  Se115  1  0.08066954  0.07857290  0.05052330  1
  Se  Se116  1  0.08751163  0.08443668  0.54112246  1
  Se  Se117  1  0.08912982  0.41686447  0.06004290  1
  Se  Se118  1  0.07278387  0.40934574  0.56405992  1
  Se  Se119  1  0.07746867  0.74472042  0.06881548  1
  Se  Se120  1  0.07642020  0.73968520  0.55901196  1
  Se  Se121  1  0.40965773  0.07766314  0.06968072  1
  Se  Se122  1  0.41795991  0.07837439  0.56111692  1
  Se  Se123  1  0.42353294  0.41197877  0.05698198  1
  Se  Se124  1  0.39764423  0.39194488  0.54874491  1
  Se  Se125  1  0.39848467  0.73815119  0.04798135  1
  Se  Se126  1  0.41333012  0.74238420  0.54629709  1
  Se  Se127  1  0.73392788  0.08392738  0.06629875  1
  Se  Se128  1  0.74563276  0.08074588  0.55505432  1
  Se  Se129  1  0.75444294  0.41965771  0.05618568  1
  Se  Se130  1  0.74653687  0.41869159  0.54933286  1
  Se  Se131  1  0.74790589  0.75675964  0.04560347  1
  Se  Se132  1  0.74923505  0.74861985  0.55399662  1
  Se  Se133  1  0.25173058  0.24283605  0.06131478  1
  Se  Se134  1  0.24775641  0.24702555  0.54083197  1
  Se  Se135  1  0.25270456  0.57996517  0.04568178  1
  Se  Se136  1  0.25643216  0.59424696  0.55394082  1
  Se  Se137  1  0.25478581  0.91935277  0.06573415  1
  Se  Se138  1  0.25416776  0.92016526  0.56143118  1
  Se  Se139  1  0.59170151  0.25789076  0.06623794  1
  Se  Se140  1  0.58732595  0.25263136  0.55115868  1
  Se  Se141  1  0.59638502  0.58836717  0.04262710  1
  Se  Se142  1  0.58260011  0.57783926  0.55261520  1
  Se  Se143  1  0.57519233  0.91917190  0.05765145  1
  Se  Se144  1  0.58571374  0.91342548  0.55496512  1
  Se  Se145  1  0.91972360  0.25707414  0.06984372  1
  Se  Se146  1  0.92089305  0.25247864  0.55977036  1
  Se  Se147  1  0.91829279  0.57813914  0.05771827  1
  Se  Se148  1  0.91215877  0.57559582  0.54792940  1
  Se  Se149  1  0.91073651  0.92383455  0.04642259  1
  Se  Se150  1  0.91701324  0.91828058  0.54475436  1
  Se  Se151  1  0.08156245  0.25040950  0.44674117  1
  Se  Se152  1  0.09157299  0.24393483  0.95598441  1
  Se  Se153  1  0.07401778  0.58928595  0.43587962  1
  Se  Se154  1  0.08663440  0.57699606  0.95416076  1
  Se  Se155  1  0.08014623  0.91997488  0.42969039  1
  Se  Se156  1  0.07704490  0.92367684  0.94178418  1
  Se  Se157  1  0.41355623  0.25662719  0.42758231  1
  Se  Se158  1  0.41000875  0.25745898  0.94125875  1
  Se  Se159  1  0.41522163  0.58613545  0.45314547  1
  Se  Se160  1  0.41241055  0.58972966  0.95966949  1
  Se  Se161  1  0.41856865  0.92688218  0.45048102  1
  Se  Se162  1  0.41571560  0.92291525  0.95068921  1
  Se  Se163  1  0.73415703  0.25294578  0.43126570  1
  Se  Se164  1  0.74093610  0.24722638  0.94613391  1
  Se  Se165  1  0.74822850  0.58164650  0.44581141  1
  Se  Se166  1  0.77149537  0.55836996  0.94455141  1
  Se  Se167  1  0.75422661  0.91056588  0.44467836  1
  Se  Se168  1  0.74677304  0.92198356  0.94781711  1
  Se  Se169  1  0.25964767  0.08100159  0.44319437  1
  Se  Se170  1  0.24650772  0.08636753  0.95173837  1
  Se  Se171  1  0.24744357  0.41440882  0.43352297  1
  Se  Se172  1  0.25215888  0.41485490  0.95375260  1
  Se  Se173  1  0.25839856  0.74201438  0.44073358  1
  Se  Se174  1  0.25295270  0.74895178  0.93580916  1
  Se  Se175  1  0.59478529  0.07484890  0.43554491  1
  Se  Se176  1  0.58328885  0.08418307  0.94552804  1
  Se  Se177  1  0.57658410  0.42318326  0.44114175  1
  Se  Se178  1  0.58310815  0.41741491  0.94991411  1
  Se  Se179  1  0.58531404  0.75174986  0.44618896  1
  Se  Se180  1  0.58237477  0.75997498  0.95379801  1
  Se  Se181  1  0.91900766  0.07745701  0.43157677  1
  Se  Se182  1  0.92379115  0.07631396  0.94180805  1
  Se  Se183  1  0.91105957  0.41698527  0.44480071  1
  Se  Se184  1  0.92073799  0.40340653  0.95185720  1
  Se  Se185  1  0.91114312  0.75420175  0.44820178  1
  Se  Se186  1  0.92288163  0.74794176  0.95376620  1
  Se  Se187  1  0.25215971  0.24612670  0.29926688  1
  Se  Se188  1  0.25139408  0.24958544  0.80947601  1
  Se  Se189  1  0.25041075  0.57238336  0.30650099  1
  Se  Se190  1  0.25363951  0.57892474  0.81340735  1
  Se  Se191  1  0.25440756  0.91399351  0.30375973  1
  Se  Se192  1  0.26238368  0.92692021  0.80254035  1
  Se  Se193  1  0.58762751  0.26399674  0.29159507  1
  Se  Se194  1  0.57799649  0.24913623  0.80306689  1
  Se  Se195  1  0.58497027  0.59186035  0.30341121  1
  Se  Se196  1  0.58404378  0.58451265  0.81177915  1
  Se  Se197  1  0.58729481  0.91311068  0.30429715  1
  Se  Se198  1  0.58627003  0.92006800  0.80519394  1
  Se  Se199  1  0.91935236  0.25302810  0.30320851  1
  Se  Se200  1  0.90186674  0.24118056  0.81262290  1
  Se  Se201  1  0.91141010  0.58299484  0.31239554  1
  Se  Se202  1  0.89743976  0.57780484  0.81715801  1
  Se  Se203  1  0.91307768  0.91450672  0.29583954  1
  Se  Se204  1  0.90810731  0.90805842  0.80953682  1
  Se  Se205  1  0.07975081  0.08025331  0.30088374  1
  Se  Se206  1  0.08758212  0.08965565  0.81072101  1
  Se  Se207  1  0.08465133  0.40955835  0.29950910  1
  Se  Se208  1  0.08449014  0.42168713  0.81892220  1
  Se  Se209  1  0.08478582  0.75430075  0.30443992  1
  Se  Se210  1  0.09750884  0.76103480  0.80603805  1
  Se  Se211  1  0.43626898  0.09135017  0.29944297  1
  Se  Se212  1  0.41641223  0.08089245  0.80486041  1
  Se  Se213  1  0.42004354  0.42779109  0.29620474  1
  Se  Se214  1  0.41900627  0.42554026  0.80738079  1
  Se  Se215  1  0.42355675  0.75409804  0.31435398  1
  Se  Se216  1  0.43623263  0.75048304  0.81924690  1
  Se  Se217  1  0.75186606  0.08317408  0.29859894  1
  Se  Se218  1  0.74424046  0.07869658  0.79975994  1
  Se  Se219  1  0.74720511  0.42093649  0.30332876  1
  Se  Se220  1  0.74017099  0.40919889  0.80384878  1
  Se  Se221  1  0.74692270  0.74569582  0.30034496  1
  Se  Se222  1  0.74627378  0.74703422  0.81343225  1
  Se  Se223  1  0.25146080  0.07665507  0.19922665  1
  Se  Se224  1  0.25524784  0.08412041  0.69383293  1
  Se  Se225  1  0.26195629  0.41418492  0.19292318  1
  Se  Se226  1  0.24398397  0.42685260  0.68755869  1
  Se  Se227  1  0.24496852  0.75572642  0.19330941  1
  Se  Se228  1  0.25098709  0.75808299  0.68665694  1
  Se  Se229  1  0.57399823  0.08110091  0.21067326  1
  Se  Se230  1  0.58686981  0.07993507  0.69755871  1
  Se  Se231  1  0.58953953  0.42404572  0.19429544  1
  Se  Se232  1  0.58297897  0.41703349  0.69545958  1
  Se  Se233  1  0.58227155  0.74712714  0.18762044  1
  Se  Se234  1  0.58495690  0.74466320  0.69540949  1
  Se  Se235  1  0.91602768  0.07872527  0.19269283  1
  Se  Se236  1  0.90632581  0.09394552  0.68403393  1
  Se  Se237  1  0.91685340  0.42034258  0.20405223  1
  Se  Se238  1  0.90393215  0.42682877  0.69209557  1
  Se  Se239  1  0.90248634  0.75594652  0.18094521  1
  Se  Se240  1  0.90865789  0.75554626  0.68773707  1
  Se  Se241  1  0.08207976  0.24935475  0.19607282  1
  Se  Se242  1  0.08839320  0.24721993  0.69589376  1
  Se  Se243  1  0.09519821  0.57688447  0.19202175  1
  Se  Se244  1  0.08429542  0.57983727  0.70590656  1
  Se  Se245  1  0.07841669  0.91967479  0.19695133  1
  Se  Se246  1  0.09026975  0.91525244  0.69112048  1
  Se  Se247  1  0.43036955  0.24113883  0.20464318  1
  Se  Se248  1  0.42930550  0.23966087  0.68144892  1
  Se  Se249  1  0.42997056  0.58715347  0.17744374  1
  Se  Se250  1  0.42499944  0.58103153  0.68818415  1
  Se  Se251  1  0.41644711  0.90993242  0.20330019  1
  Se  Se252  1  0.42300304  0.91347720  0.70089475  1
  Se  Se253  1  0.75236565  0.24926470  0.20118818  1
  Se  Se254  1  0.74106784  0.25479225  0.69657885  1
  Se  Se255  1  0.74740768  0.58776332  0.19295937  1
  Se  Se256  1  0.74222619  0.58792405  0.69583569  1
  Se  Se257  1  0.74126457  0.91939804  0.19387151  1
  Se  Se258  1  0.74803113  0.91549103  0.69575611  1
