# generated using pymatgen
data_In86Cu29Se144
_symmetry_space_group_name_H-M   'P 1'
_cell_length_a   17.58102198
_cell_length_b   17.58342417
_cell_length_c   23.44673369
_cell_angle_alpha   90.01746795
_cell_angle_beta   89.98312296
_cell_angle_gamma   90.01022780
_symmetry_Int_Tables_number   1
_chemical_formula_structural   In86Cu29Se144
_chemical_formula_sum   'In86 Cu29 Se144'
_cell_volume   7248.19509404
_cell_formula_units_Z   1
loop_
 _symmetry_equiv_pos_site_id
 _symmetry_equiv_pos_as_xyz
  1  'x, y, z'
loop_
 _atom_site_type_symbol
 _atom_site_label
 _atom_site_symmetry_multiplicity
 _atom_site_fract_x
 _atom_site_fract_y
 _atom_site_fract_z
 _atom_site_occupancy
  In  In0  1  0.01179230  0.17219762  0.10741683  1
  In  In1  1  0.01279906  0.15602934  0.63509511  1
  In  In2  1  -0.00298014  0.50831760  0.13429089  1
  In  In3  1  0.01322847  0.48569236  0.63696319  1
  In  In4  1  0.00378725  0.82864689  0.12566194  1
  In  In5  1  -0.00123204  0.83211462  0.62585935  1
  In  In6  1  0.33495058  0.16902463  0.11558460  1
  In  In7  1  0.31934155  0.17882890  0.63278846  1
  In  In8  1  0.32159282  0.48307790  0.13917370  1
  In  In9  1  0.31985787  0.48139801  0.59880308  1
  In  In10  1  0.33780179  0.83884137  0.13179246  1
  In  In11  1  0.33871877  0.83795592  0.62016918  1
  In  In12  1  0.67191092  0.17926351  0.11361732  1
  In  In13  1  0.65435855  0.16280199  0.62649417  1
  In  In14  1  0.67793713  0.48520008  0.14275416  1
  In  In15  1  0.66374388  0.51491038  0.61458568  1
  In  In16  1  0.66621566  0.82339804  0.13551628  1
  In  In17  1  0.66992629  0.83062881  0.61758034  1
  In  In18  1  0.17143581  -0.00565897  0.38642115  1
  In  In19  1  0.16129294  0.00066925  0.87498729  1
  In  In20  1  0.16963594  0.33343822  0.37834810  1
  In  In21  1  0.15694001  0.32295608  0.86748571  1
  In  In22  1  0.15545976  0.67545262  0.38072675  1
  In  In23  1  0.16422336  0.68432355  0.87742939  1
  In  In24  1  0.49310248  -0.00146963  0.38005635  1
  In  In25  1  0.50934234  0.00871265  0.86450103  1
  In  In26  1  0.50057339  0.34577285  0.35575437  1
  In  In27  1  0.48084677  0.33027496  0.86976221  1
  In  In28  1  0.50846729  0.66485934  0.37862450  1
  In  In29  1  0.51063205  0.66330540  0.87289424  1
  In  In30  1  0.82488090  -0.00923987  0.37915427  1
  In  In31  1  0.84699190  0.01824556  0.86421113  1
  In  In32  1  0.84264312  0.34879209  0.36585299  1
  In  In33  1  0.84328599  0.32272443  0.88811657  1
  In  In34  1  0.84358959  0.67011725  0.37251701  1
  In  In35  1  0.83860084  0.65327427  0.88206007  1
  In  In36  1  0.00814631  0.18332106  0.37004558  1
  In  In37  1  -0.00146444  0.16641936  0.88001323  1
  In  In38  1  0.01564812  0.50986907  0.35937645  1
  In  In39  1  -0.00138665  0.49162379  0.86899887  1
  In  In40  1  0.00912305  0.81844309  0.38526325  1
  In  In41  1  0.01411365  0.85025349  0.86284912  1
  In  In42  1  0.32133379  0.17318990  0.37851568  1
  In  In43  1  0.33052416  0.16412910  0.87325188  1
  In  In44  1  0.33798480  0.48423774  0.37980141  1
  In  In45  1  0.34311112  0.49146652  0.86836910  1
  In  In46  1  0.33224387  0.83187165  0.38718438  1
  In  In47  1  0.30942571  0.83624881  0.87644500  1
  In  In48  1  0.65610307  0.17482504  0.37053305  1
  In  In49  1  0.67559874  0.15987227  0.88325849  1
  In  In50  1  0.65522599  0.50338179  0.36146347  1
  In  In51  1  0.67204698  0.51170238  0.87770143  1
  In  In52  1  0.67344406  0.82262830  0.38851249  1
  In  In53  1  0.65446381  0.83483666  0.87354384  1
  In  In54  1  0.16580876  -0.00203625  0.11159391  1
  In  In55  1  0.16326953  0.00129868  0.62590511  1
  In  In56  1  0.17081601  0.32340656  0.13779537  1
  In  In57  1  0.17540827  0.32745531  0.62280166  1
  In  In58  1  0.15613910  0.66421967  0.13682729  1
  In  In59  1  0.16039816  0.65652840  0.61901798  1
  In  In60  1  0.48830330  0.00362297  0.12119151  1
  In  In61  1  0.50324438  -0.00658743  0.63453770  1
  In  In62  1  0.50364093  0.33199128  0.13393125  1
  In  In63  1  0.47963929  0.32888490  0.61276694  1
  In  In64  1  0.51506187  0.66718938  0.14280946  1
  In  In65  1  0.50020198  0.66188239  0.60543402  1
  In  In66  1  0.83030198  0.00792262  0.11597878  1
  In  In67  1  0.84420124  -0.01000323  0.63621310  1
  In  In68  1  0.83412828  0.33649460  0.12114599  1
  In  In69  1  0.84559010  0.34482140  0.62405974  1
  In  In70  1  0.84578567  0.65991907  0.13305562  1
  In  In71  1  0.83196757  0.68029228  0.62123738  1
  In  In72  1  0.49595666  0.16388404  0.49655574  1
  In  In73  1  0.16400287  0.49905661  0.00639008  1
  In  In74  1  0.49747619  0.83840834  0.00493308  1
  In  In75  1  0.83847440  0.16126543  0.50016308  1
  In  In76  1  0.66997329  0.67052277  0.74162212  1
  In  In77  1  0.66580812  0.00326838  0.24972474  1
  In  In78  1  0.50100294  0.49853829  0.00702229  1
  In  In79  1  0.83633750  0.50319010  0.49265365  1
  In  In80  1  0.33171798  -0.00093901  0.25717199  1
  In  In81  1  0.33524550  0.66211712  0.26458989  1
  In  In82  1  0.84229183  0.84259675  -0.00545467  1
  In  In83  1  0.66914007  0.33198959  0.74719034  1
  In  In84  1  0.33369450  0.66482235  0.74424617  1
  In  In85  1  -0.00029758  0.00068550  0.23998531  1
  Cu  Cu86  1  0.17322590  0.49976725  0.74396718  1
  Cu  Cu87  1  0.16597529  0.16513281  0.24898597  1
  Cu  Cu88  1  0.83471790  0.17069298  0.75576609  1
  Cu  Cu89  1  0.15962175  0.83838238  0.74760899  1
  Cu  Cu90  1  0.33379176  0.66575784  0.00488270  1
  Cu  Cu91  1  -0.00433453  0.66250702  0.50390135  1
  Cu  Cu92  1  0.49502839  0.49210041  0.73688931  1
  Cu  Cu93  1  0.16674181  0.16853171  0.75422698  1
  Cu  Cu94  1  0.49141600  0.83553990  0.74887500  1
  Cu  Cu95  1  0.66610206  0.00384038  -0.00387494  1
  Cu  Cu96  1  0.82570784  0.50234757  0.24815373  1
  Cu  Cu97  1  0.65919952  0.33947115  0.00508445  1
  Cu  Cu98  1  0.33110924  0.00190837  0.50764890  1
  Cu  Cu99  1  0.67957869  0.66232063  0.00894093  1
  Cu  Cu100  1  0.84108516  0.82909845  0.25326558  1
  Cu  Cu101  1  0.32403187  0.32754024  -0.00142847  1
  Cu  Cu102  1  0.82775967  0.17766947  0.24375773  1
  Cu  Cu103  1  0.49843497  0.17560171  0.24363941  1
  Cu  Cu104  1  -0.00276748  -0.00181347  0.50479618  1
  Cu  Cu105  1  0.66974576  -0.01147233  0.50777441  1
  Cu  Cu106  1  0.49796225  0.16464409  0.74833827  1
  Cu  Cu107  1  0.01522031  0.33047678  0.50187271  1
  Cu  Cu108  1  0.33131986  0.00025204  -0.00500762  1
  Cu  Cu109  1  0.00217779  0.66848791  0.00718525  1
  Cu  Cu110  1  0.83069517  0.83319010  0.74758724  1
  Cu  Cu111  1  0.66824016  0.33732903  0.48594769  1
  Cu  Cu112  1  0.32557185  0.66588793  0.49398631  1
  Cu  Cu113  1  0.84206105  0.49468564  0.75476605  1
  Cu  Cu114  1  -0.00307199  0.33687079  -0.00173028  1
  Se  Se115  1  0.08831789  0.08124970  0.04398694  1
  Se  Se116  1  0.08180516  0.08417988  0.55396397  1
  Se  Se117  1  0.07590884  0.40868218  0.06573727  1
  Se  Se118  1  0.09032817  0.41732093  0.55803850  1
  Se  Se119  1  0.09019386  0.74692472  0.05902902  1
  Se  Se120  1  0.07948632  0.74817272  0.55575757  1
  Se  Se121  1  0.41653334  0.08354332  0.04711422  1
  Se  Se122  1  0.41316739  0.08189449  0.56704428  1
  Se  Se123  1  0.40321394  0.40920509  0.05898183  1
  Se  Se124  1  0.44187452  0.43813219  0.54696801  1
  Se  Se125  1  0.41894441  0.73881016  0.06638948  1
  Se  Se126  1  0.40891495  0.74907612  0.54849377  1
  Se  Se127  1  0.74996884  0.08908793  0.04696165  1
  Se  Se128  1  0.74647958  0.07640881  0.56374067  1
  Se  Se129  1  0.74420161  0.42173496  0.05653835  1
  Se  Se130  1  0.74528093  0.40889389  0.55372817  1
  Se  Se131  1  0.75581357  0.75292042  0.06164233  1
  Se  Se132  1  0.72554593  0.72360311  0.55461479  1
  Se  Se133  1  0.23957314  0.25037793  0.05540708  1
  Se  Se134  1  0.26846190  0.26191532  0.55137728  1
  Se  Se135  1  0.25766639  0.58559608  0.06694021  1
  Se  Se136  1  0.24045726  0.58139661  0.54431501  1
  Se  Se137  1  0.26193603  0.91183702  0.05518826  1
  Se  Se138  1  0.24542878  0.91709421  0.55662265  1
  Se  Se139  1  0.57188752  0.25550501  0.05373573  1
  Se  Se140  1  0.59276060  0.25761690  0.55124440  1
  Se  Se141  1  0.59312707  0.58590183  0.06588805  1
  Se  Se142  1  0.58381864  0.58028136  0.53853816  1
  Se  Se143  1  0.59673301  0.92364204  0.06292737  1
  Se  Se144  1  0.57576617  0.91460735  0.55796865  1
  Se  Se145  1  0.91202444  0.25160670  0.05011455  1
  Se  Se146  1  0.92802418  0.25274308  0.55937072  1
  Se  Se147  1  0.91932588  0.58211305  0.05664838  1
  Se  Se148  1  0.92220519  0.57876535  0.56671231  1
  Se  Se149  1  0.93177615  0.92815999  0.05745764  1
  Se  Se150  1  0.91281527  0.91468832  0.55619388  1
  Se  Se151  1  0.09202347  0.24134112  0.44893684  1
  Se  Se152  1  0.08244898  0.25395177  0.94689174  1
  Se  Se153  1  0.07586966  0.58152367  0.44538771  1
  Se  Se154  1  0.07931083  0.58912775  0.94173757  1
  Se  Se155  1  0.08089429  0.91475258  0.45038025  1
  Se  Se156  1  0.09332754  0.90531728  0.94367246  1
  Se  Se157  1  0.41972584  0.25917128  0.43417117  1
  Se  Se158  1  0.41192434  0.24855373  0.94502304  1
  Se  Se159  1  0.41060950  0.58692100  0.43909129  1
  Se  Se160  1  0.41179421  0.59049464  0.94184240  1
  Se  Se161  1  0.41450316  0.92119106  0.45206221  1
  Se  Se162  1  0.41363269  0.91838817  0.93482354  1
  Se  Se163  1  0.75393823  0.25371984  0.43568136  1
  Se  Se164  1  0.74237263  0.25564907  0.95104689  1
  Se  Se165  1  0.74427596  0.58605156  0.43261883  1
  Se  Se166  1  0.75662591  0.57626169  0.95428955  1
  Se  Se167  1  0.75757471  0.90957740  0.45529883  1
  Se  Se168  1  0.74375151  0.92308881  0.93500125  1
  Se  Se169  1  0.25219057  0.08433956  0.44996122  1
  Se  Se170  1  0.24777091  0.08320525  0.94306541  1
  Se  Se171  1  0.25023602  0.41197807  0.45059898  1
  Se  Se172  1  0.25224763  0.41454817  0.93844347  1
  Se  Se173  1  0.23867543  0.75571226  0.45107366  1
  Se  Se174  1  0.24909844  0.74978850  0.95394168  1
  Se  Se175  1  0.59815697  0.07327972  0.44423537  1
  Se  Se176  1  0.57699778  0.08408934  0.94527084  1
  Se  Se177  1  0.58232523  0.41552933  0.43320406  1
  Se  Se178  1  0.58327627  0.41304053  0.93519984  1
  Se  Se179  1  0.56702435  0.76277731  0.44874966  1
  Se  Se180  1  0.59331274  0.73893214  0.95071287  1
  Se  Se181  1  0.92774299  0.07649451  0.43467820  1
  Se  Se182  1  0.90897174  0.08811835  0.94674162  1
  Se  Se183  1  0.93344059  0.41123811  0.44270501  1
  Se  Se184  1  0.91672565  0.42532958  0.94730917  1
  Se  Se185  1  0.91288314  0.74788533  0.45216052  1
  Se  Se186  1  0.92977022  0.74603280  0.93944913  1
  Se  Se187  1  0.24718818  0.24965273  0.30285250  1
  Se  Se188  1  0.25456744  0.25296001  0.80307349  1
  Se  Se189  1  0.24108468  0.57711319  0.32139664  1
  Se  Se190  1  0.24443928  0.57975689  0.81251817  1
  Se  Se191  1  0.24146979  0.90540082  0.31109828  1
  Se  Se192  1  0.24470204  0.92025161  0.80084172  1
  Se  Se193  1  0.58770596  0.25457964  0.29475795  1
  Se  Se194  1  0.57943625  0.24512682  0.80994994  1
  Se  Se195  1  0.57972638  0.59590572  0.29681701  1
  Se  Se196  1  0.57642020  0.57025172  0.79770578  1
  Se  Se197  1  0.58686956  0.91764470  0.31754110  1
  Se  Se198  1  0.58350012  0.91440259  0.79814216  1
  Se  Se199  1  0.91430644  0.25087397  0.30172913  1
  Se  Se200  1  0.91798369  0.25273973  0.80875693  1
  Se  Se201  1  0.91406518  0.58262610  0.30037023  1
  Se  Se202  1  0.92013656  0.58622654  0.80487227  1
  Se  Se203  1  0.91784857  0.91534019  0.31032659  1
  Se  Se204  1  0.91364866  0.91845597  0.79974683  1
  Se  Se205  1  0.09103123  0.08054178  0.30955563  1
  Se  Se206  1  0.08081444  0.08772096  0.80732434  1
  Se  Se207  1  0.05926629  0.38464220  0.31455450  1
  Se  Se208  1  0.08934806  0.41929112  0.80037328  1
  Se  Se209  1  0.07609692  0.74756304  0.30416347  1
  Se  Se210  1  0.08161967  0.74759084  0.79917493  1
  Se  Se211  1  0.42535212  0.09647161  0.30966238  1
  Se  Se212  1  0.41297280  0.08224790  0.80140404  1
  Se  Se213  1  0.40045228  0.41389672  0.29439234  1
  Se  Se214  1  0.41251827  0.41140188  0.79202151  1
  Se  Se215  1  0.42237815  0.76325520  0.31398967  1
  Se  Se216  1  0.41970358  0.75290873  0.81356744  1
  Se  Se217  1  0.75897568  0.09417345  0.30901717  1
  Se  Se218  1  0.74421564  0.08670121  0.80171828  1
  Se  Se219  1  0.74503091  0.41625111  0.30064594  1
  Se  Se220  1  0.75528499  0.41917932  0.81383961  1
  Se  Se221  1  0.75332888  0.75500010  0.30938354  1
  Se  Se222  1  0.75620514  0.75162425  0.81331407  1
  Se  Se223  1  0.24617593  0.08377292  0.18904486  1
  Se  Se224  1  0.24517650  0.08435193  0.69673215  1
  Se  Se225  1  0.22292576  0.42620745  0.20638243  1
  Se  Se226  1  0.25695985  0.42118056  0.68833735  1
  Se  Se227  1  0.25114570  0.75291184  0.19688828  1
  Se  Se228  1  0.24121086  0.75598605  0.68782935  1
  Se  Se229  1  0.57763655  0.09147386  0.18571789  1
  Se  Se230  1  0.58565035  0.08086553  0.70114763  1
  Se  Se231  1  0.56665079  0.42995786  0.19976103  1
  Se  Se232  1  0.58376882  0.41748309  0.67972217  1
  Se  Se233  1  0.58365560  0.75906782  0.21047958  1
  Se  Se234  1  0.56749446  0.75106379  0.68754815  1
  Se  Se235  1  0.90882994  0.09628839  0.18580343  1
  Se  Se236  1  0.91636344  0.08574706  0.70073080  1
  Se  Se237  1  0.90990141  0.41901149  0.19469258  1
  Se  Se238  1  0.92359722  0.40674549  0.70454922  1
  Se  Se239  1  0.92606102  0.74925394  0.19869047  1
  Se  Se240  1  0.91444356  0.74889555  0.69632080  1
  Se  Se241  1  0.07405929  0.23856799  0.19486536  1
  Se  Se242  1  0.08869152  0.25340505  0.69595105  1
  Se  Se243  1  0.09321359  0.56939302  0.20462436  1
  Se  Se244  1  0.08555859  0.58622824  0.69907907  1
  Se  Se245  1  0.09923912  0.91099236  0.19077955  1
  Se  Se246  1  0.07574056  0.92148321  0.69461357  1
  Se  Se247  1  0.40597298  0.24954582  0.19215825  1
  Se  Se248  1  0.41978839  0.25202806  0.69523114  1
  Se  Se249  1  0.41672177  0.57595937  0.19376277  1
  Se  Se250  1  0.41860025  0.57839544  0.67992619  1
  Se  Se251  1  0.43271279  0.91318466  0.20043500  1
  Se  Se252  1  0.40620534  0.91891240  0.69869149  1
  Se  Se253  1  0.74351803  0.25797322  0.19016250  1
  Se  Se254  1  0.76086268  0.24286976  0.68476172  1
  Se  Se255  1  0.74611653  0.59413529  0.19864782  1
  Se  Se256  1  0.76265098  0.57143394  0.69130264  1
  Se  Se257  1  0.76521413  0.91360282  0.19281114  1
  Se  Se258  1  0.74344792  0.91077523  0.69330019  1
