# generated using pymatgen
data_In86Cu29Se144
_symmetry_space_group_name_H-M   'P 1'
_cell_length_a   17.58182092
_cell_length_b   17.58441345
_cell_length_c   23.43387244
_cell_angle_alpha   89.98011664
_cell_angle_beta   89.99447997
_cell_angle_gamma   90.02991809
_symmetry_Int_Tables_number   1
_chemical_formula_structural   In86Cu29Se144
_chemical_formula_sum   'In86 Cu29 Se144'
_cell_volume   7244.95534215
_cell_formula_units_Z   1
loop_
 _symmetry_equiv_pos_site_id
 _symmetry_equiv_pos_as_xyz
  1  'x, y, z'
loop_
 _atom_site_type_symbol
 _atom_site_label
 _atom_site_symmetry_multiplicity
 _atom_site_fract_x
 _atom_site_fract_y
 _atom_site_fract_z
 _atom_site_occupancy
  In  In0  1  0.00345043  0.16755142  0.12791694  1
  In  In1  1  0.01585361  0.17112825  0.62272080  1
  In  In2  1  0.01396415  0.48774407  0.13258402  1
  In  In3  1  -0.01018440  0.49999208  0.62766430  1
  In  In4  1  -0.00546036  0.83451133  0.12159420  1
  In  In5  1  -0.00610001  0.85204808  0.62142547  1
  In  In6  1  0.33406090  0.16820516  0.13474622  1
  In  In7  1  0.32313610  0.16508745  0.61776035  1
  In  In8  1  0.32030178  0.48711719  0.11196633  1
  In  In9  1  0.35256316  0.48332398  0.62677626  1
  In  In10  1  0.33069108  0.84951687  0.12781555  1
  In  In11  1  0.34196308  0.83843968  0.62923518  1
  In  In12  1  0.66005809  0.16012344  0.11465162  1
  In  In13  1  0.65404215  0.17981357  0.63754826  1
  In  In14  1  0.66218881  0.51799912  0.11546626  1
  In  In15  1  0.65010065  0.50148994  0.63844079  1
  In  In16  1  0.66815300  0.81351296  0.11590415  1
  In  In17  1  0.68159262  0.82995960  0.63890478  1
  In  In18  1  0.19723241  0.03379403  0.33630509  1
  In  In19  1  0.17444216  -0.00341615  0.88480000  1
  In  In20  1  0.16884187  0.32581341  0.36635936  1
  In  In21  1  0.16172179  0.33767699  0.88380988  1
  In  In22  1  0.16210049  0.67472363  0.36542846  1
  In  In23  1  0.18325669  0.66183047  0.90119385  1
  In  In24  1  0.49045935  0.02009947  0.37626349  1
  In  In25  1  0.50870709  0.00767945  0.87100060  1
  In  In26  1  0.49429200  0.32996151  0.37606880  1
  In  In27  1  0.50206893  0.33091150  0.87871608  1
  In  In28  1  0.49935829  0.64844226  0.37359235  1
  In  In29  1  0.51328721  0.64936734  0.88617347  1
  In  In30  1  0.83392139  -0.00801969  0.37581484  1
  In  In31  1  0.83329881  -0.00171547  0.87889627  1
  In  In32  1  0.84212383  0.32745196  0.37217513  1
  In  In33  1  0.82587899  0.32591680  0.87246177  1
  In  In34  1  0.84239767  0.67838347  0.36566192  1
  In  In35  1  0.82055807  0.68081215  0.87901417  1
  In  In36  1  0.02380562  0.18461977  0.34780898  1
  In  In37  1  -0.00517997  0.17286247  0.88405589  1
  In  In38  1  0.00182887  0.50236507  0.36402015  1
  In  In39  1  0.01279954  0.49959488  0.87868098  1
  In  In40  1  -0.00396056  0.84020825  0.36557101  1
  In  In41  1  0.00055797  0.83485513  0.88375303  1
  In  In42  1  0.33499522  0.16860480  0.36665987  1
  In  In43  1  0.34184121  0.15938078  0.88414298  1
  In  In44  1  0.35320675  0.49109185  0.37749932  1
  In  In45  1  0.34324605  0.49409164  0.88801357  1
  In  In46  1  0.32567429  0.83621407  0.37087004  1
  In  In47  1  0.32151750  0.83319507  0.88049207  1
  In  In48  1  0.65637003  0.16033726  0.37986646  1
  In  In49  1  0.66672712  0.16573234  0.87870276  1
  In  In50  1  0.65206835  0.50171360  0.37465234  1
  In  In51  1  0.65729497  0.49630148  0.86591862  1
  In  In52  1  0.68184855  0.83691030  0.37576146  1
  In  In53  1  0.67741857  0.83796108  0.86251223  1
  In  In54  1  0.16636422  0.00719058  0.12710375  1
  In  In55  1  0.16079521  0.01489010  0.62423792  1
  In  In56  1  0.16762159  0.32576979  0.12989952  1
  In  In57  1  0.17763741  0.31752246  0.62766605  1
  In  In58  1  0.15910675  0.65202719  0.11440503  1
  In  In59  1  0.16410604  0.66528531  0.62519747  1
  In  In60  1  0.48792193  0.00490497  0.12988844  1
  In  In61  1  0.48962266  0.01112808  0.63512577  1
  In  In62  1  0.48632396  0.32411512  0.11806201  1
  In  In63  1  0.50216517  0.33768136  0.61534974  1
  In  In64  1  0.51171866  0.66451068  0.12108586  1
  In  In65  1  0.51543431  0.66446250  0.62737459  1
  In  In66  1  0.83974333  0.00643683  0.11387713  1
  In  In67  1  0.83409510  -0.01016534  0.62351295  1
  In  In68  1  0.84807275  0.33344375  0.12519506  1
  In  In69  1  0.83361600  0.33072279  0.63707522  1
  In  In70  1  0.82562514  0.67645720  0.12344893  1
  In  In71  1  0.81911688  0.66823932  0.62791306  1
  In  In72  1  0.82540238  0.50086196  0.50575984  1
  In  In73  1  0.50603095  0.83266695  0.50611756  1
  In  In74  1  0.67032473  0.33877409  0.25275312  1
  In  In75  1  -0.00701960  0.00539390  0.75633556  1
  In  In76  1  0.83632348  0.49752318  -0.00099628  1
  In  In77  1  0.33772643  0.67108485  0.76226282  1
  In  In78  1  0.83334419  0.15888695  0.49745621  1
  In  In79  1  0.16374585  0.83967942  0.48603308  1
  In  In80  1  -0.00648891  0.67018979  0.76229175  1
  In  In81  1  0.34039125  0.33073904  0.75670045  1
  In  In82  1  0.33384027  0.66393819  0.24609903  1
  In  In83  1  0.49628339  0.83807133  0.00044703  1
  In  In84  1  0.16607293  0.49045700  0.49092083  1
  In  In85  1  0.66567326  -0.00236582  0.24859521  1
  Cu  Cu86  1  0.83180963  0.49234321  0.75233955  1
  Cu  Cu87  1  -0.00569672  0.68166644  0.49225891  1
  Cu  Cu88  1  0.83629963  0.16670788  0.24384397  1
  Cu  Cu89  1  0.00079680  -0.00067669  0.00373066  1
  Cu  Cu90  1  0.83214606  0.16399092  0.75712960  1
  Cu  Cu91  1  0.16913833  0.16667738  0.74903442  1
  Cu  Cu92  1  0.33476586  0.65024222  0.50236304  1
  Cu  Cu93  1  0.66529684  0.33287007  -0.00513153  1
  Cu  Cu94  1  0.17124030  0.49736597  0.24420092  1
  Cu  Cu95  1  0.82938949  0.83075924  0.24445808  1
  Cu  Cu96  1  0.65748296  0.33246787  0.50386401  1
  Cu  Cu97  1  0.00785103  0.32654918  0.00774164  1
  Cu  Cu98  1  0.50117344  0.84063735  0.75166546  1
  Cu  Cu99  1  0.16381102  0.49541793  0.75903801  1
  Cu  Cu100  1  0.00571712  0.32995256  0.49563340  1
  Cu  Cu101  1  0.83474405  0.50917447  0.24222712  1
  Cu  Cu102  1  0.50222162  0.49650010  0.24651854  1
  Cu  Cu103  1  0.16686328  0.83627133  0.76117686  1
  Cu  Cu104  1  0.66369959  -0.00215970  0.50472168  1
  Cu  Cu105  1  0.00155352  0.00640360  0.49003935  1
  Cu  Cu106  1  0.66854197  0.66636937  0.50415463  1
  Cu  Cu107  1  0.66591016  -0.00099697  -0.00553973  1
  Cu  Cu108  1  0.50032207  0.16718269  0.75487953  1
  Cu  Cu109  1  0.15371190  0.83110256  0.24186983  1
  Cu  Cu110  1  0.33013458  0.01112526  0.00747602  1
  Cu  Cu111  1  0.50792839  0.83282350  0.24552049  1
  Cu  Cu112  1  -0.00219744  0.66408934  0.00270862  1
  Cu  Cu113  1  0.33243447  0.32972175  0.00422032  1
  Cu  Cu114  1  0.32608670  0.00448776  0.49656222  1
  Se  Se115  1  0.08235189  0.08551378  0.05542897  1
  Se  Se116  1  0.08384279  0.08671411  0.54718826  1
  Se  Se117  1  0.09121813  0.41367723  0.05690446  1
  Se  Se118  1  0.07745421  0.41125838  0.56155307  1
  Se  Se119  1  0.08034818  0.74960505  0.05485059  1
  Se  Se120  1  0.07832673  0.75201281  0.55671617  1
  Se  Se121  1  0.41776398  0.09143860  0.05847722  1
  Se  Se122  1  0.41202518  0.07854564  0.55536520  1
  Se  Se123  1  0.42120941  0.41936518  0.04813192  1
  Se  Se124  1  0.40711027  0.40342745  0.54674403  1
  Se  Se125  1  0.41067577  0.75141025  0.06516724  1
  Se  Se126  1  0.40960100  0.73828870  0.56034263  1
  Se  Se127  1  0.74931035  0.08417954  0.04772774  1
  Se  Se128  1  0.74089342  0.08315014  0.56465760  1
  Se  Se129  1  0.74447249  0.40860056  0.06080889  1
  Se  Se130  1  0.74091588  0.40721466  0.56530088  1
  Se  Se131  1  0.75191586  0.74388426  0.04330807  1
  Se  Se132  1  0.74802081  0.75435290  0.55554165  1
  Se  Se133  1  0.25236094  0.24621080  0.06010806  1
  Se  Se134  1  0.24393914  0.24721524  0.54770097  1
  Se  Se135  1  0.25850995  0.59024236  0.04929157  1
  Se  Se136  1  0.25108263  0.57626660  0.56243368  1
  Se  Se137  1  0.24726839  0.92273372  0.05549883  1
  Se  Se138  1  0.25152938  0.91912868  0.55795721  1
  Se  Se139  1  0.58139365  0.25179806  0.05115602  1
  Se  Se140  1  0.58017237  0.24060036  0.55342551  1
  Se  Se141  1  0.57689181  0.58540059  0.04258205  1
  Se  Se142  1  0.58729169  0.57886575  0.55493383  1
  Se  Se143  1  0.58842584  0.92586058  0.06362937  1
  Se  Se144  1  0.58761642  0.92186922  0.57095348  1
  Se  Se145  1  0.91695411  0.24493191  0.05447206  1
  Se  Se146  1  0.91908014  0.25730759  0.55705068  1
  Se  Se147  1  0.92443584  0.58010059  0.06524311  1
  Se  Se148  1  0.92287472  0.59745435  0.55615048  1
  Se  Se149  1  0.91209001  0.91166469  0.04786088  1
  Se  Se150  1  0.91805412  0.92540954  0.54485440  1
  Se  Se151  1  0.08299125  0.24809654  0.43785078  1
  Se  Se152  1  0.08931815  0.24407192  0.95112228  1
  Se  Se153  1  0.07590325  0.59469100  0.44004667  1
  Se  Se154  1  0.08434729  0.57773990  0.95478861  1
  Se  Se155  1  0.08364959  0.93326402  0.42638550  1
  Se  Se156  1  0.08505767  0.91645956  0.95008724  1
  Se  Se157  1  0.43251597  0.22661598  0.43788857  1
  Se  Se158  1  0.41903393  0.25095960  0.94879358  1
  Se  Se159  1  0.42574039  0.57443672  0.45163402  1
  Se  Se160  1  0.39309562  0.61163717  0.94156912  1
  Se  Se161  1  0.40962195  0.91675195  0.44429269  1
  Se  Se162  1  0.40884531  0.93285848  0.94230438  1
  Se  Se163  1  0.74256588  0.25919241  0.44187985  1
  Se  Se164  1  0.75238524  0.24753708  0.94835609  1
  Se  Se165  1  0.74653868  0.59070343  0.43780812  1
  Se  Se166  1  0.74250809  0.58121850  0.94001029  1
  Se  Se167  1  0.75061280  0.92058048  0.45110797  1
  Se  Se168  1  0.74746480  0.91233650  0.94396155  1
  Se  Se169  1  0.24761752  0.08107881  0.43419584  1
  Se  Se170  1  0.24542353  0.09151023  0.95167438  1
  Se  Se171  1  0.26160773  0.40189299  0.43858069  1
  Se  Se172  1  0.25068358  0.41556492  0.95074079  1
  Se  Se173  1  0.25972436  0.73442286  0.44195054  1
  Se  Se174  1  0.24420824  0.76894660  0.95960383  1
  Se  Se175  1  0.57960244  0.08003332  0.45269726  1
  Se  Se176  1  0.57957044  0.08592202  0.94853465  1
  Se  Se177  1  0.58053643  0.41368534  0.44397115  1
  Se  Se178  1  0.58378209  0.41988455  0.94437154  1
  Se  Se179  1  0.58850172  0.74324754  0.43927709  1
  Se  Se180  1  0.59045482  0.75689708  0.93889680  1
  Se  Se181  1  0.92697260  0.09069732  0.42812059  1
  Se  Se182  1  0.91668237  0.08006602  0.94740173  1
  Se  Se183  1  0.92356552  0.41691735  0.44307953  1
  Se  Se184  1  0.92729494  0.40369364  0.94281547  1
  Se  Se185  1  0.91214147  0.76375056  0.43999599  1
  Se  Se186  1  0.91682528  0.74591944  0.94705694  1
  Se  Se187  1  0.24439743  0.24099965  0.29726694  1
  Se  Se188  1  0.24582905  0.24403455  0.81444213  1
  Se  Se189  1  0.24951476  0.57219265  0.31204979  1
  Se  Se190  1  0.24370469  0.57679143  0.81626432  1
  Se  Se191  1  0.24589818  0.90430178  0.29530063  1
  Se  Se192  1  0.25261553  0.92234412  0.80763533  1
  Se  Se193  1  0.58090794  0.24192433  0.30492771  1
  Se  Se194  1  0.58362562  0.24919869  0.80886844  1
  Se  Se195  1  0.58469673  0.58372803  0.29707411  1
  Se  Se196  1  0.58131410  0.58888549  0.80083530  1
  Se  Se197  1  0.57603957  0.91321198  0.31552416  1
  Se  Se198  1  0.58770165  0.92393574  0.80170058  1
  Se  Se199  1  0.91585845  0.25754880  0.29372543  1
  Se  Se200  1  0.91863236  0.24764588  0.80694151  1
  Se  Se201  1  0.91955388  0.58878533  0.29918621  1
  Se  Se202  1  0.90543526  0.57290368  0.81769162  1
  Se  Se203  1  0.90784418  0.91948547  0.29709232  1
  Se  Se204  1  0.91035535  0.90286340  0.80753699  1
  Se  Se205  1  0.06430938  0.06284606  0.29623249  1
  Se  Se206  1  0.08997161  0.08948943  0.81335453  1
  Se  Se207  1  0.08747491  0.41737690  0.30211743  1
  Se  Se208  1  0.08007092  0.40899293  0.80680577  1
  Se  Se209  1  0.07402586  0.74875368  0.29830638  1
  Se  Se210  1  0.09650754  0.74821332  0.82014028  1
  Se  Se211  1  0.40145530  0.06723018  0.29896768  1
  Se  Se212  1  0.41394619  0.08422015  0.80567455  1
  Se  Se213  1  0.42107357  0.41203322  0.29982547  1
  Se  Se214  1  0.42762335  0.42981426  0.80838565  1
  Se  Se215  1  0.42606239  0.75364678  0.30891436  1
  Se  Se216  1  0.42843020  0.76252477  0.81849898  1
  Se  Se217  1  0.75578995  0.09262687  0.30840267  1
  Se  Se218  1  0.75046145  0.08094675  0.81013673  1
  Se  Se219  1  0.76223014  0.43154743  0.31197831  1
  Se  Se220  1  0.74598106  0.41036081  0.80409993  1
  Se  Se221  1  0.74531738  0.75029517  0.30008287  1
  Se  Se222  1  0.74923661  0.74315611  0.79637781  1
  Se  Se223  1  0.25349423  0.07739146  0.19967019  1
  Se  Se224  1  0.25048248  0.08351626  0.69491643  1
  Se  Se225  1  0.25582459  0.41376263  0.19424563  1
  Se  Se226  1  0.24651719  0.42228082  0.69565988  1
  Se  Se227  1  0.24133864  0.75090162  0.18639676  1
  Se  Se228  1  0.24231481  0.75598498  0.69540705  1
  Se  Se229  1  0.57653300  0.09396793  0.19584735  1
  Se  Se230  1  0.58439981  0.08175158  0.70226212  1
  Se  Se231  1  0.58423873  0.42048348  0.18397642  1
  Se  Se232  1  0.57608743  0.40234165  0.69645920  1
  Se  Se233  1  0.58754475  0.74675459  0.19464441  1
  Se  Se234  1  0.58163664  0.75415044  0.69835919  1
  Se  Se235  1  0.91482348  0.07918816  0.19151161  1
  Se  Se236  1  0.91238289  0.09518136  0.68722701  1
  Se  Se237  1  0.91775275  0.41722290  0.19931993  1
  Se  Se238  1  0.92198744  0.41461588  0.70094925  1
  Se  Se239  1  0.91576871  0.74858246  0.19288579  1
  Se  Se240  1  0.91818607  0.75450239  0.68789419  1
  Se  Se241  1  0.07688839  0.25389553  0.19890630  1
  Se  Se242  1  0.08467745  0.25272832  0.69951945  1
  Se  Se243  1  0.08685144  0.58516849  0.19754240  1
  Se  Se244  1  0.08658175  0.57897714  0.69860927  1
  Se  Se245  1  0.07662525  0.91952972  0.18950704  1
  Se  Se246  1  0.08946870  0.91433161  0.69661029  1
  Se  Se247  1  0.41666318  0.25755571  0.19936719  1
  Se  Se248  1  0.41940999  0.24136423  0.68974531  1
  Se  Se249  1  0.41994071  0.57407592  0.18473397  1
  Se  Se250  1  0.41996570  0.58352411  0.69383204  1
  Se  Se251  1  0.41805854  0.91644849  0.20185646  1
  Se  Se252  1  0.41085164  0.92119283  0.70286594  1
  Se  Se253  1  0.75062051  0.24434277  0.18650175  1
  Se  Se254  1  0.74918543  0.25020838  0.70400532  1
  Se  Se255  1  0.74652605  0.58638640  0.19081710  1
  Se  Se256  1  0.75156019  0.57670893  0.69707993  1
  Se  Se257  1  0.75074925  0.91151574  0.18266142  1
  Se  Se258  1  0.75838820  0.92272034  0.70173308  1
