# generated using pymatgen
data_In86Cu29Se144
_symmetry_space_group_name_H-M   'P 1'
_cell_length_a   17.58958238
_cell_length_b   17.58605887
_cell_length_c   23.45172931
_cell_angle_alpha   89.97172038
_cell_angle_beta   89.99063877
_cell_angle_gamma   90.01313231
_symmetry_Int_Tables_number   1
_chemical_formula_structural   In86Cu29Se144
_chemical_formula_sum   'In86 Cu29 Se144'
_cell_volume   7254.35581994
_cell_formula_units_Z   1
loop_
 _symmetry_equiv_pos_site_id
 _symmetry_equiv_pos_as_xyz
  1  'x, y, z'
loop_
 _atom_site_type_symbol
 _atom_site_label
 _atom_site_symmetry_multiplicity
 _atom_site_fract_x
 _atom_site_fract_y
 _atom_site_fract_z
 _atom_site_occupancy
  In  In0  1  0.01809096  0.16402670  0.12704614  1
  In  In1  1  0.01111241  0.15810662  0.62085430  1
  In  In2  1  -0.00412049  0.50410918  0.12165191  1
  In  In3  1  -0.00377890  0.52025637  0.62258707  1
  In  In4  1  0.00945734  0.80886564  0.12244483  1
  In  In5  1  0.00110672  0.81755498  0.62089299  1
  In  In6  1  0.32359859  0.15746096  0.11789371  1
  In  In7  1  0.32717083  0.15961961  0.61840830  1
  In  In8  1  0.33195593  0.51758287  0.12262097  1
  In  In9  1  0.33652726  0.49042161  0.62249513  1
  In  In10  1  0.33610337  0.82764224  0.12058230  1
  In  In11  1  0.33919861  0.84131689  0.62720637  1
  In  In12  1  0.66377349  0.18060788  0.12500030  1
  In  In13  1  0.64976895  0.17909831  0.63148542  1
  In  In14  1  0.67418168  0.49156878  0.12921476  1
  In  In15  1  0.66755034  0.49976263  0.62447820  1
  In  In16  1  0.64849188  0.82879499  0.11976458  1
  In  In17  1  0.67052968  0.82848290  0.63632936  1
  In  In18  1  0.17806730  -0.01599385  0.38127882  1
  In  In19  1  0.18137181  -0.00363717  0.87854981  1
  In  In20  1  0.15386693  0.33947886  0.37212083  1
  In  In21  1  0.17663158  0.33396697  0.89386762  1
  In  In22  1  0.17662953  0.67346911  0.36847859  1
  In  In23  1  0.15774034  0.67494075  0.88884741  1
  In  In24  1  0.49592344  0.01039786  0.37798970  1
  In  In25  1  0.49489259  0.00277189  0.87134231  1
  In  In26  1  0.50806289  0.32784335  0.37485748  1
  In  In27  1  0.49443901  0.32828591  0.87357416  1
  In  In28  1  0.48540270  0.65403547  0.36980518  1
  In  In29  1  0.51544440  0.66238620  0.87727399  1
  In  In30  1  0.83812303  -0.00136535  0.37769969  1
  In  In31  1  0.82854122  0.01083240  0.87111185  1
  In  In32  1  0.84255415  0.34897720  0.37061602  1
  In  In33  1  0.82923189  0.35218360  0.87561287  1
  In  In34  1  0.82161528  0.65745740  0.36682880  1
  In  In35  1  0.82938693  0.66005234  0.87301929  1
  In  In36  1  -0.00090873  0.17657582  0.37783460  1
  In  In37  1  0.00501413  0.17600099  0.87890983  1
  In  In38  1  -0.00488726  0.49683891  0.37044508  1
  In  In39  1  -0.00742977  0.51065478  0.88908275  1
  In  In40  1  0.02111582  0.82715945  0.37779930  1
  In  In41  1  0.01679095  0.82740380  0.88113709  1
  In  In42  1  0.34148764  0.15848061  0.37344277  1
  In  In43  1  0.34452710  0.16554774  0.88462866  1
  In  In44  1  0.33561720  0.51891478  0.37478619  1
  In  In45  1  0.33075446  0.49470741  0.88269324  1
  In  In46  1  0.31633718  0.81771613  0.36360025  1
  In  In47  1  0.32087816  0.83856022  0.88201259  1
  In  In48  1  0.65153536  0.16782227  0.37714398  1
  In  In49  1  0.65177566  0.15962900  0.86382275  1
  In  In50  1  0.66442358  0.50041666  0.37417423  1
  In  In51  1  0.66952851  0.51534649  0.86471219  1
  In  In52  1  0.67884290  0.82667767  0.37576431  1
  In  In53  1  0.65752818  0.82657563  0.87149562  1
  In  In54  1  0.18258935  0.00351267  0.12228464  1
  In  In55  1  0.17453865  0.00266769  0.61864588  1
  In  In56  1  0.16242352  0.32334750  0.12173152  1
  In  In57  1  0.17928106  0.32681447  0.62172769  1
  In  In58  1  0.16636534  0.66692616  0.11462637  1
  In  In59  1  0.14874804  0.66456725  0.62422475  1
  In  In60  1  0.48650216  -0.01399424  0.11722420  1
  In  In61  1  0.48564463  0.00427018  0.63197181  1
  In  In62  1  0.51395146  0.33687802  0.12419358  1
  In  In63  1  0.51176047  0.34306438  0.61457237  1
  In  In64  1  0.49184181  0.67290020  0.13240568  1
  In  In65  1  0.51054567  0.66540580  0.62605366  1
  In  In66  1  0.83461908  0.00373423  0.12515026  1
  In  In67  1  0.83052995  -0.01427255  0.62893245  1
  In  In68  1  0.82705460  0.34621749  0.13004610  1
  In  In69  1  0.81379761  0.33424269  0.62542060  1
  In  In70  1  0.84999361  0.64460041  0.13358433  1
  In  In71  1  0.84484314  0.65848945  0.62645921  1
  In  In72  1  0.49575648  0.50273804  -0.00038320  1
  In  In73  1  -0.00305513  0.33932668  0.75710777  1
  In  In74  1  0.83175260  0.82861480  -0.00041477  1
  In  In75  1  0.83388479  0.17075995  0.50100277  1
  In  In76  1  0.33524808  0.33679597  0.24080365  1
  In  In77  1  0.84257189  0.83022747  0.50341343  1
  In  In78  1  0.83143538  0.17065555  -0.00240650  1
  In  In79  1  0.17016006  0.49964353  0.49762277  1
  In  In80  1  0.49709260  0.82946504  0.50302116  1
  In  In81  1  -0.00407175  -0.00681487  0.74839778  1
  In  In82  1  0.66602819  -0.00122813  0.25551560  1
  In  In83  1  0.33922796  0.66680849  0.74987309  1
  In  In84  1  0.00430093  -0.00177596  0.25696572  1
  In  In85  1  0.33641364  0.33157341  0.75750025  1
  Cu  Cu86  1  0.82969979  0.82739442  0.75267726  1
  Cu  Cu87  1  0.00133357  0.33718334  0.49674466  1
  Cu  Cu88  1  0.17044641  0.83094024  0.24370902  1
  Cu  Cu89  1  0.49588254  0.83310930  0.24663893  1
  Cu  Cu90  1  0.33962363  0.32463785  0.49629008  1
  Cu  Cu91  1  0.67210905  0.66081608  0.00009704  1
  Cu  Cu92  1  0.66582332  0.65849892  0.49866215  1
  Cu  Cu93  1  0.83117385  0.50539070  0.74921162  1
  Cu  Cu94  1  0.16963901  0.16883900  0.24718444  1
  Cu  Cu95  1  0.66172767  0.00558958  0.50846407  1
  Cu  Cu96  1  0.83584635  0.18102356  0.25247999  1
  Cu  Cu97  1  0.33670574  0.00059375  -0.00073210  1
  Cu  Cu98  1  0.00130509  0.33245835  0.00384660  1
  Cu  Cu99  1  0.01043915  -0.00487070  0.00485732  1
  Cu  Cu100  1  0.66272479  0.33490537  -0.00010888  1
  Cu  Cu101  1  0.50172068  0.16209680  0.25016870  1
  Cu  Cu102  1  0.83099501  0.50026947  0.25013676  1
  Cu  Cu103  1  0.50047053  0.83727807  0.75274071  1
  Cu  Cu104  1  0.83147503  0.82337366  0.24614562  1
  Cu  Cu105  1  0.17046540  0.16021405  0.74785864  1
  Cu  Cu106  1  0.66499056  0.34078429  0.49879009  1
  Cu  Cu107  1  0.65331112  0.00502189  -0.00650838  1
  Cu  Cu108  1  0.15844453  0.50988333  0.24714311  1
  Cu  Cu109  1  0.82122831  0.16856472  0.74761227  1
  Cu  Cu110  1  0.50408471  0.50164534  0.24826379  1
  Cu  Cu111  1  0.16059709  0.50514038  0.75721193  1
  Cu  Cu112  1  0.33461607  -0.00237653  0.49961635  1
  Cu  Cu113  1  0.49262326  0.16836684  0.74838041  1
  Cu  Cu114  1  0.16556341  0.82848502  0.75700141  1
  Se  Se115  1  0.09222203  0.08265933  0.05493530  1
  Se  Se116  1  0.09543034  0.08859896  0.55080976  1
  Se  Se117  1  0.08207662  0.41500289  0.05862913  1
  Se  Se118  1  0.07968070  0.41263504  0.56350871  1
  Se  Se119  1  0.08940292  0.75281065  0.04282996  1
  Se  Se120  1  0.08418456  0.74740610  0.54806073  1
  Se  Se121  1  0.41998311  0.08556526  0.05203717  1
  Se  Se122  1  0.41892278  0.08135122  0.55196044  1
  Se  Se123  1  0.41207342  0.41329832  0.06429813  1
  Se  Se124  1  0.41551205  0.41467014  0.54895510  1
  Se  Se125  1  0.43482599  0.75901157  0.05546433  1
  Se  Se126  1  0.40803314  0.73864384  0.56185888  1
  Se  Se127  1  0.73866716  0.07702377  0.05615950  1
  Se  Se128  1  0.74672020  0.08244335  0.56645400  1
  Se  Se129  1  0.74942299  0.41608650  0.05142785  1
  Se  Se130  1  0.75162782  0.42121661  0.55064828  1
  Se  Se131  1  0.74778716  0.74088490  0.06484975  1
  Se  Se132  1  0.74275963  0.74415954  0.55835442  1
  Se  Se133  1  0.25311485  0.25226930  0.05399334  1
  Se  Se134  1  0.25002674  0.24604833  0.54731812  1
  Se  Se135  1  0.24912018  0.58132001  0.04667867  1
  Se  Se136  1  0.25360359  0.58772170  0.56324528  1
  Se  Se137  1  0.25409609  0.91513472  0.05225564  1
  Se  Se138  1  0.25436935  0.91205940  0.55374017  1
  Se  Se139  1  0.58011637  0.24861370  0.04927631  1
  Se  Se140  1  0.58444807  0.24842232  0.54727558  1
  Se  Se141  1  0.58896080  0.58537134  0.06335068  1
  Se  Se142  1  0.58138059  0.57929247  0.55363573  1
  Se  Se143  1  0.57885830  0.91527439  0.04752425  1
  Se  Se144  1  0.58721116  0.91810810  0.56605939  1
  Se  Se145  1  0.92044890  0.25084719  0.06439704  1
  Se  Se146  1  0.92393164  0.26034128  0.56366351  1
  Se  Se147  1  0.91245885  0.58012214  0.04889090  1
  Se  Se148  1  0.91864877  0.59029500  0.54689741  1
  Se  Se149  1  0.92449108  0.91924287  0.06167601  1
  Se  Se150  1  0.93085304  0.92746018  0.55924184  1
  Se  Se151  1  0.08614328  0.25366762  0.44734376  1
  Se  Se152  1  0.08505686  0.24669098  0.95331983  1
  Se  Se153  1  0.08406192  0.58612924  0.43463575  1
  Se  Se154  1  0.10326178  0.56346288  0.94830097  1
  Se  Se155  1  0.07567704  0.92493092  0.44640007  1
  Se  Se156  1  0.09208150  0.91811936  0.94600056  1
  Se  Se157  1  0.42301189  0.24363094  0.44089544  1
  Se  Se158  1  0.40250986  0.27200454  0.94660372  1
  Se  Se159  1  0.41573894  0.58536575  0.45141103  1
  Se  Se160  1  0.40940828  0.59821539  0.94226332  1
  Se  Se161  1  0.41005881  0.91447399  0.43741911  1
  Se  Se162  1  0.41716045  0.91852340  0.94233880  1
  Se  Se163  1  0.74548193  0.25807794  0.43787765  1
  Se  Se164  1  0.73985641  0.25498265  0.93525529  1
  Se  Se165  1  0.75138661  0.57914052  0.44457446  1
  Se  Se166  1  0.75122245  0.57715580  0.94505804  1
  Se  Se167  1  0.74282963  0.92603887  0.44896375  1
  Se  Se168  1  0.74422003  0.92545041  0.94076124  1
  Se  Se169  1  0.25443778  0.08149495  0.44264458  1
  Se  Se170  1  0.25161311  0.08655974  0.94837281  1
  Se  Se171  1  0.26068052  0.40867542  0.43606960  1
  Se  Se172  1  0.25287921  0.42397182  0.95835506  1
  Se  Se173  1  0.24469260  0.75441628  0.44561673  1
  Se  Se174  1  0.24718153  0.75404440  0.95183626  1
  Se  Se175  1  0.58033952  0.08374821  0.45078520  1
  Se  Se176  1  0.57332751  0.09144241  0.94185465  1
  Se  Se177  1  0.57895746  0.41975627  0.44379970  1
  Se  Se178  1  0.58869081  0.41786263  0.93677512  1
  Se  Se179  1  0.58789879  0.74300262  0.43997327  1
  Se  Se180  1  0.58896069  0.74750682  0.95011488  1
  Se  Se181  1  0.92623349  0.07689789  0.44625492  1
  Se  Se182  1  0.92705438  0.07346924  0.94486322  1
  Se  Se183  1  0.91725385  0.42265636  0.44836670  1
  Se  Se184  1  0.91547192  0.41370027  0.95110711  1
  Se  Se185  1  0.91670614  0.74350129  0.43264766  1
  Se  Se186  1  0.92340602  0.74005822  0.94231792  1
  Se  Se187  1  0.24904791  0.25102407  0.30833219  1
  Se  Se188  1  0.24035881  0.24362449  0.81311310  1
  Se  Se189  1  0.25107084  0.58438560  0.29873407  1
  Se  Se190  1  0.24737087  0.58233141  0.81278469  1
  Se  Se191  1  0.24963797  0.91797243  0.29809381  1
  Se  Se192  1  0.25146329  0.91595885  0.80193625  1
  Se  Se193  1  0.58504053  0.24849557  0.29926657  1
  Se  Se194  1  0.57591613  0.25397001  0.79963489  1
  Se  Se195  1  0.58377065  0.58593922  0.30452372  1
  Se  Se196  1  0.58058187  0.58940323  0.79694621  1
  Se  Se197  1  0.57488462  0.90651758  0.31387511  1
  Se  Se198  1  0.58480851  0.92102950  0.80553554  1
  Se  Se199  1  0.92312617  0.25821648  0.30578760  1
  Se  Se200  1  0.90300576  0.24259685  0.81085886  1
  Se  Se201  1  0.91650435  0.58375955  0.30152539  1
  Se  Se202  1  0.91902244  0.57885943  0.80695746  1
  Se  Se203  1  0.90898116  0.90315994  0.30892889  1
  Se  Se204  1  0.91073442  0.90519900  0.81526202  1
  Se  Se205  1  0.09378545  0.09061187  0.31343945  1
  Se  Se206  1  0.08435935  0.08599354  0.80870939  1
  Se  Se207  1  0.08061630  0.41995353  0.29871378  1
  Se  Se208  1  0.09136291  0.41813711  0.81929240  1
  Se  Se209  1  0.08660095  0.74927090  0.29831534  1
  Se  Se210  1  0.08299090  0.74191811  0.80609646  1
  Se  Se211  1  0.41693882  0.07721197  0.29892668  1
  Se  Se212  1  0.40930347  0.08776848  0.80405535  1
  Se  Se213  1  0.42026949  0.42179482  0.30860288  1
  Se  Se214  1  0.42465752  0.43200808  0.80707402  1
  Se  Se215  1  0.41496216  0.74688845  0.30091996  1
  Se  Se216  1  0.42193961  0.75713633  0.81484166  1
  Se  Se217  1  0.75956820  0.09466475  0.31163831  1
  Se  Se218  1  0.74250653  0.07968012  0.79886661  1
  Se  Se219  1  0.74673918  0.41676831  0.30374316  1
  Se  Se220  1  0.74743789  0.42019871  0.80018027  1
  Se  Se221  1  0.74270357  0.74569455  0.29809543  1
  Se  Se222  1  0.74633649  0.74518444  0.80666493  1
  Se  Se223  1  0.25421398  0.08316682  0.19886523  1
  Se  Se224  1  0.25316518  0.07924089  0.69416664  1
  Se  Se225  1  0.23975281  0.42760953  0.18784390  1
  Se  Se226  1  0.23989431  0.42324183  0.69763028  1
  Se  Se227  1  0.24945549  0.74625179  0.18777506  1
  Se  Se228  1  0.24298158  0.75218522  0.69051497  1
  Se  Se229  1  0.58039085  0.08108192  0.18703558  1
  Se  Se230  1  0.57794530  0.08282519  0.69655477  1
  Se  Se231  1  0.58722131  0.41425256  0.20002614  1
  Se  Se232  1  0.58881073  0.41054692  0.69146361  1
  Se  Se233  1  0.58448397  0.74980826  0.19939208  1
  Se  Se234  1  0.58039234  0.74923380  0.70083450  1
  Se  Se235  1  0.91191943  0.09198052  0.19607224  1
  Se  Se236  1  0.90867478  0.09262406  0.69090886  1
  Se  Se237  1  0.91865012  0.42032053  0.19619326  1
  Se  Se238  1  0.91126669  0.42255542  0.68865819  1
  Se  Se239  1  0.92108190  0.74466053  0.19645233  1
  Se  Se240  1  0.91591966  0.75118694  0.69628457  1
  Se  Se241  1  0.08254905  0.25315459  0.20048536  1
  Se  Se242  1  0.08874150  0.24747756  0.69515500  1
  Se  Se243  1  0.08041418  0.59066519  0.18776840  1
  Se  Se244  1  0.07786763  0.58454615  0.70130808  1
  Se  Se245  1  0.08619865  0.91350792  0.18705629  1
  Se  Se246  1  0.08965476  0.90749929  0.69014522  1
  Se  Se247  1  0.42489674  0.24109229  0.18632867  1
  Se  Se248  1  0.41665052  0.24960655  0.68465791  1
  Se  Se249  1  0.41461710  0.58329366  0.19993985  1
  Se  Se250  1  0.42421996  0.57193668  0.69113132  1
  Se  Se251  1  0.41100399  0.91509386  0.19504203  1
  Se  Se252  1  0.41145076  0.91835735  0.70378105  1
  Se  Se253  1  0.74849037  0.25438421  0.19590630  1
  Se  Se254  1  0.73878611  0.25639961  0.69974074  1
  Se  Se255  1  0.74578539  0.58414542  0.19792680  1
  Se  Se256  1  0.75009292  0.58704284  0.69235576  1
  Se  Se257  1  0.75332208  0.91054142  0.18950894  1
  Se  Se258  1  0.74845913  0.91710757  0.70410346  1
