# generated using pymatgen
data_In86Cu29Se144
_symmetry_space_group_name_H-M   'P 1'
_cell_length_a   17.57203278
_cell_length_b   17.57371843
_cell_length_c   23.43436423
_cell_angle_alpha   89.99183895
_cell_angle_beta   89.99141834
_cell_angle_gamma   90.02837482
_symmetry_Int_Tables_number   1
_chemical_formula_structural   In86Cu29Se144
_chemical_formula_sum   'In86 Cu29 Se144'
_cell_volume   7236.67021680
_cell_formula_units_Z   1
loop_
 _symmetry_equiv_pos_site_id
 _symmetry_equiv_pos_as_xyz
  1  'x, y, z'
loop_
 _atom_site_type_symbol
 _atom_site_label
 _atom_site_symmetry_multiplicity
 _atom_site_fract_x
 _atom_site_fract_y
 _atom_site_fract_z
 _atom_site_occupancy
  In  In0  1  -0.01567019  0.18053648  0.13231963  1
  In  In1  1  -0.00501639  0.18128160  0.61505525  1
  In  In2  1  0.01184845  0.49137475  0.13052912  1
  In  In3  1  0.01548073  0.50475485  0.60711535  1
  In  In4  1  -0.02464500  0.85177537  0.15503641  1
  In  In5  1  0.00460722  0.81292312  0.62268365  1
  In  In6  1  0.34677669  0.17266157  0.12851875  1
  In  In7  1  0.36013213  0.18152288  0.61990905  1
  In  In8  1  0.33153676  0.50361887  0.12809854  1
  In  In9  1  0.33684095  0.50500347  0.62817470  1
  In  In10  1  0.33250583  0.81151641  0.12809621  1
  In  In11  1  0.32150745  0.82792607  0.61033748  1
  In  In12  1  0.67983931  0.15730386  0.13603614  1
  In  In13  1  0.66413107  0.16957983  0.61466266  1
  In  In14  1  0.64996232  0.50536652  0.12797803  1
  In  In15  1  0.65926280  0.49258274  0.61414192  1
  In  In16  1  0.67531692  0.83588324  0.12362155  1
  In  In17  1  0.66492916  0.84485659  0.61985496  1
  In  In18  1  0.15111792  -0.00171214  0.37530029  1
  In  In19  1  0.16478722  0.00219537  0.87640617  1
  In  In20  1  0.17612529  0.33949532  0.37079341  1
  In  In21  1  0.18373738  0.33436801  0.87461026  1
  In  In22  1  0.16655013  0.66009632  0.37691794  1
  In  In23  1  0.15840149  0.65921295  0.87200580  1
  In  In24  1  0.51011181  -0.01388978  0.37944203  1
  In  In25  1  0.49517091  -0.00964970  0.87560651  1
  In  In26  1  0.49959556  0.33576063  0.37879051  1
  In  In27  1  0.49993359  0.33513471  0.87510069  1
  In  In28  1  0.49036660  0.67348060  0.37939729  1
  In  In29  1  0.49533192  0.66893752  0.87498821  1
  In  In30  1  0.84167832  0.00129424  0.36283047  1
  In  In31  1  0.82792495  0.00335974  0.88707067  1
  In  In32  1  0.83470397  0.33603079  0.37364531  1
  In  In33  1  0.82332969  0.33066409  0.88331723  1
  In  In34  1  0.83163029  0.65160765  0.37175896  1
  In  In35  1  0.85035564  0.66551161  0.87963349  1
  In  In36  1  -0.01091969  0.15948350  0.37019489  1
  In  In37  1  -0.00347319  0.15965807  0.87992172  1
  In  In38  1  0.00077136  0.49406553  0.37488622  1
  In  In39  1  0.00171062  0.51704632  0.87784398  1
  In  In40  1  0.00258074  0.83964514  0.36578673  1
  In  In41  1  0.01021946  0.81889556  0.88067946  1
  In  In42  1  0.33221981  0.18220833  0.37764846  1
  In  In43  1  0.33073087  0.17163440  0.86739626  1
  In  In44  1  0.33172153  0.50015903  0.37899601  1
  In  In45  1  0.33228300  0.49876062  0.87434282  1
  In  In46  1  0.35196392  0.81785544  0.38103325  1
  In  In47  1  0.34947756  0.83138780  0.87713097  1
  In  In48  1  0.66540130  0.16828126  0.37300042  1
  In  In49  1  0.67751646  0.17857584  0.88050972  1
  In  In50  1  0.67798278  0.48950496  0.38207938  1
  In  In51  1  0.66155901  0.48459610  0.87951588  1
  In  In52  1  0.64597599  0.83730599  0.36311639  1
  In  In53  1  0.66566767  0.83609271  0.88388990  1
  In  In54  1  0.16149853  -0.01170619  0.12955291  1
  In  In55  1  0.19167416  -0.00343194  0.61203875  1
  In  In56  1  0.15271823  0.34992312  0.13337339  1
  In  In57  1  0.17265567  0.38009259  0.60685474  1
  In  In58  1  0.17074499  0.66172374  0.13171177  1
  In  In59  1  0.17024167  0.66284998  0.62265379  1
  In  In60  1  0.51859041  -0.00786382  0.13581061  1
  In  In61  1  0.49493055  0.00598169  0.60757255  1
  In  In62  1  0.48915275  0.34411658  0.13741817  1
  In  In63  1  0.49397988  0.33255441  0.62382640  1
  In  In64  1  0.49461886  0.65399921  0.12038034  1
  In  In65  1  0.47844545  0.64924263  0.61316056  1
  In  In66  1  0.82623383  -0.00065035  0.13267917  1
  In  In67  1  0.82492331  0.00884116  0.61850083  1
  In  In68  1  0.84378710  0.32574284  0.13107321  1
  In  In69  1  0.84639484  0.33511848  0.60079208  1
  In  In70  1  0.83427129  0.68390718  0.13060710  1
  In  In71  1  0.84959968  0.66836697  0.62578722  1
  In  In72  1  0.83178396  0.50042840  0.00156178  1
  In  In73  1  0.00652387  -0.00578736  0.74875573  1
  In  In74  1  0.00315444  0.34233853  0.74269123  1
  In  In75  1  0.16160515  0.82419615  0.00705452  1
  In  In76  1  0.16401498  0.16720034  0.49703650  1
  In  In77  1  0.33693560  -0.00233140  0.75105228  1
  In  In78  1  0.66450499  0.66659605  0.25048099  1
  In  In79  1  0.33033291  0.00185639  0.25533138  1
  In  In80  1  0.66207748  0.66486657  0.75085335  1
  In  In81  1  0.16188726  0.17456170  0.00144518  1
  In  In82  1  0.66547353  0.00190967  0.73696443  1
  In  In83  1  0.51010581  0.16542109  0.00128158  1
  In  In84  1  0.83197008  0.83368470  0.49290804  1
  In  In85  1  0.65941207  0.32988103  0.74248494  1
  Cu  Cu86  1  0.33221151  0.66200800  0.49892366  1
  Cu  Cu87  1  0.16206054  0.16787245  0.25534734  1
  Cu  Cu88  1  0.17223749  0.17805910  0.74006606  1
  Cu  Cu89  1  0.16861858  0.82221193  0.74407095  1
  Cu  Cu90  1  0.84446873  0.82622657  0.75668585  1
  Cu  Cu91  1  0.66535756  0.33323460  0.49463572  1
  Cu  Cu92  1  0.34065771  -0.00352313  -0.00025856  1
  Cu  Cu93  1  0.16853915  0.82560524  0.25367621  1
  Cu  Cu94  1  0.67267219  -0.00477904  0.00873665  1
  Cu  Cu95  1  0.66681059  0.32612904  0.00964749  1
  Cu  Cu96  1  0.17121121  0.50650813  0.74584406  1
  Cu  Cu97  1  0.49425140  0.50167143  0.25609313  1
  Cu  Cu98  1  0.83505912  0.50383611  0.74619604  1
  Cu  Cu99  1  0.33291272  0.34296214  0.00442226  1
  Cu  Cu100  1  0.66471593  0.00345528  0.49377767  1
  Cu  Cu101  1  0.17041370  0.50143866  0.25402254  1
  Cu  Cu102  1  -0.00181688  -0.00522908  0.49368683  1
  Cu  Cu103  1  0.66203372  0.67057908  0.49309942  1
  Cu  Cu104  1  0.33277118  0.34073440  0.49938481  1
  Cu  Cu105  1  0.83852721  0.49583536  0.25291952  1
  Cu  Cu106  1  0.50071443  0.17468458  0.25487044  1
  Cu  Cu107  1  -0.00028041  0.67290762  0.00841415  1
  Cu  Cu108  1  0.33387085  0.65904235  0.00052777  1
  Cu  Cu109  1  0.00672494  0.66160706  0.49674632  1
  Cu  Cu110  1  -0.01231532  0.00234723  0.01117254  1
  Cu  Cu111  1  0.49429260  0.82804971  0.74476330  1
  Cu  Cu112  1  0.82930497  0.17074868  0.25241584  1
  Cu  Cu113  1  0.83350526  0.17341293  0.74839377  1
  Cu  Cu114  1  0.66285246  0.66960278  0.00289657  1
  Se  Se115  1  0.07819800  0.08000936  0.06453498  1
  Se  Se116  1  0.07612905  0.07222416  0.56014738  1
  Se  Se117  1  0.08385871  0.41804163  0.05172259  1
  Se  Se118  1  0.04919076  0.38358131  0.54922856  1
  Se  Se119  1  0.07009900  0.75257404  0.07589069  1
  Se  Se120  1  0.09008281  0.74589029  0.54930883  1
  Se  Se121  1  0.41971537  0.07425546  0.06164080  1
  Se  Se122  1  0.39449972  0.07716114  0.54829677  1
  Se  Se123  1  0.41908948  0.42155346  0.05904551  1
  Se  Se124  1  0.41689970  0.42129677  0.55630657  1
  Se  Se125  1  0.41593412  0.74519425  0.05228547  1
  Se  Se126  1  0.41807911  0.75127284  0.54748893  1
  Se  Se127  1  0.75293174  0.08459618  0.05739718  1
  Se  Se128  1  0.74833920  0.08730896  0.54618180  1
  Se  Se129  1  0.74338917  0.41479022  0.06632264  1
  Se  Se130  1  0.74943402  0.41875585  0.54620482  1
  Se  Se131  1  0.75160431  0.74890847  0.05287035  1
  Se  Se132  1  0.74600799  0.74361444  0.55893183  1
  Se  Se133  1  0.25598998  0.25720298  0.06380289  1
  Se  Se134  1  0.24976274  0.26021795  0.56155518  1
  Se  Se135  1  0.24752712  0.58359818  0.05663514  1
  Se  Se136  1  0.25082245  0.57797924  0.55398493  1
  Se  Se137  1  0.25880317  0.91892429  0.05956348  1
  Se  Se138  1  0.25002321  0.91116296  0.53626621  1
  Se  Se139  1  0.58482615  0.25221038  0.07235638  1
  Se  Se140  1  0.57964756  0.25574124  0.55205175  1
  Se  Se141  1  0.58028747  0.57897089  0.04776127  1
  Se  Se142  1  0.58259908  0.58574977  0.55018716  1
  Se  Se143  1  0.58281099  0.91343790  0.05583592  1
  Se  Se144  1  0.58323134  0.91806044  0.54707819  1
  Se  Se145  1  0.92169566  0.25825912  0.05242051  1
  Se  Se146  1  0.90377812  0.22922816  0.53821524  1
  Se  Se147  1  0.91875978  0.58785204  0.06532024  1
  Se  Se148  1  0.91630596  0.58525118  0.55006015  1
  Se  Se149  1  0.91328622  0.91344630  0.06625479  1
  Se  Se150  1  0.92170539  0.91770360  0.56181555  1
  Se  Se151  1  0.07919435  0.25176326  0.43235443  1
  Se  Se152  1  0.07626777  0.26169058  0.93650403  1
  Se  Se153  1  0.08726671  0.57336547  0.44611552  1
  Se  Se154  1  0.08183607  0.59196334  0.95270194  1
  Se  Se155  1  0.08050167  0.90778549  0.44603437  1
  Se  Se156  1  0.07429020  0.92725730  0.94896042  1
  Se  Se157  1  0.41628337  0.25387196  0.45085298  1
  Se  Se158  1  0.40738780  0.25119036  0.94729246  1
  Se  Se159  1  0.41930374  0.58038043  0.44720794  1
  Se  Se160  1  0.41754244  0.58064304  0.94301169  1
  Se  Se161  1  0.41245182  0.92100112  0.44563136  1
  Se  Se162  1  0.42551337  0.91054936  0.95164578  1
  Se  Se163  1  0.74913548  0.25135064  0.44149807  1
  Se  Se164  1  0.75539473  0.24594045  0.95897800  1
  Se  Se165  1  0.75038837  0.58523100  0.44886881  1
  Se  Se166  1  0.74193702  0.59050271  0.93864222  1
  Se  Se167  1  0.74203607  0.92071900  0.43269709  1
  Se  Se168  1  0.75440398  0.91058673  0.95262215  1
  Se  Se169  1  0.25153736  0.07921596  0.43552497  1
  Se  Se170  1  0.26005440  0.07934664  0.94389972  1
  Se  Se171  1  0.24383636  0.42031863  0.44910044  1
  Se  Se172  1  0.24779736  0.42174150  0.94892912  1
  Se  Se173  1  0.25180648  0.74611369  0.44353687  1
  Se  Se174  1  0.25486228  0.74514193  0.94065372  1
  Se  Se175  1  0.57937857  0.08730339  0.44255886  1
  Se  Se176  1  0.59772273  0.07179794  0.93937146  1
  Se  Se177  1  0.57975727  0.42136985  0.44799998  1
  Se  Se178  1  0.58420113  0.40318635  0.95098910  1
  Se  Se179  1  0.58213444  0.75713146  0.44285551  1
  Se  Se180  1  0.57936225  0.74930896  0.94480096  1
  Se  Se181  1  0.91219945  0.07601519  0.44311766  1
  Se  Se182  1  0.91255398  0.08769506  0.95272262  1
  Se  Se183  1  0.90388323  0.42862504  0.44283148  1
  Se  Se184  1  0.92298434  0.41478327  0.93911340  1
  Se  Se185  1  0.92336798  0.74150381  0.43753104  1
  Se  Se186  1  0.91778977  0.75482585  0.95265861  1
  Se  Se187  1  0.25158037  0.25083380  0.30081636  1
  Se  Se188  1  0.25523458  0.25675304  0.79706450  1
  Se  Se189  1  0.25483987  0.58408467  0.30647166  1
  Se  Se190  1  0.25019009  0.58574802  0.80580656  1
  Se  Se191  1  0.24548196  0.90832654  0.31562614  1
  Se  Se192  1  0.24100903  0.90596880  0.80945518  1
  Se  Se193  1  0.58419448  0.25797237  0.30719719  1
  Se  Se194  1  0.58048120  0.23683617  0.80868044  1
  Se  Se195  1  0.58129809  0.57691544  0.31613369  1
  Se  Se196  1  0.57843435  0.56993684  0.81117217  1
  Se  Se197  1  0.57568071  0.92401017  0.29232100  1
  Se  Se198  1  0.58052236  0.90836367  0.80213765  1
  Se  Se199  1  0.91655186  0.25271513  0.30327705  1
  Se  Se200  1  0.91372467  0.25090066  0.80907514  1
  Se  Se201  1  0.92244532  0.58100781  0.30292353  1
  Se  Se202  1  0.91766851  0.58457833  0.80151403  1
  Se  Se203  1  0.91342806  0.90967389  0.29613120  1
  Se  Se204  1  0.91546510  0.91469243  0.81721129  1
  Se  Se205  1  0.07776819  0.08042386  0.30208737  1
  Se  Se206  1  0.09540309  0.09782922  0.80320455  1
  Se  Se207  1  0.08529965  0.41502815  0.30305209  1
  Se  Se208  1  0.09030395  0.42721809  0.80937219  1
  Se  Se209  1  0.08403491  0.74387116  0.30707125  1
  Se  Se210  1  0.08181795  0.74697973  0.80127355  1
  Se  Se211  1  0.42137026  0.09154748  0.31398554  1
  Se  Se212  1  0.43118701  0.09009557  0.80744617  1
  Se  Se213  1  0.41246204  0.41522763  0.30958051  1
  Se  Se214  1  0.40739875  0.40368094  0.80994453  1
  Se  Se215  1  0.42549464  0.75231694  0.30009131  1
  Se  Se216  1  0.41353707  0.74706134  0.80074925  1
  Se  Se217  1  0.74726191  0.08405555  0.30357717  1
  Se  Se218  1  0.75519194  0.08742188  0.80567452  1
  Se  Se219  1  0.74855204  0.41579266  0.30231423  1
  Se  Se220  1  0.75773893  0.41948707  0.80426794  1
  Se  Se221  1  0.75450376  0.75517713  0.31118566  1
  Se  Se222  1  0.75561907  0.75253559  0.81295409  1
  Se  Se223  1  0.24257179  0.09173743  0.18926563  1
  Se  Se224  1  0.25346876  0.09117117  0.68690522  1
  Se  Se225  1  0.25210610  0.41788474  0.19771903  1
  Se  Se226  1  0.24992856  0.41783560  0.69458063  1
  Se  Se227  1  0.25281368  0.74154667  0.20383471  1
  Se  Se228  1  0.25681799  0.74699630  0.68986712  1
  Se  Se229  1  0.58220002  0.08955309  0.20241893  1
  Se  Se230  1  0.57110303  0.09233353  0.68459316  1
  Se  Se231  1  0.58190933  0.42128437  0.20323695  1
  Se  Se232  1  0.57263968  0.43112409  0.69361282  1
  Se  Se233  1  0.57723101  0.74990486  0.18509840  1
  Se  Se234  1  0.58068866  0.75481211  0.68460455  1
  Se  Se235  1  0.91249427  0.08611331  0.19801466  1
  Se  Se236  1  0.91433823  0.08931540  0.69099997  1
  Se  Se237  1  0.92234364  0.41426494  0.19829430  1
  Se  Se238  1  0.90922475  0.42468764  0.68114241  1
  Se  Se239  1  0.92248832  0.73561297  0.20890101  1
  Se  Se240  1  0.92628393  0.74474798  0.70165446  1
  Se  Se241  1  0.08271414  0.25045834  0.19721200  1
  Se  Se242  1  0.09293936  0.25561794  0.67951797  1
  Se  Se243  1  0.08409302  0.58174209  0.19973118  1
  Se  Se244  1  0.08183994  0.57942356  0.68911447  1
  Se  Se245  1  0.08724690  0.91897100  0.20828615  1
  Se  Se246  1  0.09787426  0.91160977  0.68394583  1
  Se  Se247  1  0.41166562  0.25498299  0.20526609  1
  Se  Se248  1  0.42101609  0.25608093  0.70161356  1
  Se  Se249  1  0.41576903  0.58486252  0.19885880  1
  Se  Se250  1  0.41390111  0.58955082  0.69928589  1
  Se  Se251  1  0.41298460  0.91131358  0.19070098  1
  Se  Se252  1  0.42018588  0.91236928  0.68275116  1
  Se  Se253  1  0.74847477  0.25745158  0.19926504  1
  Se  Se254  1  0.76014278  0.25038889  0.68255264  1
  Se  Se255  1  0.75759372  0.57504096  0.19033981  1
  Se  Se256  1  0.75199433  0.57943497  0.68599633  1
  Se  Se257  1  0.73881395  0.92001025  0.19970380  1
  Se  Se258  1  0.76833287  0.90572889  0.69285122  1
