# generated using pymatgen
data_In86Cu29Se144
_symmetry_space_group_name_H-M   'P 1'
_cell_length_a   17.56716579
_cell_length_b   17.57002739
_cell_length_c   23.43362157
_cell_angle_alpha   90.01002814
_cell_angle_beta   89.98712262
_cell_angle_gamma   90.01702239
_symmetry_Int_Tables_number   1
_chemical_formula_structural   In86Cu29Se144
_chemical_formula_sum   'In86 Cu29 Se144'
_cell_volume   7232.91753885
_cell_formula_units_Z   1
loop_
 _symmetry_equiv_pos_site_id
 _symmetry_equiv_pos_as_xyz
  1  'x, y, z'
loop_
 _atom_site_type_symbol
 _atom_site_label
 _atom_site_symmetry_multiplicity
 _atom_site_fract_x
 _atom_site_fract_y
 _atom_site_fract_z
 _atom_site_occupancy
  In  In0  1  -0.00737017  0.17215567  0.13145060  1
  In  In1  1  -0.00035417  0.16676237  0.62163459  1
  In  In2  1  0.00315624  0.49516684  0.12460059  1
  In  In3  1  -0.00172324  0.48505323  0.62210118  1
  In  In4  1  0.01188846  0.82765660  0.12857258  1
  In  In5  1  0.01173330  0.84067638  0.61570333  1
  In  In6  1  0.32974706  0.16801948  0.13478664  1
  In  In7  1  0.33901326  0.18282963  0.62354932  1
  In  In8  1  0.31695824  0.50045069  0.12536544  1
  In  In9  1  0.33452562  0.49966536  0.62387161  1
  In  In10  1  0.33334319  0.83317654  0.12891397  1
  In  In11  1  0.31470519  0.83469891  0.62466612  1
  In  In12  1  0.68859114  0.16202755  0.12533585  1
  In  In13  1  0.67784934  0.16077704  0.62911128  1
  In  In14  1  0.66227779  0.49739570  0.13348026  1
  In  In15  1  0.66005788  0.50318890  0.62608041  1
  In  In16  1  0.65984914  0.83257506  0.12954085  1
  In  In17  1  0.67457858  0.83188573  0.62284910  1
  In  In18  1  0.16083208  0.00205999  0.37360369  1
  In  In19  1  0.15183686  0.00304339  0.87317325  1
  In  In20  1  0.16491718  0.33298311  0.37386828  1
  In  In21  1  0.17328943  0.34060057  0.86525971  1
  In  In22  1  0.15074021  0.67090544  0.39537044  1
  In  In23  1  0.17738308  0.64866922  0.89179071  1
  In  In24  1  0.49846756  0.01173624  0.37355348  1
  In  In25  1  0.50594843  -0.01377360  0.87037479  1
  In  In26  1  0.51027813  0.34481411  0.37441188  1
  In  In27  1  0.50129766  0.33602945  0.86781781  1
  In  In28  1  0.50453400  0.64928051  0.38023830  1
  In  In29  1  0.49594368  0.66621660  0.86407737  1
  In  In30  1  0.84296701  -0.00862403  0.38684259  1
  In  In31  1  0.83866100  0.00181783  0.87162032  1
  In  In32  1  0.82148176  0.31990052  0.37695245  1
  In  In33  1  0.82631581  0.32401993  0.86628023  1
  In  In34  1  0.83293995  0.68987171  0.37489236  1
  In  In35  1  0.83102106  0.67788659  0.86989144  1
  In  In36  1  -0.00040734  0.16796682  0.37530590  1
  In  In37  1  -0.00872638  0.15609268  0.86658177  1
  In  In38  1  0.01467010  0.50388798  0.37801877  1
  In  In39  1  0.01671525  0.49908310  0.87415245  1
  In  In40  1  -0.01797864  0.84566971  0.38663572  1
  In  In41  1  0.00089764  0.83807310  0.87552069  1
  In  In42  1  0.32457758  0.15992643  0.36765648  1
  In  In43  1  0.31930789  0.17081139  0.86904272  1
  In  In44  1  0.33779418  0.49600585  0.38057302  1
  In  In45  1  0.32739814  0.49962010  0.87048261  1
  In  In46  1  0.31864756  0.83234599  0.37467167  1
  In  In47  1  0.32950873  0.82118317  0.87295622  1
  In  In48  1  0.66953529  0.18008316  0.38404898  1
  In  In49  1  0.67572591  0.16957621  0.87008632  1
  In  In50  1  0.65926190  0.48738186  0.37605788  1
  In  In51  1  0.66578661  0.50142465  0.86482133  1
  In  In52  1  0.70053025  0.83781610  0.37047848  1
  In  In53  1  0.67366233  0.83442439  0.86213633  1
  In  In54  1  0.16765713  -0.00679581  0.13457109  1
  In  In55  1  0.15447442  -0.00653964  0.61849186  1
  In  In56  1  0.16043601  0.34034789  0.13490422  1
  In  In57  1  0.16853907  0.33355598  0.62144482  1
  In  In58  1  0.16293996  0.66657828  0.10822949  1
  In  In59  1  0.17113733  0.67595440  0.61787419  1
  In  In60  1  0.49747040  -0.01071512  0.13039417  1
  In  In61  1  0.50929075  0.01415075  0.62507914  1
  In  In62  1  0.49958979  0.33227430  0.13252848  1
  In  In63  1  0.49040176  0.34193530  0.62968105  1
  In  In64  1  0.50026707  0.67412012  0.12663426  1
  In  In65  1  0.50730386  0.65554466  0.62726880  1
  In  In66  1  0.82521781  0.01757911  0.12620869  1
  In  In67  1  0.83416450  0.00654217  0.61939661  1
  In  In68  1  0.84762075  0.32689087  0.13479430  1
  In  In69  1  0.84023777  0.32491699  0.62774757  1
  In  In70  1  0.83253390  0.65731618  0.13155302  1
  In  In71  1  0.82230723  0.66621241  0.62297082  1
  In  In72  1  0.83966285  0.83440103  -0.00390481  1
  In  In73  1  -0.00001326  0.66609484  0.75143473  1
  In  In74  1  0.66549219  0.00407352  0.25186338  1
  In  In75  1  0.49682369  0.50035609  -0.01078662  1
  In  In76  1  0.83596782  0.50122371  0.50064166  1
  In  In77  1  0.33310865  0.66243047  0.25071586  1
  In  In78  1  0.16075327  0.16857404  -0.00196131  1
  In  In79  1  0.33853060  0.00492282  0.74636029  1
  In  In80  1  0.49882992  0.83180792  0.00876907  1
  In  In81  1  0.50409058  0.16615578  -0.00727587  1
  In  In82  1  0.50291535  0.17301946  0.49896512  1
  In  In83  1  0.50410079  0.83086527  0.50501343  1
  In  In84  1  0.84112859  0.49825167  0.00445622  1
  In  In85  1  -0.00400271  0.66681789  0.25210691  1
  Cu  Cu86  1  0.82813202  0.49591193  0.25368787  1
  Cu  Cu87  1  0.83452417  0.83907225  0.74562208  1
  Cu  Cu88  1  0.33010257  -0.00432551  0.00941578  1
  Cu  Cu89  1  0.00019627  0.33033208  0.00275921  1
  Cu  Cu90  1  0.67884563  0.32447484  -0.00014362  1
  Cu  Cu91  1  0.66522878  0.67011841  -0.00418980  1
  Cu  Cu92  1  0.83596449  0.16823318  0.25513595  1
  Cu  Cu93  1  0.17054612  0.49977600  0.74712355  1
  Cu  Cu94  1  0.16124932  0.83719043  0.25414872  1
  Cu  Cu95  1  0.83751595  0.16449828  0.74590165  1
  Cu  Cu96  1  0.66895871  0.66878344  0.50092129  1
  Cu  Cu97  1  0.50224912  0.49045603  0.25601301  1
  Cu  Cu98  1  0.50545965  0.82926786  0.74397388  1
  Cu  Cu99  1  0.16289796  0.83120902  0.74589042  1
  Cu  Cu100  1  0.32375117  -0.00007879  0.49508416  1
  Cu  Cu101  1  0.83152723  0.49635865  0.74222308  1
  Cu  Cu102  1  0.32944043  0.33462511  0.49866181  1
  Cu  Cu103  1  -0.00319551  0.00052547  -0.00163085  1
  Cu  Cu104  1  0.16233357  0.17159852  0.74401497  1
  Cu  Cu105  1  0.32431846  0.34055721  -0.00259475  1
  Cu  Cu106  1  0.00219913  0.00682009  0.49960579  1
  Cu  Cu107  1  0.49658164  0.50287241  0.74842727  1
  Cu  Cu108  1  0.50929632  0.17299946  0.74739702  1
  Cu  Cu109  1  0.15984197  0.16626284  0.25257245  1
  Cu  Cu110  1  0.33190982  0.66197711  0.50017016  1
  Cu  Cu111  1  0.50008813  0.83080558  0.25041108  1
  Cu  Cu112  1  0.49599366  0.17317477  0.25498484  1
  Cu  Cu113  1  0.17047049  0.49864934  0.25545104  1
  Cu  Cu114  1  0.00366736  0.32898078  0.49897482  1
  Se  Se115  1  0.07707680  0.07856106  0.06190522  1
  Se  Se116  1  0.08790079  0.08980321  0.55113802  1
  Se  Se117  1  0.08495608  0.41225508  0.05550226  1
  Se  Se118  1  0.08581238  0.41517373  0.55013357  1
  Se  Se119  1  0.08345503  0.75982971  0.04882465  1
  Se  Se120  1  0.08441297  0.74975186  0.54910940  1
  Se  Se121  1  0.41352914  0.08086354  0.06090173  1
  Se  Se122  1  0.40725548  0.07748048  0.55519566  1
  Se  Se123  1  0.41365930  0.41150787  0.05708871  1
  Se  Se124  1  0.41527792  0.41611602  0.55206383  1
  Se  Se125  1  0.40168242  0.73600919  0.05619696  1
  Se  Se126  1  0.40870518  0.74410342  0.56282919  1
  Se  Se127  1  0.74934977  0.08226184  0.04620323  1
  Se  Se128  1  0.75854033  0.09736761  0.55131440  1
  Se  Se129  1  0.74765700  0.41024014  0.06338669  1
  Se  Se130  1  0.74893631  0.41303970  0.56254276  1
  Se  Se131  1  0.74567554  0.74453388  0.05884865  1
  Se  Se132  1  0.75484412  0.75354768  0.54880462  1
  Se  Se133  1  0.25247723  0.25524669  0.05950163  1
  Se  Se134  1  0.24945857  0.24768285  0.55092290  1
  Se  Se135  1  0.25184500  0.58028674  0.04954407  1
  Se  Se136  1  0.24871141  0.58031901  0.55523900  1
  Se  Se137  1  0.24707404  0.91369923  0.06150131  1
  Se  Se138  1  0.24340164  0.91514512  0.54974098  1
  Se  Se139  1  0.58895866  0.25382123  0.05935694  1
  Se  Se140  1  0.58511728  0.25480428  0.56777712  1
  Se  Se141  1  0.58737566  0.58710830  0.05588023  1
  Se  Se142  1  0.58466319  0.58286720  0.54984589  1
  Se  Se143  1  0.59507611  0.92941423  0.05650600  1
  Se  Se144  1  0.59272349  0.92918132  0.55655478  1
  Se  Se145  1  0.91510478  0.24851928  0.05508945  1
  Se  Se146  1  0.91675746  0.24927477  0.55141070  1
  Se  Se147  1  0.92909610  0.59606095  0.05879704  1
  Se  Se148  1  0.92475672  0.59048632  0.56169869  1
  Se  Se149  1  0.92012563  0.92334719  0.06385888  1
  Se  Se150  1  0.91969687  0.92074146  0.55256068  1
  Se  Se151  1  0.08724613  0.24681187  0.44417348  1
  Se  Se152  1  0.07608749  0.25635522  0.93388803  1
  Se  Se153  1  0.08588630  0.57104345  0.45888604  1
  Se  Se154  1  0.07763333  0.57858438  0.95285507  1
  Se  Se155  1  0.08296854  0.91915113  0.44607423  1
  Se  Se156  1  0.08264317  0.91867025  0.94724791  1
  Se  Se157  1  0.40906201  0.25437548  0.43602803  1
  Se  Se158  1  0.40466550  0.25819007  0.93964032  1
  Se  Se159  1  0.41855262  0.57836610  0.45172426  1
  Se  Se160  1  0.40644202  0.59713661  0.93930237  1
  Se  Se161  1  0.41247384  0.92065872  0.44116802  1
  Se  Se162  1  0.40968066  0.92151213  0.94413017  1
  Se  Se163  1  0.75315288  0.24820513  0.45857433  1
  Se  Se164  1  0.75933767  0.24305917  0.94498712  1
  Se  Se165  1  0.74689579  0.58884570  0.43721036  1
  Se  Se166  1  0.74757209  0.58640258  0.94054711  1
  Se  Se167  1  0.75057095  0.91622432  0.45326506  1
  Se  Se168  1  0.74317824  0.91910174  0.93936200  1
  Se  Se169  1  0.24438639  0.08683210  0.44285418  1
  Se  Se170  1  0.25622123  0.07411584  0.94302215  1
  Se  Se171  1  0.24565648  0.41748853  0.44461336  1
  Se  Se172  1  0.24301525  0.42146439  0.94244832  1
  Se  Se173  1  0.25101057  0.75142762  0.45102209  1
  Se  Se174  1  0.23951002  0.76161478  0.94528881  1
  Se  Se175  1  0.59285803  0.07492963  0.44554979  1
  Se  Se176  1  0.59166275  0.07249784  0.93709590  1
  Se  Se177  1  0.58319877  0.41535091  0.45319520  1
  Se  Se178  1  0.59793827  0.40638618  0.94162021  1
  Se  Se179  1  0.59113114  0.74900316  0.43700987  1
  Se  Se180  1  0.58574915  0.74969382  0.93676793  1
  Se  Se181  1  0.91663698  0.08975646  0.44782813  1
  Se  Se182  1  0.91555882  0.08434009  0.94515260  1
  Se  Se183  1  0.92191865  0.40926002  0.43821651  1
  Se  Se184  1  0.92146853  0.40831725  0.93809622  1
  Se  Se185  1  0.93265660  0.73299618  0.44730131  1
  Se  Se186  1  0.92843514  0.73641079  0.94250334  1
  Se  Se187  1  0.24652650  0.25080408  0.30214584  1
  Se  Se188  1  0.25009172  0.25302545  0.79499009  1
  Se  Se189  1  0.23998354  0.58612384  0.31765427  1
  Se  Se190  1  0.24530839  0.58758608  0.80434009  1
  Se  Se191  1  0.24859833  0.92023908  0.30389965  1
  Se  Se192  1  0.24466533  0.91670631  0.80525858  1
  Se  Se193  1  0.58466532  0.24865375  0.30910802  1
  Se  Se194  1  0.59043721  0.25493293  0.80443200  1
  Se  Se195  1  0.58535117  0.57807189  0.30503270  1
  Se  Se196  1  0.58448763  0.58713764  0.79871906  1
  Se  Se197  1  0.57974386  0.90879225  0.31371388  1
  Se  Se198  1  0.58722379  0.91638291  0.79525320  1
  Se  Se199  1  0.91729082  0.25486341  0.30712165  1
  Se  Se200  1  0.91983793  0.25022670  0.79976080  1
  Se  Se201  1  0.90817251  0.57636689  0.31491397  1
  Se  Se202  1  0.90825132  0.57259543  0.80998625  1
  Se  Se203  1  0.90481848  0.91005642  0.30762627  1
  Se  Se204  1  0.91945882  0.91524696  0.80369923  1
  Se  Se205  1  0.07591979  0.08128030  0.30365386  1
  Se  Se206  1  0.08322525  0.08360485  0.79699609  1
  Se  Se207  1  0.08099045  0.41681301  0.30370245  1
  Se  Se208  1  0.08300375  0.41682906  0.79721052  1
  Se  Se209  1  0.08475033  0.75463639  0.31476078  1
  Se  Se210  1  0.09246913  0.75024912  0.81257824  1
  Se  Se211  1  0.41444917  0.08085945  0.29979295  1
  Se  Se212  1  0.42787540  0.09414977  0.81074548  1
  Se  Se213  1  0.41227519  0.41290285  0.30711516  1
  Se  Se214  1  0.41452243  0.41880978  0.80387294  1
  Se  Se215  1  0.42259568  0.75094981  0.31405512  1
  Se  Se216  1  0.41556429  0.75431535  0.79806812  1
  Se  Se217  1  0.75417583  0.08882026  0.31575822  1
  Se  Se218  1  0.75432711  0.08178219  0.80208549  1
  Se  Se219  1  0.74729106  0.41048414  0.30725178  1
  Se  Se220  1  0.74894137  0.41543499  0.80046366  1
  Se  Se221  1  0.74316876  0.74006579  0.29634268  1
  Se  Se222  1  0.75172531  0.74762570  0.79358846  1
  Se  Se223  1  0.24663696  0.08339367  0.19992966  1
  Se  Se224  1  0.24554855  0.08904710  0.68503654  1
  Se  Se225  1  0.25369295  0.41547859  0.20184575  1
  Se  Se226  1  0.25192461  0.41486839  0.69254610  1
  Se  Se227  1  0.23652306  0.75003252  0.19372875  1
  Se  Se228  1  0.24874700  0.74602744  0.69802105  1
  Se  Se229  1  0.57561389  0.09531345  0.18935210  1
  Se  Se230  1  0.59047816  0.08320848  0.70042188  1
  Se  Se231  1  0.58693096  0.40865304  0.20132529  1
  Se  Se232  1  0.58144398  0.41883312  0.69693209  1
  Se  Se233  1  0.58380192  0.74597520  0.19959845  1
  Se  Se234  1  0.58911913  0.74793747  0.68940562  1
  Se  Se235  1  0.91454372  0.08309714  0.19943314  1
  Se  Se236  1  0.92071969  0.08126644  0.69217744  1
  Se  Se237  1  0.91999916  0.42370336  0.19882620  1
  Se  Se238  1  0.92001516  0.41173656  0.69754473  1
  Se  Se239  1  0.90654383  0.75916212  0.19344639  1
  Se  Se240  1  0.91516365  0.75606617  0.68708655  1
  Se  Se241  1  0.07835012  0.25254260  0.19908219  1
  Se  Se242  1  0.08024373  0.25470309  0.69006979  1
  Se  Se243  1  0.09436272  0.58206917  0.19245164  1
  Se  Se244  1  0.08702942  0.57824509  0.68732949  1
  Se  Se245  1  0.07525490  0.91868743  0.20188336  1
  Se  Se246  1  0.08045781  0.91753827  0.69621731  1
  Se  Se247  1  0.41193670  0.25451690  0.20005465  1
  Se  Se248  1  0.41639870  0.25293123  0.70120013  1
  Se  Se249  1  0.42556080  0.57076687  0.19094726  1
  Se  Se250  1  0.41283142  0.58609158  0.69516453  1
  Se  Se251  1  0.41295169  0.91392776  0.20114716  1
  Se  Se252  1  0.42485978  0.91117082  0.68399579  1
  Se  Se253  1  0.75247243  0.25042285  0.19921466  1
  Se  Se254  1  0.75137629  0.25160601  0.69860269  1
  Se  Se255  1  0.74679515  0.58091877  0.19984456  1
  Se  Se256  1  0.74745180  0.58354725  0.69492978  1
  Se  Se257  1  0.75505450  0.91326213  0.19200929  1
  Se  Se258  1  0.75244644  0.92116655  0.69003101  1
