# generated using pymatgen
data_In86Cu29Se144
_symmetry_space_group_name_H-M   'P 1'
_cell_length_a   17.58835771
_cell_length_b   17.58980804
_cell_length_c   23.44696070
_cell_angle_alpha   90.02725567
_cell_angle_beta   90.02423015
_cell_angle_gamma   89.98787384
_symmetry_Int_Tables_number   1
_chemical_formula_structural   In86Cu29Se144
_chemical_formula_sum   'In86 Cu29 Se144'
_cell_volume   7253.92143528
_cell_formula_units_Z   1
loop_
 _symmetry_equiv_pos_site_id
 _symmetry_equiv_pos_as_xyz
  1  'x, y, z'
loop_
 _atom_site_type_symbol
 _atom_site_label
 _atom_site_symmetry_multiplicity
 _atom_site_fract_x
 _atom_site_fract_y
 _atom_site_fract_z
 _atom_site_occupancy
  In  In0  1  -0.00862456  0.16720943  0.14095247  1
  In  In1  1  0.01463222  0.16679974  0.62053338  1
  In  In2  1  0.00013853  0.50525446  0.14266083  1
  In  In3  1  -0.01018426  0.51228686  0.62917949  1
  In  In4  1  0.00087231  0.83182218  0.12786655  1
  In  In5  1  -0.01311478  0.83798985  0.62292932  1
  In  In6  1  0.32536894  0.15890209  0.12568965  1
  In  In7  1  0.33183196  0.17196717  0.63150281  1
  In  In8  1  0.34881416  0.49632951  0.12297090  1
  In  In9  1  0.32510345  0.48996660  0.62193510  1
  In  In10  1  0.32110022  0.84489802  0.12677937  1
  In  In11  1  0.34511394  0.83397608  0.63243902  1
  In  In12  1  0.67733471  0.15887612  0.14130140  1
  In  In13  1  0.65335379  0.17253203  0.63912546  1
  In  In14  1  0.66634061  0.50050110  0.13129797  1
  In  In15  1  0.66881109  0.50588083  0.62160857  1
  In  In16  1  0.67341716  0.82029338  0.12733171  1
  In  In17  1  0.66690463  0.82634146  0.63501815  1
  In  In18  1  0.17333531  0.00903498  0.37208324  1
  In  In19  1  0.17212449  -0.01527464  0.87691015  1
  In  In20  1  0.15063988  0.33460999  0.37441102  1
  In  In21  1  0.16508872  0.32799717  0.86773812  1
  In  In22  1  0.17464162  0.66437317  0.36234371  1
  In  In23  1  0.16417554  0.68597791  0.87095082  1
  In  In24  1  0.50246264  -0.00167565  0.36677097  1
  In  In25  1  0.49196997  -0.01353793  0.85563917  1
  In  In26  1  0.51376081  0.33498328  0.37832962  1
  In  In27  1  0.50837707  0.33982671  0.86334254  1
  In  In28  1  0.49306203  0.65823451  0.37115191  1
  In  In29  1  0.49834144  0.65229125  0.87617669  1
  In  In30  1  0.82602641  -0.01083381  0.36925327  1
  In  In31  1  0.82388527  -0.00416002  0.87766169  1
  In  In32  1  0.84428905  0.34524517  0.37085817  1
  In  In33  1  0.82735791  0.33237356  0.86333107  1
  In  In34  1  0.83215243  0.66725299  0.37704709  1
  In  In35  1  0.84459067  0.67626872  0.87154615  1
  In  In36  1  0.00622404  0.17964457  0.36872739  1
  In  In37  1  -0.01102051  0.16901527  0.87235703  1
  In  In38  1  -0.00317964  0.49192782  0.36821651  1
  In  In39  1  -0.00336724  0.49973422  0.86814395  1
  In  In40  1  -0.00955175  0.82020208  0.36898641  1
  In  In41  1  0.01054849  0.82472224  0.88527406  1
  In  In42  1  0.33599013  0.15154353  0.37610809  1
  In  In43  1  0.33540431  0.15866891  0.86149627  1
  In  In44  1  0.33689460  0.51570873  0.38131679  1
  In  In45  1  0.34929380  0.50692610  0.87564200  1
  In  In46  1  0.33402608  0.83168377  0.36687478  1
  In  In47  1  0.32074385  0.83736746  0.87634736  1
  In  In48  1  0.68199629  0.17184511  0.35999862  1
  In  In49  1  0.65000193  0.15688672  0.85419390  1
  In  In50  1  0.66517549  0.50622039  0.37812633  1
  In  In51  1  0.65980359  0.49392349  0.86871090  1
  In  In52  1  0.67504360  0.83937460  0.37091892  1
  In  In53  1  0.67488933  0.84052035  0.87053752  1
  In  In54  1  0.17632516  -0.01638127  0.13105048  1
  In  In55  1  0.16429414  0.00991429  0.62290008  1
  In  In56  1  0.16186841  0.32613917  0.12772946  1
  In  In57  1  0.17372290  0.32695557  0.63018141  1
  In  In58  1  0.15502466  0.67804846  0.13767228  1
  In  In59  1  0.16487685  0.65458207  0.62654159  1
  In  In60  1  0.49742704  0.00041664  0.12823658  1
  In  In61  1  0.50011396  -0.00124411  0.64708050  1
  In  In62  1  0.50795219  0.34384482  0.12126776  1
  In  In63  1  0.49053990  0.34135928  0.63096298  1
  In  In64  1  0.50805423  0.65844417  0.12825317  1
  In  In65  1  0.51096645  0.67259989  0.62355193  1
  In  In66  1  0.84240955  -0.00960273  0.13606812  1
  In  In67  1  0.82734802  -0.01148473  0.61819583  1
  In  In68  1  0.82890811  0.33042704  0.14024970  1
  In  In69  1  0.82440314  0.34520740  0.62772596  1
  In  In70  1  0.83239964  0.67147089  0.13018986  1
  In  In71  1  0.83058832  0.66977334  0.62175497  1
  In  In72  1  0.50523460  0.83152747  0.50863508  1
  In  In73  1  0.16244480  0.16172804  0.00351973  1
  In  In74  1  0.83351970  0.16718835  0.49375604  1
  In  In75  1  0.82892466  0.50557503  0.00963120  1
  In  In76  1  0.50047837  0.16368954  -0.00470263  1
  In  In77  1  0.33335301  0.33412472  0.24488818  1
  In  In78  1  0.16982218  0.50689462  0.00590623  1
  In  In79  1  0.00070690  -0.00069110  0.74663850  1
  In  In80  1  0.49783120  0.82968827  -0.00896768  1
  In  In81  1  0.50156634  0.16294970  0.50651162  1
  In  In82  1  0.82609353  0.16516220  -0.00206733  1
  In  In83  1  0.16324972  0.49630858  0.49681098  1
  In  In84  1  0.33182448  0.66892571  0.75266444  1
  In  In85  1  0.16620538  0.82956446  0.49082960  1
  Cu  Cu86  1  0.16420521  0.16532857  0.24971534  1
  Cu  Cu87  1  0.83018093  0.50420183  0.25530935  1
  Cu  Cu88  1  0.49943452  0.16199032  0.25197784  1
  Cu  Cu89  1  0.83554793  0.82774118  0.25002783  1
  Cu  Cu90  1  0.66959376  0.65895402  0.00555127  1
  Cu  Cu91  1  0.50130534  0.50059924  0.74734516  1
  Cu  Cu92  1  0.66575261  0.00246503  0.49725131  1
  Cu  Cu93  1  0.16314022  0.49467799  0.74828185  1
  Cu  Cu94  1  0.33291241  0.32917486  0.50662386  1
  Cu  Cu95  1  0.66831642  0.34824129  0.50140967  1
  Cu  Cu96  1  -0.00076927  0.00015417  0.49970407  1
  Cu  Cu97  1  0.83799653  0.17160007  0.74624145  1
  Cu  Cu98  1  -0.01000347  0.33837375  0.00259424  1
  Cu  Cu99  1  0.16793083  0.16785001  0.74789912  1
  Cu  Cu100  1  0.34020713  0.33909553  -0.00618776  1
  Cu  Cu101  1  0.67031406  0.66993784  0.50075324  1
  Cu  Cu102  1  0.82943840  0.50797890  0.74585177  1
  Cu  Cu103  1  -0.00530040  0.66581801  0.49785004  1
  Cu  Cu104  1  0.33236672  -0.00306582  0.49951493  1
  Cu  Cu105  1  -0.00094022  0.33556515  0.49657514  1
  Cu  Cu106  1  0.50366651  0.50016401  0.25026575  1
  Cu  Cu107  1  0.66529391  -0.00553569  -0.00237078  1
  Cu  Cu108  1  0.33563776  0.67174067  -0.00069333  1
  Cu  Cu109  1  0.00705862  0.67676438  0.00146586  1
  Cu  Cu110  1  0.00209851  -0.00835144  0.00980646  1
  Cu  Cu111  1  0.50155358  0.82877250  0.24612124  1
  Cu  Cu112  1  0.66062864  0.33022020  -0.00657951  1
  Cu  Cu113  1  0.16377448  0.84072459  0.25151033  1
  Cu  Cu114  1  0.83543167  0.82974409  0.74873451  1
  Se  Se115  1  0.07315171  0.07973899  0.06913924  1
  Se  Se116  1  0.08660824  0.08377252  0.54657281  1
  Se  Se117  1  0.07313547  0.41503111  0.06105217  1
  Se  Se118  1  0.07698986  0.41205755  0.56340065  1
  Se  Se119  1  0.09059688  0.75616214  0.05708195  1
  Se  Se120  1  0.07827394  0.74370824  0.55750235  1
  Se  Se121  1  0.40784779  0.07555548  0.05430724  1
  Se  Se122  1  0.41471062  0.06881489  0.56438167  1
  Se  Se123  1  0.42478899  0.41784973  0.04817431  1
  Se  Se124  1  0.41629613  0.41722458  0.55328944  1
  Se  Se125  1  0.41581291  0.74855324  0.06301470  1
  Se  Se126  1  0.40556118  0.74047569  0.55697077  1
  Se  Se127  1  0.74304418  0.07308018  0.06048499  1
  Se  Se128  1  0.73977967  0.08775931  0.55941757  1
  Se  Se129  1  0.74332994  0.40161884  0.05871715  1
  Se  Se130  1  0.75712323  0.42765116  0.55144231  1
  Se  Se131  1  0.75438704  0.74507944  0.05301273  1
  Se  Se132  1  0.74606164  0.75803820  0.55646077  1
  Se  Se133  1  0.25973483  0.26041145  0.05436951  1
  Se  Se134  1  0.24929419  0.24481190  0.55660988  1
  Se  Se135  1  0.25833709  0.59573618  0.06591811  1
  Se  Se136  1  0.25584350  0.58937014  0.55222486  1
  Se  Se137  1  0.24937474  0.92046872  0.04942547  1
  Se  Se138  1  0.25358832  0.91470886  0.55890208  1
  Se  Se139  1  0.59323623  0.24536391  0.05967630  1
  Se  Se140  1  0.59112363  0.26138152  0.55883577  1
  Se  Se141  1  0.58604186  0.57546189  0.05605398  1
  Se  Se142  1  0.58416708  0.58762843  0.55206854  1
  Se  Se143  1  0.58545118  0.91506461  0.05856419  1
  Se  Se144  1  0.58825380  0.93025621  0.56497855  1
  Se  Se145  1  0.91493615  0.25399706  0.06147963  1
  Se  Se146  1  0.91953324  0.25547390  0.55898310  1
  Se  Se147  1  0.93179638  0.59048096  0.06110243  1
  Se  Se148  1  0.91210777  0.58373596  0.55218933  1
  Se  Se149  1  0.91261245  0.91157582  0.05878804  1
  Se  Se150  1  0.91336431  0.91524614  0.54657396  1
  Se  Se151  1  0.08341942  0.24869612  0.44898331  1
  Se  Se152  1  0.07161036  0.25707280  0.94496199  1
  Se  Se153  1  0.07923628  0.59181933  0.43693666  1
  Se  Se154  1  0.07823001  0.58894956  0.94061286  1
  Se  Se155  1  0.07567862  0.92149141  0.43451513  1
  Se  Se156  1  0.08661592  0.91685604  0.95119080  1
  Se  Se157  1  0.41303038  0.25230968  0.44259283  1
  Se  Se158  1  0.41343725  0.25461055  0.93354828  1
  Se  Se159  1  0.42738851  0.58132683  0.45112259  1
  Se  Se160  1  0.41999772  0.58239657  0.95450714  1
  Se  Se161  1  0.41580680  0.91904505  0.44192154  1
  Se  Se162  1  0.40996426  0.92894583  0.94034657  1
  Se  Se163  1  0.74215193  0.26256577  0.44023542  1
  Se  Se164  1  0.73705124  0.24862576  0.93251842  1
  Se  Se165  1  0.75172609  0.58453572  0.44761883  1
  Se  Se166  1  0.74784432  0.58545553  0.93731852  1
  Se  Se167  1  0.74962748  0.91656903  0.44814980  1
  Se  Se168  1  0.75263232  0.90984353  0.95007163  1
  Se  Se169  1  0.24986631  0.08394483  0.45026558  1
  Se  Se170  1  0.25513401  0.08256701  0.93985248  1
  Se  Se171  1  0.25699365  0.40556207  0.43880773  1
  Se  Se172  1  0.25118770  0.41493755  0.93861672  1
  Se  Se173  1  0.26151479  0.73866968  0.43912813  1
  Se  Se174  1  0.24807598  0.75060568  0.94813180  1
  Se  Se175  1  0.59018387  0.08438055  0.43634275  1
  Se  Se176  1  0.58606442  0.06944125  0.93487743  1
  Se  Se177  1  0.57948341  0.42580589  0.44926619  1
  Se  Se178  1  0.57951906  0.41702236  0.94281436  1
  Se  Se179  1  0.58870140  0.74846214  0.43929487  1
  Se  Se180  1  0.59482359  0.73855482  0.93921568  1
  Se  Se181  1  0.92180206  0.07700722  0.43432637  1
  Se  Se182  1  0.92589309  0.07239026  0.94629337  1
  Se  Se183  1  0.91792897  0.42335429  0.44741062  1
  Se  Se184  1  0.91102615  0.41430095  0.94102718  1
  Se  Se185  1  0.91206124  0.75342416  0.44796153  1
  Se  Se186  1  0.91432100  0.75301544  0.95092344  1
  Se  Se187  1  0.24852227  0.24378375  0.31011101  1
  Se  Se188  1  0.25282605  0.25107796  0.80040046  1
  Se  Se189  1  0.25892366  0.57626404  0.30146020  1
  Se  Se190  1  0.24039771  0.57590494  0.81274585  1
  Se  Se191  1  0.25159305  0.92081779  0.30434535  1
  Se  Se192  1  0.25298976  0.91946098  0.80065091  1
  Se  Se193  1  0.57947301  0.24873089  0.30393218  1
  Se  Se194  1  0.59521322  0.26524559  0.79493657  1
  Se  Se195  1  0.58579657  0.58550558  0.30365946  1
  Se  Se196  1  0.58296690  0.58500597  0.80089249  1
  Se  Se197  1  0.58377765  0.91215069  0.30161570  1
  Se  Se198  1  0.59148535  0.91303533  0.79858174  1
  Se  Se199  1  0.90220252  0.24097353  0.30734162  1
  Se  Se200  1  0.92103370  0.25459324  0.79927796  1
  Se  Se201  1  0.91650826  0.58631968  0.30704284  1
  Se  Se202  1  0.91633110  0.58556597  0.80190719  1
  Se  Se203  1  0.91814666  0.91387909  0.30205818  1
  Se  Se204  1  0.91416322  0.91187127  0.81067550  1
  Se  Se205  1  0.08160620  0.08368442  0.30488401  1
  Se  Se206  1  0.08913299  0.08860591  0.81162616  1
  Se  Se207  1  0.08867660  0.42018276  0.30045295  1
  Se  Se208  1  0.07946234  0.41272342  0.80342334  1
  Se  Se209  1  0.08546586  0.75007139  0.30216299  1
  Se  Se210  1  0.07393087  0.75371749  0.80232428  1
  Se  Se211  1  0.41315632  0.07794601  0.30041405  1
  Se  Se212  1  0.43827371  0.09949826  0.79853005  1
  Se  Se213  1  0.42271323  0.41818813  0.30994521  1
  Se  Se214  1  0.41387333  0.42053612  0.80085799  1
  Se  Se215  1  0.41843258  0.74761022  0.30191025  1
  Se  Se216  1  0.42117197  0.75441193  0.81565317  1
  Se  Se217  1  0.74047174  0.06616463  0.30021910  1
  Se  Se218  1  0.76186044  0.08637089  0.80436138  1
  Se  Se219  1  0.74715966  0.42124126  0.30909170  1
  Se  Se220  1  0.74793922  0.42066838  0.79840510  1
  Se  Se221  1  0.75017311  0.74710229  0.30451312  1
  Se  Se222  1  0.75150152  0.74828280  0.80394561  1
  Se  Se223  1  0.24830173  0.08086922  0.19782273  1
  Se  Se224  1  0.24888825  0.08205236  0.69536018  1
  Se  Se225  1  0.24380544  0.42495508  0.18653620  1
  Se  Se226  1  0.25245590  0.41386636  0.69908550  1
  Se  Se227  1  0.25025191  0.75744559  0.19880395  1
  Se  Se228  1  0.24008185  0.75403618  0.69071407  1
  Se  Se229  1  0.58189412  0.07663564  0.19891990  1
  Se  Se230  1  0.60278129  0.06845668  0.70479836  1
  Se  Se231  1  0.58594096  0.41305985  0.19911195  1
  Se  Se232  1  0.58573158  0.42184971  0.69093071  1
  Se  Se233  1  0.58733737  0.74350374  0.19688857  1
  Se  Se234  1  0.56315017  0.76482538  0.69799665  1
  Se  Se235  1  0.89351523  0.09683577  0.20140681  1
  Se  Se236  1  0.91110235  0.08817629  0.68312555  1
  Se  Se237  1  0.91353951  0.41776866  0.20309646  1
  Se  Se238  1  0.91438881  0.42080977  0.69596973  1
  Se  Se239  1  0.92274616  0.74541131  0.19815147  1
  Se  Se240  1  0.91763346  0.74860199  0.69302531  1
  Se  Se241  1  0.08081836  0.25373013  0.20145188  1
  Se  Se242  1  0.08123525  0.24995873  0.69677793  1
  Se  Se243  1  0.09071523  0.58204116  0.20496315  1
  Se  Se244  1  0.08154791  0.58333121  0.69957821  1
  Se  Se245  1  0.07682976  0.92117404  0.19812726  1
  Se  Se246  1  0.09004060  0.90925813  0.68734190  1
  Se  Se247  1  0.42612467  0.24225051  0.18560988  1
  Se  Se248  1  0.43567943  0.23376313  0.69307859  1
  Se  Se249  1  0.41863008  0.58122762  0.19682688  1
  Se  Se250  1  0.41667429  0.57861020  0.68768110  1
  Se  Se251  1  0.41689746  0.91415520  0.19485595  1
  Se  Se252  1  0.40416390  0.92174867  0.70689227  1
  Se  Se253  1  0.73526030  0.26100433  0.20542214  1
  Se  Se254  1  0.75135600  0.25379653  0.69555717  1
  Se  Se255  1  0.75051681  0.58501939  0.19620040  1
  Se  Se256  1  0.74585762  0.59148539  0.69282375  1
  Se  Se257  1  0.74880037  0.90861245  0.19638640  1
  Se  Se258  1  0.75396507  0.91648083  0.69658897  1
