# generated using pymatgen
data_In86Cu29Se144
_symmetry_space_group_name_H-M   'P 1'
_cell_length_a   17.59938965
_cell_length_b   17.60079438
_cell_length_c   23.45710797
_cell_angle_alpha   89.99589348
_cell_angle_beta   89.98259677
_cell_angle_gamma   89.99599386
_symmetry_Int_Tables_number   1
_chemical_formula_structural   In86Cu29Se144
_chemical_formula_sum   'In86 Cu29 Se144'
_cell_volume   7266.14936024
_cell_formula_units_Z   1
loop_
 _symmetry_equiv_pos_site_id
 _symmetry_equiv_pos_as_xyz
  1  'x, y, z'
loop_
 _atom_site_type_symbol
 _atom_site_label
 _atom_site_symmetry_multiplicity
 _atom_site_fract_x
 _atom_site_fract_y
 _atom_site_fract_z
 _atom_site_occupancy
  In  In0  1  0.01675928  0.17345683  0.12452289  1
  In  In1  1  -0.00139640  0.16512933  0.62917638  1
  In  In2  1  0.00178063  0.48370269  0.12861202  1
  In  In3  1  -0.00528246  0.48828855  0.61787343  1
  In  In4  1  -0.00430781  0.84499022  0.12115123  1
  In  In5  1  0.00898909  0.84761800  0.62099038  1
  In  In6  1  0.33034400  0.17043205  0.13073133  1
  In  In7  1  0.34024660  0.17876524  0.61980681  1
  In  In8  1  0.32199187  0.49516922  0.12194495  1
  In  In9  1  0.33108763  0.49940408  0.62046672  1
  In  In10  1  0.34532111  0.82953385  0.13008041  1
  In  In11  1  0.31078267  0.82744218  0.62207376  1
  In  In12  1  0.64912084  0.16996790  0.12710833  1
  In  In13  1  0.66887875  0.17042144  0.61475597  1
  In  In14  1  0.67477941  0.50247860  0.13084724  1
  In  In15  1  0.67219170  0.51511180  0.60601202  1
  In  In16  1  0.67349994  0.83042955  0.13369443  1
  In  In17  1  0.66968269  0.81448988  0.61878631  1
  In  In18  1  0.17881332  -0.00533358  0.38119497  1
  In  In19  1  0.17468657  0.01648095  0.87229129  1
  In  In20  1  0.16549608  0.33222362  0.37550836  1
  In  In21  1  0.16618008  0.33372256  0.87039630  1
  In  In22  1  0.21042746  0.64587001  0.41499093  1
  In  In23  1  0.16319321  0.64789905  0.87073825  1
  In  In24  1  0.50792806  0.00891864  0.36992262  1
  In  In25  1  0.50764788  0.00546338  0.87661494  1
  In  In26  1  0.48731410  0.34458936  0.37594656  1
  In  In27  1  0.48735189  0.33667757  0.87889980  1
  In  In28  1  0.50690073  0.63879785  0.39029300  1
  In  In29  1  0.49624532  0.65977478  0.86194638  1
  In  In30  1  0.83190192  0.00392782  0.37829542  1
  In  In31  1  0.82689524  -0.00811129  0.87284169  1
  In  In32  1  0.83838410  0.32920818  0.38103485  1
  In  In33  1  0.84642433  0.32241301  0.86919427  1
  In  In34  1  0.81855331  0.67581619  0.39254287  1
  In  In35  1  0.83578431  0.67841002  0.87007500  1
  In  In36  1  -0.00574000  0.17614887  0.37944040  1
  In  In37  1  0.01079956  0.18367214  0.85557004  1
  In  In38  1  0.01016732  0.49348990  0.38537329  1
  In  In39  1  0.01491235  0.49609045  0.87093541  1
  In  In40  1  0.00886701  0.82834551  0.38506057  1
  In  In41  1  -0.01536508  0.82874980  0.87111890  1
  In  In42  1  0.33222408  0.17057229  0.37473047  1
  In  In43  1  0.31345307  0.18626399  0.89287548  1
  In  In44  1  0.34534214  0.48583516  0.38379022  1
  In  In45  1  0.31957729  0.47960230  0.85856609  1
  In  In46  1  0.32534147  0.82967852  0.37840720  1
  In  In47  1  0.34199580  0.83115716  0.86879743  1
  In  In48  1  0.67738347  0.16051594  0.38024229  1
  In  In49  1  0.66433969  0.16100595  0.88016653  1
  In  In50  1  0.65814799  0.51143858  0.38716115  1
  In  In51  1  0.65412405  0.50268661  0.86905625  1
  In  In52  1  0.67157341  0.83880828  0.37093317  1
  In  In53  1  0.67716575  0.83429256  0.87063090  1
  In  In54  1  0.16429330  0.01671737  0.12769927  1
  In  In55  1  0.14874679  -0.00696904  0.62318350  1
  In  In56  1  0.16873650  0.33034798  0.12885720  1
  In  In57  1  0.16860407  0.33319986  0.62181129  1
  In  In58  1  0.17896351  0.65781527  0.12390878  1
  In  In59  1  0.17862300  0.67469307  0.61653359  1
  In  In60  1  0.48727304  0.00983121  0.13935046  1
  In  In61  1  0.49027868  0.00877023  0.62083662  1
  In  In62  1  0.49735364  0.31819630  0.12275513  1
  In  In63  1  0.49310086  0.33037528  0.61745965  1
  In  In64  1  0.50579467  0.67531215  0.12891188  1
  In  In65  1  0.50596565  0.65323199  0.62176630  1
  In  In66  1  0.83975902  -0.01273900  0.12544556  1
  In  In67  1  0.84973765  0.01249062  0.61784245  1
  In  In68  1  0.83577989  0.34535244  0.13142765  1
  In  In69  1  0.83741639  0.33489406  0.62277287  1
  In  In70  1  0.82174873  0.67057210  0.12797814  1
  In  In71  1  0.82321798  0.66218698  0.61260709  1
  In  In72  1  0.00330231  0.66721677  0.74218084  1
  In  In73  1  0.66929396  0.33856339  0.74384481  1
  In  In74  1  0.49495692  0.83612942  0.50156978  1
  In  In75  1  0.83358309  0.16453870  -0.00539464  1
  In  In76  1  0.83228805  0.50273736  0.00720060  1
  In  In77  1  0.33103961  0.00055071  0.74999150  1
  In  In78  1  0.49560246  0.49357682  0.00417633  1
  In  In79  1  0.00125684  0.66637262  0.26671173  1
  In  In80  1  0.65883048  0.33876937  0.25012348  1
  In  In81  1  0.50369197  0.83683327  0.00152649  1
  In  In82  1  0.00313432  0.00552019  0.24948282  1
  In  In83  1  0.66909677  -0.00267259  0.74896587  1
  In  In84  1  0.16485366  0.83635472  -0.00157101  1
  In  In85  1  0.34375681  0.65887960  0.26282564  1
  Cu  Cu86  1  0.49471031  0.17109401  0.75124883  1
  Cu  Cu87  1  0.00003570  0.66529582  -0.00626649  1
  Cu  Cu88  1  0.83268200  0.16733599  0.25734028  1
  Cu  Cu89  1  0.16237891  0.49400606  0.25362914  1
  Cu  Cu90  1  0.50047871  0.50160049  0.74244640  1
  Cu  Cu91  1  0.00485572  0.32704633  0.50300824  1
  Cu  Cu92  1  0.83310957  0.50253759  0.73896936  1
  Cu  Cu93  1  -0.00216039  0.66428375  0.50550844  1
  Cu  Cu94  1  0.16964944  0.16978178  0.74576993  1
  Cu  Cu95  1  0.83329559  0.83142971  0.25402595  1
  Cu  Cu96  1  0.66239390  0.33164060  0.49692751  1
  Cu  Cu97  1  0.66548198  -0.00114151  0.00263076  1
  Cu  Cu98  1  0.17148233  0.17312286  0.25156942  1
  Cu  Cu99  1  0.67099494  -0.00268927  0.49534796  1
  Cu  Cu100  1  0.49668543  0.16742776  0.25362420  1
  Cu  Cu101  1  0.17012879  0.49487223  0.74389911  1
  Cu  Cu102  1  -0.00583861  0.00014917  -0.00401517  1
  Cu  Cu103  1  0.33345412  0.00929500  0.00811361  1
  Cu  Cu104  1  0.16981026  0.83036689  0.26034907  1
  Cu  Cu105  1  -0.00215489  0.00651111  0.49965918  1
  Cu  Cu106  1  0.00715767  0.33172764  -0.00113449  1
  Cu  Cu107  1  0.50546931  0.83518605  0.25382040  1
  Cu  Cu108  1  0.32946881  0.33236333  0.49856455  1
  Cu  Cu109  1  0.67190577  0.67432143  -0.00023367  1
  Cu  Cu110  1  0.32834722  0.65353858  -0.00666810  1
  Cu  Cu111  1  0.83146155  0.50375149  0.25588368  1
  Cu  Cu112  1  0.33184757  0.01314497  0.50152488  1
  Cu  Cu113  1  0.83164746  0.83198854  0.74548074  1
  Cu  Cu114  1  0.49614490  0.82127132  0.74123926  1
  Se  Se115  1  0.07732533  0.07965206  0.05188922  1
  Se  Se116  1  0.08125617  0.08765228  0.55494760  1
  Se  Se117  1  0.08660517  0.41405312  0.05630395  1
  Se  Se118  1  0.08786346  0.41617968  0.55084417  1
  Se  Se119  1  0.07851787  0.74243696  0.06071242  1
  Se  Se120  1  0.08078313  0.75121012  0.55563873  1
  Se  Se121  1  0.41862836  0.08833789  0.06188773  1
  Se  Se122  1  0.42157805  0.09490223  0.54882450  1
  Se  Se123  1  0.40243986  0.40058102  0.05577450  1
  Se  Se124  1  0.41465935  0.41781217  0.54955577  1
  Se  Se125  1  0.40828395  0.73671589  0.05215949  1
  Se  Se126  1  0.40980531  0.74571055  0.56215311  1
  Se  Se127  1  0.74839681  0.07851346  0.06240672  1
  Se  Se128  1  0.75162581  0.08145663  0.55188929  1
  Se  Se129  1  0.73895215  0.40611683  0.05757584  1
  Se  Se130  1  0.74832408  0.40970190  0.55336403  1
  Se  Se131  1  0.75172947  0.75720234  0.05523783  1
  Se  Se132  1  0.75132255  0.75103943  0.54237628  1
  Se  Se133  1  0.23191711  0.23138634  0.06223246  1
  Se  Se134  1  0.24703324  0.24764442  0.55099465  1
  Se  Se135  1  0.24416622  0.57468098  0.04783486  1
  Se  Se136  1  0.24635038  0.57892407  0.55090905  1
  Se  Se137  1  0.25684825  0.91904529  0.06415060  1
  Se  Se138  1  0.25115738  0.92961758  0.55673448  1
  Se  Se139  1  0.58860715  0.25419092  0.05148794  1
  Se  Se140  1  0.57872070  0.24785507  0.55017217  1
  Se  Se141  1  0.59194051  0.59156997  0.05726942  1
  Se  Se142  1  0.57464288  0.58256511  0.54041064  1
  Se  Se143  1  0.58557560  0.92432362  0.06786382  1
  Se  Se144  1  0.59004356  0.92513871  0.56141047  1
  Se  Se145  1  0.91965837  0.25835527  0.05895850  1
  Se  Se146  1  0.91791900  0.24708783  0.55647935  1
  Se  Se147  1  0.92604544  0.59201837  0.06545773  1
  Se  Se148  1  0.91354341  0.57639616  0.55225839  1
  Se  Se149  1  0.91271435  0.91354458  0.04606815  1
  Se  Se150  1  0.91708915  0.91634370  0.55010381  1
  Se  Se151  1  0.08774899  0.24656878  0.44671504  1
  Se  Se152  1  0.08161569  0.24830818  0.93916990  1
  Se  Se153  1  0.08480604  0.58419268  0.45305156  1
  Se  Se154  1  0.08363675  0.57790016  0.94762078  1
  Se  Se155  1  0.08406488  0.92375663  0.44785732  1
  Se  Se156  1  0.07684077  0.92222046  0.93449498  1
  Se  Se157  1  0.41631466  0.25218453  0.44438495  1
  Se  Se158  1  0.43181564  0.23500504  0.94475083  1
  Se  Se159  1  0.37402431  0.61473460  0.43537121  1
  Se  Se160  1  0.41322683  0.57916153  0.93475378  1
  Se  Se161  1  0.41097510  0.93066838  0.44040377  1
  Se  Se162  1  0.40723724  0.92708920  0.94464210  1
  Se  Se163  1  0.75214806  0.24888612  0.44883716  1
  Se  Se164  1  0.74574433  0.26228561  0.93992767  1
  Se  Se165  1  0.75761510  0.57109523  0.45398616  1
  Se  Se166  1  0.74576763  0.58887189  0.93862315  1
  Se  Se167  1  0.75417302  0.91334776  0.44448718  1
  Se  Se168  1  0.74577224  0.91629093  0.94673392  1
  Se  Se169  1  0.24695557  0.09267180  0.44635475  1
  Se  Se170  1  0.24333025  0.08470343  0.95495133  1
  Se  Se171  1  0.24558335  0.41647357  0.44647725  1
  Se  Se172  1  0.25179308  0.41234092  0.93962014  1
  Se  Se173  1  0.23843714  0.77784304  0.45758395  1
  Se  Se174  1  0.25386958  0.74420270  0.93774299  1
  Se  Se175  1  0.58580739  0.08254152  0.44636899  1
  Se  Se176  1  0.58221649  0.08316579  0.95176378  1
  Se  Se177  1  0.57747511  0.41576044  0.44672812  1
  Se  Se178  1  0.59151924  0.41058654  0.94262740  1
  Se  Se179  1  0.58558636  0.75026352  0.44020013  1
  Se  Se180  1  0.58524547  0.74344102  0.93657160  1
  Se  Se181  1  0.91375007  0.08802367  0.44532504  1
  Se  Se182  1  0.92376113  0.08228476  0.93058592  1
  Se  Se183  1  0.92070504  0.41156873  0.44996385  1
  Se  Se184  1  0.92226049  0.41381942  0.94291058  1
  Se  Se185  1  0.91894124  0.75144898  0.45106960  1
  Se  Se186  1  0.91280871  0.74963860  0.94803414  1
  Se  Se187  1  0.25410394  0.25745192  0.30470434  1
  Se  Se188  1  0.25315186  0.24823806  0.80416110  1
  Se  Se189  1  0.24010292  0.57688963  0.31416628  1
  Se  Se190  1  0.25050481  0.58202968  0.79705311  1
  Se  Se191  1  0.25568503  0.91805061  0.30528402  1
  Se  Se192  1  0.24129156  0.90882511  0.80903548  1
  Se  Se193  1  0.57939823  0.24507142  0.31464501  1
  Se  Se194  1  0.58226687  0.24830782  0.80863329  1
  Se  Se195  1  0.58109372  0.57928639  0.30802582  1
  Se  Se196  1  0.58635845  0.58473915  0.79377780  1
  Se  Se197  1  0.58910654  0.92206423  0.30316644  1
  Se  Se198  1  0.57125281  0.90477961  0.80436823  1
  Se  Se199  1  0.91669814  0.25346481  0.30431654  1
  Se  Se200  1  0.91443492  0.25111821  0.79021660  1
  Se  Se201  1  0.90814425  0.57792028  0.32248485  1
  Se  Se202  1  0.91338914  0.57676156  0.80632711  1
  Se  Se203  1  0.92050642  0.90940427  0.31001594  1
  Se  Se204  1  0.91092905  0.91582341  0.80076727  1
  Se  Se205  1  0.09135568  0.09071392  0.31248412  1
  Se  Se206  1  0.08869861  0.08302882  0.79829702  1
  Se  Se207  1  0.07749384  0.41337245  0.30688707  1
  Se  Se208  1  0.08393583  0.41303993  0.79706456  1
  Se  Se209  1  0.10239236  0.74556757  0.32197025  1
  Se  Se210  1  0.08694970  0.75205460  0.81054404  1
  Se  Se211  1  0.41264893  0.08327225  0.30570763  1
  Se  Se212  1  0.41797474  0.08995524  0.81268803  1
  Se  Se213  1  0.41998515  0.42874364  0.30112758  1
  Se  Se214  1  0.42383785  0.41345905  0.79736206  1
  Se  Se215  1  0.43165016  0.75495300  0.31851163  1
  Se  Se216  1  0.41048526  0.74384363  0.79693387  1
  Se  Se217  1  0.75026335  0.07956533  0.30418117  1
  Se  Se218  1  0.75533535  0.09328074  0.80614157  1
  Se  Se219  1  0.75076992  0.42027487  0.31430670  1
  Se  Se220  1  0.75962686  0.42573606  0.80891965  1
  Se  Se221  1  0.75328977  0.74597434  0.30747629  1
  Se  Se222  1  0.74753035  0.74781818  0.79769514  1
  Se  Se223  1  0.25067846  0.08241800  0.20110952  1
  Se  Se224  1  0.24832260  0.08920971  0.68464497  1
  Se  Se225  1  0.24880437  0.41729922  0.19797568  1
  Se  Se226  1  0.25525740  0.41183223  0.69176811  1
  Se  Se227  1  0.24941391  0.74916305  0.19780527  1
  Se  Se228  1  0.24170081  0.75011303  0.69868020  1
  Se  Se229  1  0.58396855  0.08491960  0.20263171  1
  Se  Se230  1  0.57648656  0.09151524  0.69242885  1
  Se  Se231  1  0.57052722  0.42457274  0.18643847  1
  Se  Se232  1  0.58209975  0.42508168  0.68039818  1
  Se  Se233  1  0.58751958  0.74918091  0.20112659  1
  Se  Se234  1  0.58449455  0.74246282  0.69059313  1
  Se  Se235  1  0.91166752  0.09450850  0.18865871  1
  Se  Se236  1  0.92110875  0.07796981  0.69850371  1
  Se  Se237  1  0.91606611  0.41959753  0.20502772  1
  Se  Se238  1  0.91810357  0.41434990  0.69553739  1
  Se  Se239  1  0.91875346  0.75461274  0.19458195  1
  Se  Se240  1  0.90995215  0.75288792  0.68249936  1
  Se  Se241  1  0.08162294  0.25437298  0.20185655  1
  Se  Se242  1  0.08566112  0.25248483  0.69276888  1
  Se  Se243  1  0.08638763  0.58079320  0.19491630  1
  Se  Se244  1  0.08967821  0.57454929  0.68300591  1
  Se  Se245  1  0.09410974  0.90690777  0.19392524  1
  Se  Se246  1  0.08176825  0.91549808  0.70130457  1
  Se  Se247  1  0.41556966  0.25186038  0.19996868  1
  Se  Se248  1  0.41673445  0.25568118  0.69572402  1
  Se  Se249  1  0.41919145  0.57949634  0.18566126  1
  Se  Se250  1  0.41354440  0.58295895  0.69097122  1
  Se  Se251  1  0.41434322  0.91298558  0.20347126  1
  Se  Se252  1  0.41947026  0.90928880  0.68705984  1
  Se  Se253  1  0.75367034  0.24562517  0.19243619  1
  Se  Se254  1  0.75510953  0.23982800  0.69061458  1
  Se  Se255  1  0.75009625  0.58694921  0.20169031  1
  Se  Se256  1  0.74735938  0.58298573  0.68786791  1
  Se  Se257  1  0.75520220  0.91866585  0.19979691  1
  Se  Se258  1  0.75335910  0.91167643  0.68281211  1
