# generated using pymatgen
data_In86Cu29Se144
_symmetry_space_group_name_H-M   'P 1'
_cell_length_a   17.58001487
_cell_length_b   17.57464161
_cell_length_c   23.43665104
_cell_angle_alpha   90.02363840
_cell_angle_beta   89.99298131
_cell_angle_gamma   89.97322199
_symmetry_Int_Tables_number   1
_chemical_formula_structural   In86Cu29Se144
_chemical_formula_sum   'In86 Cu29 Se144'
_cell_volume   7241.04391599
_cell_formula_units_Z   1
loop_
 _symmetry_equiv_pos_site_id
 _symmetry_equiv_pos_as_xyz
  1  'x, y, z'
loop_
 _atom_site_type_symbol
 _atom_site_label
 _atom_site_symmetry_multiplicity
 _atom_site_fract_x
 _atom_site_fract_y
 _atom_site_fract_z
 _atom_site_occupancy
  In  In0  1  -0.00449063  0.16531225  0.12558413  1
  In  In1  1  0.00068470  0.17279357  0.61778833  1
  In  In2  1  0.02568629  0.54333128  0.08880743  1
  In  In3  1  0.00965315  0.50832126  0.62434483  1
  In  In4  1  -0.02781818  0.78487734  0.08556572  1
  In  In5  1  0.00287251  0.81199796  0.62749386  1
  In  In6  1  0.33991348  0.15708777  0.11916295  1
  In  In7  1  0.35353531  0.18799268  0.60960698  1
  In  In8  1  0.34779241  0.50583690  0.11865725  1
  In  In9  1  0.32216557  0.50533859  0.63647526  1
  In  In10  1  0.32079275  0.82935875  0.11957849  1
  In  In11  1  0.32276153  0.82413951  0.61951198  1
  In  In12  1  0.66516346  0.18026749  0.12106542  1
  In  In13  1  0.66022668  0.16881706  0.61997680  1
  In  In14  1  0.67983047  0.51459402  0.10836125  1
  In  In15  1  0.67250150  0.49753933  0.62736810  1
  In  In16  1  0.66445737  0.81641209  0.12569674  1
  In  In17  1  0.66046560  0.83477513  0.64168561  1
  In  In18  1  0.16853684  -0.00775288  0.38582753  1
  In  In19  1  0.15633112  -0.00526361  0.86835931  1
  In  In20  1  0.16571492  0.34780648  0.39718942  1
  In  In21  1  0.18565884  0.35123505  0.86166940  1
  In  In22  1  0.16956659  0.66697808  0.37472258  1
  In  In23  1  0.16823601  0.66390740  0.87944867  1
  In  In24  1  0.49518329  -0.00016365  0.38370025  1
  In  In25  1  0.51699270  -0.00623957  0.87402336  1
  In  In26  1  0.48808955  0.33319476  0.38854240  1
  In  In27  1  0.49456478  0.33450593  0.86988192  1
  In  In28  1  0.50892447  0.67437428  0.37469318  1
  In  In29  1  0.48502058  0.65972324  0.85935103  1
  In  In30  1  0.84071662  -0.00277780  0.37720056  1
  In  In31  1  0.81794613  -0.00881870  0.86975965  1
  In  In32  1  0.82134500  0.34622987  0.39530531  1
  In  In33  1  0.83491086  0.35063036  0.87024859  1
  In  In34  1  0.82267111  0.65792368  0.36265677  1
  In  In35  1  0.83270052  0.66492143  0.87762667  1
  In  In36  1  -0.00487860  0.17080773  0.39130340  1
  In  In37  1  0.00020291  0.16605532  0.87231771  1
  In  In38  1  -0.00590131  0.51184241  0.37786686  1
  In  In39  1  -0.00859946  0.51963494  0.88747288  1
  In  In40  1  0.00613009  0.82905669  0.37464366  1
  In  In41  1  0.01877584  0.80397529  0.89771454  1
  In  In42  1  0.33484240  0.16978632  0.39681484  1
  In  In43  1  0.33194558  0.18422110  0.86847498  1
  In  In44  1  0.31455276  0.50084876  0.38195748  1
  In  In45  1  0.33528384  0.50449849  0.87272927  1
  In  In46  1  0.34132638  0.82479813  0.38303788  1
  In  In47  1  0.34130036  0.79448796  0.86244939  1
  In  In48  1  0.65956217  0.17657137  0.39292878  1
  In  In49  1  0.65390683  0.15651174  0.86577698  1
  In  In50  1  0.67132264  0.52037161  0.38511144  1
  In  In51  1  0.66388936  0.49635921  0.86793008  1
  In  In52  1  0.67093320  0.79793414  0.38917602  1
  In  In53  1  0.66441694  0.83879323  0.86459645  1
  In  In54  1  0.17634928  -0.00980858  0.12603458  1
  In  In55  1  0.16822350  0.00037076  0.61891797  1
  In  In56  1  0.15036666  0.34249439  0.12512586  1
  In  In57  1  0.18978941  0.35469287  0.61107013  1
  In  In58  1  0.17083981  0.67021422  0.12532656  1
  In  In59  1  0.16506810  0.66058140  0.62672756  1
  In  In60  1  0.48859475  0.00599503  0.11905582  1
  In  In61  1  0.50976344  0.00609466  0.62324873  1
  In  In62  1  0.50748343  0.33419849  0.11318530  1
  In  In63  1  0.51189013  0.32564810  0.63097006  1
  In  In64  1  0.51020779  0.65924632  0.12979285  1
  In  In65  1  0.49471230  0.67143929  0.63182522  1
  In  In66  1  0.84950913  -0.01277138  0.12804154  1
  In  In67  1  0.81424906  -0.00513439  0.62742093  1
  In  In68  1  0.82220476  0.34393487  0.12598520  1
  In  In69  1  0.81607673  0.33253581  0.60996255  1
  In  In70  1  0.82857715  0.66345341  0.12282428  1
  In  In71  1  0.83934544  0.66084652  0.63125031  1
  In  In72  1  0.33342710  0.33906732  0.25879839  1
  In  In73  1  0.66284685  0.34483715  0.25659823  1
  In  In74  1  0.50103374  0.83206302  -0.00750869  1
  In  In75  1  -0.00122838  0.34473466  0.75014525  1
  In  In76  1  -0.01095868  -0.00704482  0.75142745  1
  In  In77  1  0.33372876  -0.00938264  0.24823973  1
  In  In78  1  0.82994168  0.16708496  -0.00076283  1
  In  In79  1  0.33526727  -0.00048860  0.74623529  1
  In  In80  1  0.83569242  0.83275168  0.50320309  1
  In  In81  1  0.50580114  0.49935049  0.50804042  1
  In  In82  1  0.17176109  0.17441323  0.00162216  1
  In  In83  1  0.66297223  -0.00907376  0.24955480  1
  In  In84  1  0.00746786  -0.01932720  0.25551703  1
  In  In85  1  -0.00972892  0.34442406  0.25313349  1
  Cu  Cu86  1  0.83017370  0.50006678  0.74870962  1
  Cu  Cu87  1  -0.00074694  0.33752649  0.50656665  1
  Cu  Cu88  1  0.50075977  0.16902753  0.74525834  1
  Cu  Cu89  1  0.00099731  -0.01170225  -0.00224195  1
  Cu  Cu90  1  0.16659043  0.16910193  0.26338376  1
  Cu  Cu91  1  0.16963296  0.17476403  0.73734336  1
  Cu  Cu92  1  0.66178306  -0.00080730  0.50407543  1
  Cu  Cu93  1  0.66984439  -0.00181274  -0.00349496  1
  Cu  Cu94  1  0.33220790  0.66197422  0.50459619  1
  Cu  Cu95  1  0.00508963  0.34097746  -0.00735329  1
  Cu  Cu96  1  0.16661366  0.82458082  0.75034486  1
  Cu  Cu97  1  0.33195348  0.66306984  -0.00339188  1
  Cu  Cu98  1  0.33852352  0.00468310  -0.01014229  1
  Cu  Cu99  1  -0.00132744  -0.00198478  0.50136270  1
  Cu  Cu100  1  0.16248430  0.82213637  0.24649871  1
  Cu  Cu101  1  0.16528266  0.50714437  0.24786225  1
  Cu  Cu102  1  0.83333210  0.16333507  0.26375363  1
  Cu  Cu103  1  0.50537823  0.50769874  0.24868182  1
  Cu  Cu104  1  0.65728482  0.32895369  -0.00915297  1
  Cu  Cu105  1  0.49728480  0.49692090  0.74653723  1
  Cu  Cu106  1  0.33735811  0.33990355  -0.00729430  1
  Cu  Cu107  1  0.83837077  0.50845335  0.24297476  1
  Cu  Cu108  1  0.66453992  0.66138717  -0.00653466  1
  Cu  Cu109  1  0.32967947  -0.00465502  0.50588014  1
  Cu  Cu110  1  0.83714699  0.82569753  0.75462115  1
  Cu  Cu111  1  0.49981572  0.82438111  0.25702358  1
  Cu  Cu112  1  0.82345744  0.17045512  0.74120501  1
  Cu  Cu113  1  0.49365376  0.16665066  0.25226632  1
  Cu  Cu114  1  0.00828943  0.66446444  0.50068781  1
  Se  Se115  1  0.07833843  0.07678797  0.05680937  1
  Se  Se116  1  0.08174570  0.08292026  0.55352067  1
  Se  Se117  1  0.09159197  0.42207109  0.04496386  1
  Se  Se118  1  0.08612402  0.42431732  0.55226014  1
  Se  Se119  1  0.10970203  0.76633921  0.05351035  1
  Se  Se120  1  0.09057117  0.74893325  0.55313481  1
  Se  Se121  1  0.42133347  0.08822370  0.04242185  1
  Se  Se122  1  0.41771364  0.07788435  0.55453542  1
  Se  Se123  1  0.42295023  0.41887399  0.04896842  1
  Se  Se124  1  0.41630382  0.41793261  0.57219361  1
  Se  Se125  1  0.41537405  0.74348014  0.05759818  1
  Se  Se126  1  0.41616207  0.74611350  0.55496347  1
  Se  Se127  1  0.74629858  0.07406340  0.06501310  1
  Se  Se128  1  0.74804846  0.08188817  0.55462338  1
  Se  Se129  1  0.74292747  0.40772044  0.04692618  1
  Se  Se130  1  0.75243508  0.43439548  0.54684883  1
  Se  Se131  1  0.74339538  0.74492452  0.05058021  1
  Se  Se132  1  0.74845784  0.75183480  0.56917238  1
  Se  Se133  1  0.26061015  0.26524753  0.06365895  1
  Se  Se134  1  0.22964867  0.23052265  0.56093857  1
  Se  Se135  1  0.25314328  0.58303050  0.05636411  1
  Se  Se136  1  0.24892143  0.57848645  0.55620656  1
  Se  Se137  1  0.25880661  0.92541810  0.04883522  1
  Se  Se138  1  0.24210026  0.90950218  0.55124282  1
  Se  Se139  1  0.57901988  0.24145412  0.04465824  1
  Se  Se140  1  0.57809740  0.25046068  0.55086888  1
  Se  Se141  1  0.57610900  0.58348000  0.04795333  1
  Se  Se142  1  0.59094822  0.59570479  0.56371227  1
  Se  Se143  1  0.58807452  0.92151246  0.06007924  1
  Se  Se144  1  0.58969988  0.91101620  0.56137161  1
  Se  Se145  1  0.92481220  0.26157236  0.05623535  1
  Se  Se146  1  0.91211892  0.25010728  0.55094315  1
  Se  Se147  1  0.88912783  0.56126847  0.05526876  1
  Se  Se148  1  0.92131955  0.58785861  0.55598572  1
  Se  Se149  1  0.90896793  0.91084418  0.04585284  1
  Se  Se150  1  0.92414295  0.92076159  0.56858531  1
  Se  Se151  1  0.08431155  0.25173155  0.45530730  1
  Se  Se152  1  0.08527819  0.26032247  0.93266770  1
  Se  Se153  1  0.09045914  0.58086273  0.44476107  1
  Se  Se154  1  0.08303946  0.59247604  0.95446252  1
  Se  Se155  1  0.07854447  0.91059587  0.44930526  1
  Se  Se156  1  0.09377137  0.91467971  0.94745054  1
  Se  Se157  1  0.42309240  0.24734263  0.46217270  1
  Se  Se158  1  0.41663390  0.24967314  0.94391078  1
  Se  Se159  1  0.41437450  0.58477872  0.44221237  1
  Se  Se160  1  0.42084577  0.58620912  0.94290386  1
  Se  Se161  1  0.41542230  0.91442261  0.45100679  1
  Se  Se162  1  0.40866334  0.91636140  0.92900166  1
  Se  Se163  1  0.75896292  0.24214377  0.45505835  1
  Se  Se164  1  0.74560594  0.25206733  0.93268963  1
  Se  Se165  1  0.76186718  0.59442561  0.45027915  1
  Se  Se166  1  0.74592979  0.57603300  0.94041347  1
  Se  Se167  1  0.74005146  0.91897260  0.44067030  1
  Se  Se168  1  0.74519538  0.90942229  0.94380985  1
  Se  Se169  1  0.24549573  0.07984916  0.45350350  1
  Se  Se170  1  0.25145599  0.08249334  0.93257737  1
  Se  Se171  1  0.27779274  0.39903274  0.45571724  1
  Se  Se172  1  0.25088707  0.42312580  0.94436553  1
  Se  Se173  1  0.25062901  0.74607529  0.44765868  1
  Se  Se174  1  0.25489469  0.75370167  0.94546214  1
  Se  Se175  1  0.57722165  0.08268145  0.45177253  1
  Se  Se176  1  0.58494725  0.08269921  0.94718845  1
  Se  Se177  1  0.59471381  0.41226220  0.44163320  1
  Se  Se178  1  0.57865337  0.41664338  0.93859031  1
  Se  Se179  1  0.56903662  0.75100733  0.45742336  1
  Se  Se180  1  0.58547107  0.74059798  0.93158241  1
  Se  Se181  1  0.91029364  0.07963620  0.45204758  1
  Se  Se182  1  0.92143646  0.07371783  0.93926186  1
  Se  Se183  1  0.92229023  0.42401193  0.44962069  1
  Se  Se184  1  0.91227150  0.42114047  0.94709352  1
  Se  Se185  1  0.92127632  0.74125619  0.44166008  1
  Se  Se186  1  0.90859938  0.74533184  0.95353480  1
  Se  Se187  1  0.24553009  0.24850372  0.32223722  1
  Se  Se188  1  0.25186307  0.25594583  0.79304566  1
  Se  Se189  1  0.25250166  0.58369283  0.30339640  1
  Se  Se190  1  0.26968305  0.60797119  0.81051866  1
  Se  Se191  1  0.24090593  0.90508948  0.30892346  1
  Se  Se192  1  0.24836552  0.90581439  0.80882782  1
  Se  Se193  1  0.57223041  0.24715267  0.31212981  1
  Se  Se194  1  0.58178933  0.25245492  0.80178609  1
  Se  Se195  1  0.58883574  0.58518963  0.30733072  1
  Se  Se196  1  0.58133915  0.58013803  0.79932460  1
  Se  Se197  1  0.57560732  0.90888577  0.31576013  1
  Se  Se198  1  0.58557539  0.92242244  0.79478998  1
  Se  Se199  1  0.90773522  0.25294278  0.31942956  1
  Se  Se200  1  0.90690563  0.24260175  0.80497486  1
  Se  Se201  1  0.92323775  0.58822027  0.29907543  1
  Se  Se202  1  0.91277096  0.58064740  0.80572508  1
  Se  Se203  1  0.90297450  0.89871533  0.30665911  1
  Se  Se204  1  0.91879523  0.89959717  0.82009127  1
  Se  Se205  1  0.08321437  0.08607170  0.31724697  1
  Se  Se206  1  0.08981794  0.09427493  0.79649746  1
  Se  Se207  1  0.09300426  0.42231365  0.31180064  1
  Se  Se208  1  0.08115879  0.43539254  0.81321349  1
  Se  Se209  1  0.08030838  0.74284930  0.30379518  1
  Se  Se210  1  0.08293839  0.74641605  0.80847525  1
  Se  Se211  1  0.41169145  0.08914477  0.31129494  1
  Se  Se212  1  0.42288575  0.08894376  0.81003103  1
  Se  Se213  1  0.42809336  0.43119212  0.31401776  1
  Se  Se214  1  0.41104219  0.41719724  0.80170187  1
  Se  Se215  1  0.41174699  0.74334725  0.30697056  1
  Se  Se216  1  0.44962747  0.77247648  0.79096706  1
  Se  Se217  1  0.74439172  0.08531420  0.31613173  1
  Se  Se218  1  0.75047401  0.08404703  0.80090979  1
  Se  Se219  1  0.76228260  0.43060369  0.31009376  1
  Se  Se220  1  0.74549465  0.41187376  0.79637979  1
  Se  Se221  1  0.74957454  0.75819989  0.30332729  1
  Se  Se222  1  0.74988055  0.74545179  0.80634647  1
  Se  Se223  1  0.24330673  0.09381035  0.19611833  1
  Se  Se224  1  0.25245177  0.09119906  0.68358518  1
  Se  Se225  1  0.24488425  0.42183692  0.19042460  1
  Se  Se226  1  0.23864895  0.41891701  0.70180263  1
  Se  Se227  1  0.25748907  0.74711447  0.19769499  1
  Se  Se228  1  0.25075663  0.74430678  0.69588332  1
  Se  Se229  1  0.57576894  0.09171516  0.18996740  1
  Se  Se230  1  0.58738510  0.08561763  0.69642935  1
  Se  Se231  1  0.58024771  0.42574111  0.18593113  1
  Se  Se232  1  0.58676701  0.41793166  0.69635757  1
  Se  Se233  1  0.58457654  0.74542985  0.20138681  1
  Se  Se234  1  0.57954077  0.74422580  0.70570697  1
  Se  Se235  1  0.91445678  0.08649113  0.20218125  1
  Se  Se236  1  0.90951853  0.08945998  0.68806179  1
  Se  Se237  1  0.91800757  0.43134460  0.18117664  1
  Se  Se238  1  0.90590879  0.42065169  0.68366034  1
  Se  Se239  1  0.91787181  0.75025112  0.18315489  1
  Se  Se240  1  0.92134831  0.74324958  0.70268933  1
  Se  Se241  1  0.08448248  0.24299974  0.19889774  1
  Se  Se242  1  0.08487694  0.25805674  0.68576140  1
  Se  Se243  1  0.08168318  0.58228791  0.18770763  1
  Se  Se244  1  0.07404453  0.59355072  0.69899527  1
  Se  Se245  1  0.08582414  0.90052827  0.18291341  1
  Se  Se246  1  0.08920390  0.91084558  0.69331035  1
  Se  Se247  1  0.41877226  0.24946650  0.18996478  1
  Se  Se248  1  0.41401899  0.25363324  0.69723776  1
  Se  Se249  1  0.41578932  0.58560548  0.19676114  1
  Se  Se250  1  0.41332205  0.58558156  0.69951260  1
  Se  Se251  1  0.42777172  0.90251878  0.18867801  1
  Se  Se252  1  0.41744830  0.91268471  0.68133431  1
  Se  Se253  1  0.75572141  0.24459100  0.19994214  1
  Se  Se254  1  0.74484479  0.25504335  0.68766836  1
  Se  Se255  1  0.74223934  0.58321322  0.19385636  1
  Se  Se256  1  0.74678867  0.58629668  0.69830028  1
  Se  Se257  1  0.75685635  0.90489409  0.19109512  1
  Se  Se258  1  0.75350054  0.91414724  0.70676554  1
