# generated using pymatgen
data_In86Cu29Se144
_symmetry_space_group_name_H-M   'P 1'
_cell_length_a   17.57741361
_cell_length_b   17.58024046
_cell_length_c   23.43604366
_cell_angle_alpha   89.97187579
_cell_angle_beta   89.99996403
_cell_angle_gamma   89.99376467
_symmetry_Int_Tables_number   1
_chemical_formula_structural   In86Cu29Se144
_chemical_formula_sum   'In86 Cu29 Se144'
_cell_volume   7242.09181827
_cell_formula_units_Z   1
loop_
 _symmetry_equiv_pos_site_id
 _symmetry_equiv_pos_as_xyz
  1  'x, y, z'
loop_
 _atom_site_type_symbol
 _atom_site_label
 _atom_site_symmetry_multiplicity
 _atom_site_fract_x
 _atom_site_fract_y
 _atom_site_fract_z
 _atom_site_occupancy
  In  In0  1  0.01184436  0.15555739  0.13219200  1
  In  In1  1  -0.00318794  0.15772256  0.61283050  1
  In  In2  1  -0.00213009  0.50109724  0.12476932  1
  In  In3  1  0.01675317  0.49875096  0.62873163  1
  In  In4  1  0.01364592  0.82572774  0.14070750  1
  In  In5  1  -0.00750533  0.82919343  0.62114655  1
  In  In6  1  0.33401437  0.16721677  0.12236007  1
  In  In7  1  0.32598974  0.17565580  0.63760331  1
  In  In8  1  0.32111465  0.49008577  0.11429836  1
  In  In9  1  0.33332650  0.49940309  0.63914517  1
  In  In10  1  0.33205313  0.85150655  0.13271358  1
  In  In11  1  0.34553072  0.83119974  0.63667832  1
  In  In12  1  0.66241231  0.17071461  0.12730247  1
  In  In13  1  0.66926199  0.15641353  0.62020510  1
  In  In14  1  0.66642288  0.49846732  0.12290168  1
  In  In15  1  0.66606745  0.50433797  0.62553268  1
  In  In16  1  0.64388186  0.83845551  0.14886572  1
  In  In17  1  0.66742300  0.83840001  0.61307496  1
  In  In18  1  0.18086101  0.00370355  0.36356988  1
  In  In19  1  0.17719787  -0.01118839  0.88587313  1
  In  In20  1  0.15521569  0.32215244  0.36221001  1
  In  In21  1  0.17718635  0.32257197  0.88803231  1
  In  In22  1  0.14892849  0.67636199  0.37100898  1
  In  In23  1  0.16594071  0.66814908  0.87982542  1
  In  In24  1  0.48875225  -0.01556923  0.35982647  1
  In  In25  1  0.49218300  0.01140858  0.87628947  1
  In  In26  1  0.49926301  0.33201317  0.36233564  1
  In  In27  1  0.49501548  0.33948356  0.88347615  1
  In  In28  1  0.51343238  0.66942174  0.36995317  1
  In  In29  1  0.48491974  0.66809140  0.87842465  1
  In  In30  1  0.83398940  -0.00014150  0.37036775  1
  In  In31  1  0.82202764  -0.00008424  0.87573457  1
  In  In32  1  0.82734378  0.32143989  0.36425950  1
  In  In33  1  0.84696756  0.33445792  0.87864229  1
  In  In34  1  0.84574969  0.68215209  0.37052757  1
  In  In35  1  0.83068644  0.65745743  0.87539199  1
  In  In36  1  0.00277003  0.16289040  0.37078331  1
  In  In37  1  0.00172988  0.17490092  0.87748442  1
  In  In38  1  0.00289053  0.50195520  0.36554288  1
  In  In39  1  -0.00710333  0.50856225  0.88658323  1
  In  In40  1  -0.01037542  0.81983818  0.36488083  1
  In  In41  1  0.01636020  0.83906363  0.87602784  1
  In  In42  1  0.32551413  0.15924541  0.36885122  1
  In  In43  1  0.33320966  0.16529878  0.87445342  1
  In  In44  1  0.34519014  0.49885939  0.37050641  1
  In  In45  1  0.33126200  0.49980624  0.88329856  1
  In  In46  1  0.32628585  0.84846821  0.37246486  1
  In  In47  1  0.32890168  0.81978909  0.86640466  1
  In  In48  1  0.67107520  0.16954527  0.36546325  1
  In  In49  1  0.65120247  0.15575368  0.87941828  1
  In  In50  1  0.67028084  0.49786337  0.36281963  1
  In  In51  1  0.67186103  0.49712894  0.89031485  1
  In  In52  1  0.66745083  0.83950749  0.36968066  1
  In  In53  1  0.66162323  0.84573234  0.87963049  1
  In  In54  1  0.16667294  0.00139359  0.12430496  1
  In  In55  1  0.16841874  0.00951365  0.62120029  1
  In  In56  1  0.16762511  0.33265417  0.12461434  1
  In  In57  1  0.17743622  0.33346379  0.62614055  1
  In  In58  1  0.15975194  0.66087440  0.11935457  1
  In  In59  1  0.17039081  0.66968768  0.63429321  1
  In  In60  1  0.49205276  0.00508424  0.13074444  1
  In  In61  1  0.50158580  -0.00447212  0.62717942  1
  In  In62  1  0.49877421  0.32920154  0.12191666  1
  In  In63  1  0.48553105  0.32110185  0.62773942  1
  In  In64  1  0.51242543  0.66965346  0.12789792  1
  In  In65  1  0.48969597  0.67126634  0.62900062  1
  In  In66  1  0.83195938  0.00308440  0.13405368  1
  In  In67  1  0.83398433  0.00002385  0.61261792  1
  In  In68  1  0.82458072  0.34139230  0.13054637  1
  In  In69  1  0.84282719  0.32891871  0.61901416  1
  In  In70  1  0.83684738  0.66250283  0.13011541  1
  In  In71  1  0.83454757  0.68148422  0.62137620  1
  In  In72  1  0.00392076  -0.00181761  0.74053228  1
  In  In73  1  0.83436230  0.17201234  0.00332434  1
  In  In74  1  0.16090059  0.83786678  0.49720749  1
  In  In75  1  0.66172024  0.67026006  0.74721631  1
  In  In76  1  0.83943871  0.50370319  0.49593102  1
  In  In77  1  0.66320462  0.33359342  0.74856738  1
  In  In78  1  0.65750369  0.00359945  0.75298614  1
  In  In79  1  0.01039633  0.33363169  0.75875188  1
  In  In80  1  0.50225690  0.50571120  0.50590090  1
  In  In81  1  0.83483018  0.82708278  0.01162736  1
  In  In82  1  0.49593481  0.83360806  0.00726722  1
  In  In83  1  0.32808109  0.66260471  0.24754188  1
  In  In84  1  0.50427726  0.15957466  0.49898621  1
  In  In85  1  0.16934900  0.49715104  0.49136183  1
  Cu  Cu86  1  0.66998553  0.33101930  0.48892145  1
  Cu  Cu87  1  0.33504611  0.00117972  0.49522707  1
  Cu  Cu88  1  0.16473465  0.16349477  0.75323232  1
  Cu  Cu89  1  0.32762652  0.32187509  0.50025552  1
  Cu  Cu90  1  0.67350820  0.68218103  0.49093774  1
  Cu  Cu91  1  0.83954179  0.16791023  0.24970505  1
  Cu  Cu92  1  0.33287321  0.00407704  0.00277531  1
  Cu  Cu93  1  0.00021180  0.32094263  0.49145425  1
  Cu  Cu94  1  0.17437010  0.16776600  0.24501040  1
  Cu  Cu95  1  -0.00012497  0.00011173  0.49088667  1
  Cu  Cu96  1  0.49923457  0.16726500  0.24618096  1
  Cu  Cu97  1  0.83275964  0.49885278  0.24730795  1
  Cu  Cu98  1  0.66861476  -0.00184214  0.49177779  1
  Cu  Cu99  1  0.49460429  0.50113551  0.76033498  1
  Cu  Cu100  1  0.66339339  0.33242578  0.00588108  1
  Cu  Cu101  1  -0.00068992  0.66993273  0.00566414  1
  Cu  Cu102  1  0.84337890  0.50363700  0.75697023  1
  Cu  Cu103  1  0.17219768  0.50518185  0.75900813  1
  Cu  Cu104  1  0.33197898  0.67428917  0.50732035  1
  Cu  Cu105  1  0.49883919  0.49129474  0.24172711  1
  Cu  Cu106  1  0.83570470  0.83235901  0.74557088  1
  Cu  Cu107  1  0.00582103  0.00090186  0.00640737  1
  Cu  Cu108  1  0.32857336  0.66740250  -0.00127999  1
  Cu  Cu109  1  0.33496197  0.32913369  0.00142344  1
  Cu  Cu110  1  0.17389008  0.82680420  0.75461410  1
  Cu  Cu111  1  0.00415186  0.33690626  0.00485215  1
  Cu  Cu112  1  0.16444382  0.49862820  0.24110287  1
  Cu  Cu113  1  0.66887380  0.66482373  0.00724527  1
  Cu  Cu114  1  0.82993025  0.83244407  0.24966709  1
  Se  Se115  1  0.08991931  0.08988415  0.05224243  1
  Se  Se116  1  0.08533252  0.07987909  0.54626137  1
  Se  Se117  1  0.08658653  0.42154559  0.05715645  1
  Se  Se118  1  0.07812873  0.40337791  0.55276543  1
  Se  Se119  1  0.08085079  0.75671753  0.05629003  1
  Se  Se120  1  0.08167025  0.73848684  0.55786742  1
  Se  Se121  1  0.42013662  0.08434470  0.05397996  1
  Se  Se122  1  0.40699596  0.08259538  0.56091717  1
  Se  Se123  1  0.41854465  0.41509741  0.05214761  1
  Se  Se124  1  0.40374660  0.41120183  0.55732902  1
  Se  Se125  1  0.40516970  0.74260674  0.06582835  1
  Se  Se126  1  0.41857877  0.75675126  0.55617116  1
  Se  Se127  1  0.74647876  0.07802200  0.05874653  1
  Se  Se128  1  0.74948167  0.08421952  0.54589959  1
  Se  Se129  1  0.75166856  0.41708689  0.05241178  1
  Se  Se130  1  0.74264418  0.41250040  0.55500828  1
  Se  Se131  1  0.73460142  0.75055930  0.07160008  1
  Se  Se132  1  0.75805802  0.75967347  0.54784521  1
  Se  Se133  1  0.24816157  0.24877348  0.05433910  1
  Se  Se134  1  0.24647186  0.24186057  0.55636446  1
  Se  Se135  1  0.24385655  0.58228013  0.04952914  1
  Se  Se136  1  0.25609854  0.58362998  0.56063148  1
  Se  Se137  1  0.25108609  0.91801671  0.05476748  1
  Se  Se138  1  0.25808897  0.91861054  0.55818046  1
  Se  Se139  1  0.58065784  0.24362557  0.05231012  1
  Se  Se140  1  0.58929076  0.26100384  0.55703646  1
  Se  Se141  1  0.57990481  0.58170237  0.05472406  1
  Se  Se142  1  0.59734225  0.60331795  0.55747162  1
  Se  Se143  1  0.58933314  0.92103643  0.06375192  1
  Se  Se144  1  0.58129584  0.92465990  0.55017881  1
  Se  Se145  1  0.92465842  0.25530005  0.06652540  1
  Se  Se146  1  0.91315931  0.24390365  0.54682997  1
  Se  Se147  1  0.91395620  0.58506751  0.05504964  1
  Se  Se148  1  0.92613390  0.58518953  0.56327070  1
  Se  Se149  1  0.92425680  0.92225783  0.06538216  1
  Se  Se150  1  0.92230819  0.91691631  0.54963346  1
  Se  Se151  1  0.09029295  0.24252659  0.44165640  1
  Se  Se152  1  0.08087707  0.24713377  0.95188850  1
  Se  Se153  1  0.07099401  0.58992066  0.44463653  1
  Se  Se154  1  0.08346911  0.58722555  0.95108266  1
  Se  Se155  1  0.07897561  0.92246236  0.42905404  1
  Se  Se156  1  0.08670717  0.91374165  0.95433578  1
  Se  Se157  1  0.41657633  0.25296257  0.43934857  1
  Se  Se158  1  0.41660568  0.24559033  0.94613072  1
  Se  Se159  1  0.41183315  0.59411710  0.44437799  1
  Se  Se160  1  0.41724634  0.58285387  0.95212527  1
  Se  Se161  1  0.41726102  0.91668585  0.44368575  1
  Se  Se162  1  0.40691443  0.91643021  0.94177253  1
  Se  Se163  1  0.75214156  0.24472905  0.44115899  1
  Se  Se164  1  0.74146884  0.25678576  0.93852997  1
  Se  Se165  1  0.74444005  0.58868220  0.43631795  1
  Se  Se166  1  0.75593517  0.58561080  0.95355678  1
  Se  Se167  1  0.75438468  0.91501145  0.44111947  1
  Se  Se168  1  0.74476842  0.92278211  0.95298882  1
  Se  Se169  1  0.24852038  0.08218706  0.44403972  1
  Se  Se170  1  0.24930564  0.08739381  0.94776940  1
  Se  Se171  1  0.25871826  0.40495212  0.43443760  1
  Se  Se172  1  0.24884050  0.41743177  0.95328801  1
  Se  Se173  1  0.25274357  0.74304145  0.43980680  1
  Se  Se174  1  0.24931365  0.75568015  0.94656508  1
  Se  Se175  1  0.58562027  0.07473831  0.43076669  1
  Se  Se176  1  0.58523177  0.06832255  0.95021080  1
  Se  Se177  1  0.58489325  0.41474896  0.43833825  1
  Se  Se178  1  0.58072144  0.41843230  0.95294642  1
  Se  Se179  1  0.58162179  0.75843755  0.44135766  1
  Se  Se180  1  0.58996467  0.74361702  0.94422418  1
  Se  Se181  1  0.91526695  0.08510224  0.44018144  1
  Se  Se182  1  0.92233422  0.07423476  0.94268881  1
  Se  Se183  1  0.92263664  0.40781684  0.43528482  1
  Se  Se184  1  0.91546052  0.41703538  0.95322081  1
  Se  Se185  1  0.92318227  0.75031555  0.44800728  1
  Se  Se186  1  0.92157698  0.74857671  0.94018021  1
  Se  Se187  1  0.25636517  0.25299092  0.29984583  1
  Se  Se188  1  0.24495969  0.24950242  0.80695415  1
  Se  Se189  1  0.23726634  0.57392504  0.31202500  1
  Se  Se190  1  0.25506268  0.58796261  0.81263640  1
  Se  Se191  1  0.24970170  0.91257757  0.29375513  1
  Se  Se192  1  0.25008342  0.91808071  0.80582184  1
  Se  Se193  1  0.58566021  0.25097808  0.29764662  1
  Se  Se194  1  0.57486543  0.24766458  0.81069386  1
  Se  Se195  1  0.57697037  0.57514353  0.29969751  1
  Se  Se196  1  0.58526156  0.57607319  0.81472536  1
  Se  Se197  1  0.58853451  0.91884679  0.29687088  1
  Se  Se198  1  0.56816948  0.90854475  0.80762590  1
  Se  Se199  1  0.92544857  0.25143545  0.30052911  1
  Se  Se200  1  0.90761520  0.23960098  0.80310527  1
  Se  Se201  1  0.91251501  0.58345117  0.30336750  1
  Se  Se202  1  0.92498796  0.58916278  0.80708816  1
  Se  Se203  1  0.91586199  0.91613860  0.30097718  1
  Se  Se204  1  0.91170299  0.91405782  0.80831799  1
  Se  Se205  1  0.09045904  0.08672625  0.30080867  1
  Se  Se206  1  0.08573258  0.08190019  0.81258087  1
  Se  Se207  1  0.08113555  0.41627264  0.29741670  1
  Se  Se208  1  0.09268179  0.42500604  0.82125817  1
  Se  Se209  1  0.08474540  0.75531196  0.29443682  1
  Se  Se210  1  0.08406252  0.74876919  0.80578211  1
  Se  Se211  1  0.41446799  0.08463973  0.30025381  1
  Se  Se212  1  0.41058793  0.08148110  0.80314049  1
  Se  Se213  1  0.41194214  0.41348168  0.29636425  1
  Se  Se214  1  0.41220740  0.41666133  0.81157488  1
  Se  Se215  1  0.41331183  0.75020058  0.31166220  1
  Se  Se216  1  0.42673071  0.75140181  0.80120478  1
  Se  Se217  1  0.75277407  0.08317534  0.29956801  1
  Se  Se218  1  0.75446078  0.09658291  0.80651767  1
  Se  Se219  1  0.74916813  0.41051507  0.29720817  1
  Se  Se220  1  0.75767522  0.42248032  0.81053951  1
  Se  Se221  1  0.74769751  0.74730202  0.30384745  1
  Se  Se222  1  0.75255383  0.76110926  0.81040764  1
  Se  Se223  1  0.25561938  0.08130326  0.19243712  1
  Se  Se224  1  0.24619867  0.07955141  0.69869955  1
  Se  Se225  1  0.25257097  0.41492550  0.19468434  1
  Se  Se226  1  0.24587365  0.41541748  0.70242447  1
  Se  Se227  1  0.24158745  0.75374246  0.18797203  1
  Se  Se228  1  0.25950954  0.74534097  0.70076088  1
  Se  Se229  1  0.58471533  0.08332559  0.19610669  1
  Se  Se230  1  0.57204215  0.09993870  0.69346012  1
  Se  Se231  1  0.58617036  0.41025766  0.19031566  1
  Se  Se232  1  0.56969225  0.42765059  0.69049399  1
  Se  Se233  1  0.57901336  0.73660920  0.21077945  1
  Se  Se234  1  0.57875807  0.76652219  0.68924469  1
  Se  Se235  1  0.92179237  0.08051200  0.20000187  1
  Se  Se236  1  0.90668729  0.08871349  0.68907137  1
  Se  Se237  1  0.91852508  0.41639462  0.19557678  1
  Se  Se238  1  0.91544161  0.41994439  0.69404500  1
  Se  Se239  1  0.91556454  0.74744078  0.19949202  1
  Se  Se240  1  0.92071812  0.74723146  0.69726867  1
  Se  Se241  1  0.08606079  0.25152561  0.19622151  1
  Se  Se242  1  0.08478202  0.23946727  0.68890171  1
  Se  Se243  1  0.07981962  0.58624395  0.19461805  1
  Se  Se244  1  0.08797717  0.58267948  0.70101826  1
  Se  Se245  1  0.06980781  0.93933727  0.19448841  1
  Se  Se246  1  0.09665164  0.90284074  0.68689128  1
  Se  Se247  1  0.41515796  0.25074175  0.19324470  1
  Se  Se248  1  0.40888762  0.25721262  0.70534946  1
  Se  Se249  1  0.41620745  0.57373008  0.18445105  1
  Se  Se250  1  0.41837014  0.58622320  0.70174195  1
  Se  Se251  1  0.43466467  0.90382955  0.19920806  1
  Se  Se252  1  0.40790185  0.93554841  0.69798717  1
  Se  Se253  1  0.75151422  0.24697954  0.19577636  1
  Se  Se254  1  0.75518542  0.24610458  0.68805070  1
  Se  Se255  1  0.74707801  0.58095733  0.19445174  1
  Se  Se256  1  0.76112152  0.57796911  0.69355325  1
  Se  Se257  1  0.74716376  0.91927645  0.20045537  1
  Se  Se258  1  0.75381545  0.91613103  0.69006472  1
