# generated using pymatgen
data_In86Cu29Se144
_symmetry_space_group_name_H-M   'P 1'
_cell_length_a   17.57940346
_cell_length_b   17.58464420
_cell_length_c   23.43832931
_cell_angle_alpha   89.95901622
_cell_angle_beta   90.03388389
_cell_angle_gamma   89.98622546
_symmetry_Int_Tables_number   1
_chemical_formula_structural   In86Cu29Se144
_chemical_formula_sum   'In86 Cu29 Se144'
_cell_volume   7245.43010265
_cell_formula_units_Z   1
loop_
 _symmetry_equiv_pos_site_id
 _symmetry_equiv_pos_as_xyz
  1  'x, y, z'
loop_
 _atom_site_type_symbol
 _atom_site_label
 _atom_site_symmetry_multiplicity
 _atom_site_fract_x
 _atom_site_fract_y
 _atom_site_fract_z
 _atom_site_occupancy
  In  In0  1  0.00991463  0.16706172  0.12689542  1
  In  In1  1  0.00168641  0.16942340  0.62741726  1
  In  In2  1  -0.00613029  0.50232359  0.13566667  1
  In  In3  1  -0.01611499  0.50555713  0.63245273  1
  In  In4  1  0.00133630  0.82895480  0.11764634  1
  In  In5  1  0.01832360  0.82820110  0.63291677  1
  In  In6  1  0.32469151  0.15709984  0.11685721  1
  In  In7  1  0.32827845  0.18247279  0.62274825  1
  In  In8  1  0.34091167  0.51201546  0.13098514  1
  In  In9  1  0.33623370  0.49852985  0.63109295  1
  In  In10  1  0.32595086  0.83668706  0.13332559  1
  In  In11  1  0.31718767  0.82367546  0.62155992  1
  In  In12  1  0.66622721  0.18034444  0.12141733  1
  In  In13  1  0.67363138  0.15730744  0.62827563  1
  In  In14  1  0.65854767  0.49766979  0.12721393  1
  In  In15  1  0.68122788  0.49191646  0.63671817  1
  In  In16  1  0.67220419  0.82110732  0.11920793  1
  In  In17  1  0.66073146  0.84024789  0.62971036  1
  In  In18  1  0.17873523  -0.01308396  0.38472432  1
  In  In19  1  0.16462973  0.00071242  0.87596541  1
  In  In20  1  0.15123108  0.34001367  0.38153702  1
  In  In21  1  0.15501205  0.32687823  0.86734987  1
  In  In22  1  0.16984395  0.68199100  0.36506852  1
  In  In23  1  0.17334703  0.68142230  0.85995302  1
  In  In24  1  0.47976699  -0.00027333  0.37303739  1
  In  In25  1  0.51409780  0.00278200  0.87594687  1
  In  In26  1  0.50817510  0.32251798  0.37713523  1
  In  In27  1  0.49358537  0.33106983  0.86854461  1
  In  In28  1  0.50753778  0.68099953  0.38159728  1
  In  In29  1  0.49548538  0.66192717  0.86757109  1
  In  In30  1  0.84835339  0.00096969  0.38236580  1
  In  In31  1  0.82897373  -0.01013743  0.86691894  1
  In  In32  1  0.83378927  0.33645862  0.37887380  1
  In  In33  1  0.83918790  0.34185078  0.85713289  1
  In  In34  1  0.83717150  0.64409798  0.38103006  1
  In  In35  1  0.86213837  0.68458894  0.85089735  1
  In  In36  1  -0.00767981  0.17306417  0.38538574  1
  In  In37  1  0.00902842  0.17229435  0.87014933  1
  In  In38  1  -0.01180064  0.49667698  0.36698636  1
  In  In39  1  -0.00415429  0.51034177  0.85509210  1
  In  In40  1  0.01491373  0.83253669  0.37526796  1
  In  In41  1  0.00148930  0.83319566  0.87243613  1
  In  In42  1  0.33685559  0.15379592  0.37785864  1
  In  In43  1  0.32449565  0.17298011  0.88124089  1
  In  In44  1  0.31835466  0.50606207  0.37595556  1
  In  In45  1  0.33558472  0.50610618  0.86904510  1
  In  In46  1  0.33033579  0.83340279  0.37707328  1
  In  In47  1  0.31947710  0.81734769  0.87460035  1
  In  In48  1  0.66621593  0.18312582  0.37814608  1
  In  In49  1  0.66612265  0.16584004  0.86980125  1
  In  In50  1  0.69927666  0.50123113  0.38188035  1
  In  In51  1  0.67564004  0.50440708  0.85715570  1
  In  In52  1  0.66148336  0.80694827  0.38535744  1
  In  In53  1  0.67826948  0.84369867  0.86563367  1
  In  In54  1  0.16925859  0.00176542  0.11996301  1
  In  In55  1  0.15688636  -0.00639661  0.62403004  1
  In  In56  1  0.16491200  0.31930471  0.12660055  1
  In  In57  1  0.17377323  0.32423477  0.62829057  1
  In  In58  1  0.16446751  0.67332673  0.12628346  1
  In  In59  1  0.16139289  0.67563223  0.63384710  1
  In  In60  1  0.48073371  -0.00554662  0.12212975  1
  In  In61  1  0.51216317  -0.00132411  0.62735315  1
  In  In62  1  0.51059450  0.33749881  0.12285201  1
  In  In63  1  0.49713106  0.33809493  0.63128893  1
  In  In64  1  0.49916881  0.66258199  0.12730909  1
  In  In65  1  0.49262109  0.67612976  0.63092851  1
  In  In66  1  0.85109587  -0.00746788  0.12273002  1
  In  In67  1  0.82901496  0.01181546  0.62752594  1
  In  In68  1  0.83198081  0.33792708  0.13728169  1
  In  In69  1  0.83569752  0.33317963  0.62708778  1
  In  In70  1  0.82931184  0.66890767  0.12034139  1
  In  In71  1  0.83909158  0.66016460  0.62819718  1
  In  In72  1  0.65982586  0.00238791  0.25325360  1
  In  In73  1  0.66882756  0.65915436  0.25094573  1
  In  In74  1  0.15890834  0.50212748  0.49979514  1
  In  In75  1  0.01004554  0.00003002  0.24854215  1
  In  In76  1  0.33142891  -0.00442516  0.75645711  1
  In  In77  1  0.49736786  0.83624178  -0.00057131  1
  In  In78  1  0.83158876  0.50070753  -0.01220143  1
  In  In79  1  0.16551442  0.49938911  -0.00139316  1
  In  In80  1  0.50025724  0.16251144  0.50012067  1
  In  In81  1  0.50422967  0.50258402  0.51126841  1
  In  In82  1  0.83689549  0.83629826  0.50864116  1
  In  In83  1  0.49822090  0.50013568  -0.00672427  1
  In  In84  1  0.83570441  0.16303228  -0.00412053  1
  In  In85  1  0.32983241  0.33468878  0.25202564  1
  Cu  Cu86  1  0.50102825  0.50457439  0.74731287  1
  Cu  Cu87  1  0.32898140  -0.00471771  0.50131421  1
  Cu  Cu88  1  0.49956543  0.83473668  0.75276267  1
  Cu  Cu89  1  0.83211378  0.17568015  0.25755603  1
  Cu  Cu90  1  0.49600625  0.16782190  0.25011633  1
  Cu  Cu91  1  0.83726232  0.83823187  0.74143910  1
  Cu  Cu92  1  0.67412832  0.33597205  0.50479192  1
  Cu  Cu93  1  0.66577657  0.33179414  -0.00302017  1
  Cu  Cu94  1  0.00363784  0.32789881  -0.00292929  1
  Cu  Cu95  1  0.00729989  0.00717689  0.50448236  1
  Cu  Cu96  1  0.83702255  0.16479855  0.74860632  1
  Cu  Cu97  1  0.16579022  0.49768634  0.74445727  1
  Cu  Cu98  1  0.16819558  0.16576167  0.75168514  1
  Cu  Cu99  1  0.33168775  0.32680670  -0.00323067  1
  Cu  Cu100  1  0.50088970  0.16871975  0.74619200  1
  Cu  Cu101  1  0.66669805  -0.00289818  0.50370288  1
  Cu  Cu102  1  0.00194803  0.67120248  -0.00703834  1
  Cu  Cu103  1  0.33192581  0.00197836  -0.00188798  1
  Cu  Cu104  1  0.83605122  0.82813544  0.24404336  1
  Cu  Cu105  1  0.00528951  -0.00743139  -0.00268610  1
  Cu  Cu106  1  0.00189103  0.66505425  0.50464373  1
  Cu  Cu107  1  0.67024827  0.00300938  -0.00721103  1
  Cu  Cu108  1  0.33099024  0.66984333  0.50102666  1
  Cu  Cu109  1  0.49106286  0.83630714  0.25617126  1
  Cu  Cu110  1  0.67390263  0.67419297  -0.00923845  1
  Cu  Cu111  1  0.16157667  0.50843152  0.25200066  1
  Cu  Cu112  1  -0.00577505  0.33468510  0.50432682  1
  Cu  Cu113  1  0.50524828  0.49839186  0.25358602  1
  Cu  Cu114  1  0.16327687  0.16552704  0.25252471  1
  Se  Se115  1  0.07898453  0.08142962  0.05385599  1
  Se  Se116  1  0.08966014  0.09126131  0.55737407  1
  Se  Se117  1  0.07523055  0.41134202  0.06112879  1
  Se  Se118  1  0.07510783  0.41427119  0.56512765  1
  Se  Se119  1  0.08693049  0.74824815  0.04937954  1
  Se  Se120  1  0.08703408  0.74868041  0.55440113  1
  Se  Se121  1  0.41852454  0.08515251  0.04862495  1
  Se  Se122  1  0.40932507  0.07503212  0.56303017  1
  Se  Se123  1  0.40682953  0.41169450  0.05755945  1
  Se  Se124  1  0.40601814  0.40661787  0.55611861  1
  Se  Se125  1  0.41258903  0.74549201  0.06040268  1
  Se  Se126  1  0.41379589  0.75225073  0.55546188  1
  Se  Se127  1  0.74816268  0.07524477  0.06218460  1
  Se  Se128  1  0.75021632  0.08504318  0.54999264  1
  Se  Se129  1  0.74571115  0.41263488  0.05661099  1
  Se  Se130  1  0.75621837  0.42095997  0.55662495  1
  Se  Se131  1  0.75800646  0.75339232  0.04579000  1
  Se  Se132  1  0.74584556  0.74713269  0.56498819  1
  Se  Se133  1  0.24534919  0.24807852  0.05130950  1
  Se  Se134  1  0.24308185  0.24844322  0.54928169  1
  Se  Se135  1  0.25715328  0.58722764  0.05739543  1
  Se  Se136  1  0.25285809  0.58734722  0.56087253  1
  Se  Se137  1  0.25553750  0.91650280  0.05546744  1
  Se  Se138  1  0.24269895  0.91455551  0.55440335  1
  Se  Se139  1  0.57976641  0.25137507  0.04860033  1
  Se  Se140  1  0.58758613  0.25580957  0.56046045  1
  Se  Se141  1  0.59474402  0.59385643  0.05192868  1
  Se  Se142  1  0.59174289  0.58671568  0.57385033  1
  Se  Se143  1  0.59226222  0.92546968  0.05951456  1
  Se  Se144  1  0.58064225  0.91448356  0.55239360  1
  Se  Se145  1  0.91811023  0.25639848  0.05973001  1
  Se  Se146  1  0.91456369  0.24712651  0.55684812  1
  Se  Se147  1  0.92428778  0.58526945  0.05229394  1
  Se  Se148  1  0.91473095  0.58152644  0.55190725  1
  Se  Se149  1  0.91738613  0.91071961  0.04725319  1
  Se  Se150  1  0.92901860  0.92499163  0.56634707  1
  Se  Se151  1  0.08078918  0.25261806  0.45275400  1
  Se  Se152  1  0.08893428  0.24564704  0.94661311  1
  Se  Se153  1  0.07705900  0.59177633  0.43468290  1
  Se  Se154  1  0.07560230  0.58340582  0.93416199  1
  Se  Se155  1  0.08193690  0.91638018  0.45090508  1
  Se  Se156  1  0.08772219  0.91014842  0.94335874  1
  Se  Se157  1  0.40853580  0.25625645  0.44444551  1
  Se  Se158  1  0.42128976  0.24984896  0.94435818  1
  Se  Se159  1  0.41103313  0.58583550  0.44408171  1
  Se  Se160  1  0.40460122  0.59679637  0.94541668  1
  Se  Se161  1  0.41533685  0.91468785  0.44828336  1
  Se  Se162  1  0.40826067  0.92260272  0.93441330  1
  Se  Se163  1  0.75405786  0.25013237  0.45020363  1
  Se  Se164  1  0.75326288  0.26001498  0.93686375  1
  Se  Se165  1  0.73120243  0.60837018  0.45153435  1
  Se  Se166  1  0.75070577  0.59662413  0.92803393  1
  Se  Se167  1  0.74459423  0.91786510  0.43954877  1
  Se  Se168  1  0.75296975  0.91588782  0.94497612  1
  Se  Se169  1  0.24951644  0.08477671  0.45019402  1
  Se  Se170  1  0.24497216  0.08381910  0.94630292  1
  Se  Se171  1  0.25563319  0.40923599  0.44655667  1
  Se  Se172  1  0.25520487  0.40990428  0.93644086  1
  Se  Se173  1  0.24578656  0.74952058  0.44576171  1
  Se  Se174  1  0.23710007  0.74536169  0.94685949  1
  Se  Se175  1  0.58889624  0.07375835  0.43606258  1
  Se  Se176  1  0.58666282  0.09056397  0.94677088  1
  Se  Se177  1  0.59070909  0.41375175  0.44426257  1
  Se  Se178  1  0.59399000  0.41713799  0.93496043  1
  Se  Se179  1  0.57713369  0.74884258  0.46319087  1
  Se  Se180  1  0.58597816  0.75067881  0.93429899  1
  Se  Se181  1  0.91570952  0.08596229  0.45583592  1
  Se  Se182  1  0.92531623  0.07410229  0.93625349  1
  Se  Se183  1  0.91808424  0.42102234  0.44679099  1
  Se  Se184  1  0.92972199  0.41040574  0.93518959  1
  Se  Se185  1  0.92182105  0.74751769  0.44250151  1
  Se  Se186  1  0.91292304  0.75121243  0.94141905  1
  Se  Se187  1  0.24259437  0.24583569  0.31482624  1
  Se  Se188  1  0.25177482  0.25082477  0.80418956  1
  Se  Se189  1  0.25078726  0.58871019  0.30129090  1
  Se  Se190  1  0.24784839  0.58159258  0.80023347  1
  Se  Se191  1  0.25142254  0.91753419  0.30674559  1
  Se  Se192  1  0.23492586  0.90261215  0.80481676  1
  Se  Se193  1  0.58347555  0.24864162  0.30005026  1
  Se  Se194  1  0.58258185  0.25066130  0.80297946  1
  Se  Se195  1  0.58267229  0.57528724  0.31856323  1
  Se  Se196  1  0.58468620  0.59032041  0.79799714  1
  Se  Se197  1  0.58096153  0.90560241  0.31641979  1
  Se  Se198  1  0.58462582  0.92158943  0.80107782  1
  Se  Se199  1  0.92016152  0.25354515  0.31002451  1
  Se  Se200  1  0.92286585  0.24801802  0.79970820  1
  Se  Se201  1  0.91785539  0.59141733  0.30033371  1
  Se  Se202  1  0.88032990  0.55760328  0.79561835  1
  Se  Se203  1  0.91130023  0.91083891  0.30523885  1
  Se  Se204  1  0.92112681  0.91689882  0.80020546  1
  Se  Se205  1  0.08762744  0.08761506  0.31817515  1
  Se  Se206  1  0.08538749  0.08101148  0.80348170  1
  Se  Se207  1  0.08412094  0.41880896  0.30383000  1
  Se  Se208  1  0.08092874  0.41629080  0.79862050  1
  Se  Se209  1  0.07640554  0.75203891  0.29769403  1
  Se  Se210  1  0.05166232  0.72265081  0.80719199  1
  Se  Se211  1  0.41024398  0.08301877  0.29771854  1
  Se  Se212  1  0.42248658  0.09110603  0.81118706  1
  Se  Se213  1  0.42183243  0.42161869  0.31485162  1
  Se  Se214  1  0.41683988  0.42133375  0.80198593  1
  Se  Se215  1  0.41665086  0.74671742  0.31044861  1
  Se  Se216  1  0.41386087  0.75265300  0.80459634  1
  Se  Se217  1  0.75756177  0.08600958  0.31349295  1
  Se  Se218  1  0.75140480  0.08356327  0.80332653  1
  Se  Se219  1  0.74356924  0.40714487  0.30744877  1
  Se  Se220  1  0.72901469  0.39406521  0.79779204  1
  Se  Se221  1  0.75854048  0.75206187  0.30948522  1
  Se  Se222  1  0.75320036  0.75531945  0.79682005  1
  Se  Se223  1  0.24411878  0.08684403  0.19358356  1
  Se  Se224  1  0.24947711  0.08704050  0.69090949  1
  Se  Se225  1  0.24047686  0.42587027  0.18995354  1
  Se  Se226  1  0.25205179  0.41314400  0.69605625  1
  Se  Se227  1  0.26444907  0.73261129  0.19478714  1
  Se  Se228  1  0.25572632  0.74426687  0.70107401  1
  Se  Se229  1  0.57454370  0.08828717  0.18666047  1
  Se  Se230  1  0.58584589  0.08239354  0.69903686  1
  Se  Se231  1  0.58477689  0.41397425  0.19955555  1
  Se  Se232  1  0.58332849  0.41609698  0.69857572  1
  Se  Se233  1  0.57725071  0.75995197  0.19592209  1
  Se  Se234  1  0.58340295  0.75254231  0.69874024  1
  Se  Se235  1  0.90927500  0.09297892  0.19602829  1
  Se  Se236  1  0.92166326  0.08186256  0.69638424  1
  Se  Se237  1  0.92317277  0.41058752  0.20175303  1
  Se  Se238  1  0.92139015  0.40664922  0.69879349  1
  Se  Se239  1  0.91632359  0.74834835  0.18711083  1
  Se  Se240  1  0.92008630  0.75056639  0.69251698  1
  Se  Se241  1  0.07989575  0.25110169  0.20169598  1
  Se  Se242  1  0.08524723  0.25043646  0.69830802  1
  Se  Se243  1  0.08138305  0.58998387  0.19496797  1
  Se  Se244  1  0.07988360  0.58284651  0.69517094  1
  Se  Se245  1  0.09331225  0.90645270  0.18935990  1
  Se  Se246  1  0.08694661  0.91972313  0.70251312  1
  Se  Se247  1  0.41744114  0.24841691  0.18700017  1
  Se  Se248  1  0.41405287  0.25121056  0.69667908  1
  Se  Se249  1  0.42392516  0.58604441  0.20362693  1
  Se  Se250  1  0.41317242  0.58733753  0.69774640  1
  Se  Se251  1  0.41162902  0.92034592  0.20108775  1
  Se  Se252  1  0.41887996  0.91164413  0.68988861  1
  Se  Se253  1  0.74588072  0.24878656  0.19843455  1
  Se  Se254  1  0.75138215  0.24617411  0.69438016  1
  Se  Se255  1  0.75994057  0.57045372  0.19061076  1
  Se  Se256  1  0.76417502  0.57858855  0.70291473  1
  Se  Se257  1  0.75275716  0.91271250  0.19042186  1
  Se  Se258  1  0.74916461  0.92307989  0.69408120  1
