# generated using pymatgen
data_In86Cu29Se144
_symmetry_space_group_name_H-M   'P 1'
_cell_length_a   17.58666681
_cell_length_b   17.58260129
_cell_length_c   23.43965486
_cell_angle_alpha   89.95933671
_cell_angle_beta   89.99583514
_cell_angle_gamma   90.00679677
_symmetry_Int_Tables_number   1
_chemical_formula_structural   In86Cu29Se144
_chemical_formula_sum   'In86 Cu29 Se144'
_cell_volume   7247.99295846
_cell_formula_units_Z   1
loop_
 _symmetry_equiv_pos_site_id
 _symmetry_equiv_pos_as_xyz
  1  'x, y, z'
loop_
 _atom_site_type_symbol
 _atom_site_label
 _atom_site_symmetry_multiplicity
 _atom_site_fract_x
 _atom_site_fract_y
 _atom_site_fract_z
 _atom_site_occupancy
  In  In0  1  0.00739721  0.17473444  0.11952581  1
  In  In1  1  -0.01061593  0.15654136  0.61751864  1
  In  In2  1  -0.00103225  0.48881181  0.13088939  1
  In  In3  1  -0.00287696  0.50792347  0.61960925  1
  In  In4  1  0.00280243  0.84055160  0.11812905  1
  In  In5  1  0.00356786  0.84391706  0.62294547  1
  In  In6  1  0.34331216  0.18147783  0.10893589  1
  In  In7  1  0.32049603  0.16436701  0.63024303  1
  In  In8  1  0.31321111  0.47687031  0.09676875  1
  In  In9  1  0.34634266  0.50447168  0.62234042  1
  In  In10  1  0.33215741  0.84593705  0.11126345  1
  In  In11  1  0.36269339  0.81128572  0.66319538  1
  In  In12  1  0.65829772  0.15574440  0.12086554  1
  In  In13  1  0.68078078  0.16049535  0.62558794  1
  In  In14  1  0.66823156  0.51437352  0.12899314  1
  In  In15  1  0.66322623  0.50419635  0.62678214  1
  In  In16  1  0.66993220  0.82508482  0.12829096  1
  In  In17  1  0.65208965  0.81964657  0.61862600  1
  In  In18  1  0.18117816  0.00812176  0.37689212  1
  In  In19  1  0.16565081  0.00259633  0.87727845  1
  In  In20  1  0.15885801  0.32727983  0.36336739  1
  In  In21  1  0.18948834  0.32225579  0.89722141  1
  In  In22  1  0.16559386  0.67057433  0.37347569  1
  In  In23  1  0.18676022  0.65966999  0.89153829  1
  In  In24  1  0.49747550  -0.01657658  0.37511432  1
  In  In25  1  0.50418461  0.00668718  0.87186853  1
  In  In26  1  0.50258253  0.34867183  0.37314625  1
  In  In27  1  0.50213483  0.32518326  0.88601744  1
  In  In28  1  0.50942164  0.65292341  0.38279249  1
  In  In29  1  0.48460933  0.65855724  0.85667088  1
  In  In30  1  0.82888473  0.00838171  0.37955737  1
  In  In31  1  0.83934100  -0.00630097  0.87600325  1
  In  In32  1  0.84670491  0.32306055  0.39010312  1
  In  In33  1  0.81878553  0.33281952  0.87499537  1
  In  In34  1  0.82355573  0.68118171  0.39096292  1
  In  In35  1  0.83335880  0.67946899  0.87018326  1
  In  In36  1  -0.00288418  0.17959511  0.38300172  1
  In  In37  1  0.00650487  0.15804894  0.88116170  1
  In  In38  1  0.00383306  0.48575644  0.37985993  1
  In  In39  1  0.01295111  0.50618549  0.87218917  1
  In  In40  1  -0.01200046  0.82405792  0.37710640  1
  In  In41  1  -0.01069367  0.83743757  0.87379861  1
  In  In42  1  0.31670027  0.16651917  0.37676641  1
  In  In43  1  0.34653474  0.15362341  0.89574026  1
  In  In44  1  0.34797926  0.49958931  0.37372326  1
  In  In45  1  0.33730380  0.50433078  0.89013477  1
  In  In46  1  0.33619306  0.83949389  0.38038114  1
  In  In47  1  0.32917118  0.82858303  0.87075208  1
  In  In48  1  0.68024018  0.16569189  0.37270718  1
  In  In49  1  0.65972702  0.17210535  0.88211727  1
  In  In50  1  0.65831279  0.50856097  0.37900474  1
  In  In51  1  0.65815946  0.49440858  0.86739320  1
  In  In52  1  0.66758205  0.83184206  0.37555219  1
  In  In53  1  0.67402702  0.83769035  0.86792955  1
  In  In54  1  0.19094148  0.01445565  0.09412672  1
  In  In55  1  0.16351122  -0.00434783  0.63542876  1
  In  In56  1  0.16337657  0.32946595  0.12316306  1
  In  In57  1  0.16974139  0.32740306  0.62294616  1
  In  In58  1  0.17581291  0.66742647  0.10908254  1
  In  In59  1  0.17076356  0.67571829  0.63086192  1
  In  In60  1  0.50147185  0.00841798  0.11989683  1
  In  In61  1  0.49950590  -0.02414833  0.63294547  1
  In  In62  1  0.48951918  0.32653724  0.11490122  1
  In  In63  1  0.49922890  0.35209103  0.62313628  1
  In  In64  1  0.50783693  0.66227188  0.12326514  1
  In  In65  1  0.49825943  0.67183787  0.62931228  1
  In  In66  1  0.82369615  -0.00899764  0.12014014  1
  In  In67  1  0.84005990  0.00561495  0.61861307  1
  In  In68  1  0.84669415  0.33433816  0.13077962  1
  In  In69  1  0.82557852  0.32123435  0.61574063  1
  In  In70  1  0.82155103  0.66598256  0.12784020  1
  In  In71  1  0.82184822  0.65282375  0.61016614  1
  In  In72  1  0.49855936  0.82679852  -0.01195742  1
  In  In73  1  0.33679162  0.33173869  0.75923233  1
  In  In74  1  0.00391322  0.00331048  0.24415744  1
  In  In75  1  0.83198289  0.49872752  0.00528799  1
  In  In76  1  0.16534625  0.49857122  0.50237394  1
  In  In77  1  0.50250793  0.16533759  0.50086489  1
  In  In78  1  0.34144480  0.66377583  0.24645204  1
  In  In79  1  0.66581594  0.00097614  0.75038897  1
  In  In80  1  0.00220703  0.33648376  0.74914793  1
  In  In81  1  0.34013817  0.00678313  0.23643780  1
  In  In82  1  0.16832675  0.83696118  0.50397109  1
  In  In83  1  -0.00353475  0.65916614  0.25401162  1
  In  In84  1  -0.00048929  0.67210003  0.74573835  1
  In  In85  1  0.66710414  0.33206265  0.25479499  1
  Cu  Cu86  1  0.16353849  0.83261571  0.75844572  1
  Cu  Cu87  1  0.16272841  0.15779989  0.75606238  1
  Cu  Cu88  1  0.17096849  0.49405139  0.24294593  1
  Cu  Cu89  1  0.66725611  -0.00081719  -0.00468079  1
  Cu  Cu90  1  0.33175299  0.33478123  0.50141517  1
  Cu  Cu91  1  0.83606173  0.16808438  0.74453255  1
  Cu  Cu92  1  0.65771427  0.66958012  0.50235195  1
  Cu  Cu93  1  0.82886638  0.50012914  0.25734041  1
  Cu  Cu94  1  0.83600686  0.16572415  0.25515907  1
  Cu  Cu95  1  0.16493712  0.17607297  0.24634625  1
  Cu  Cu96  1  0.82567062  0.83108242  0.25107932  1
  Cu  Cu97  1  0.49716129  0.49747109  0.24794495  1
  Cu  Cu98  1  0.00417252  0.00276895  0.50055289  1
  Cu  Cu99  1  0.33297953  -0.00359628  0.50792612  1
  Cu  Cu100  1  0.66387707  0.32785348  0.00129261  1
  Cu  Cu101  1  0.50124679  0.17333396  0.75678250  1
  Cu  Cu102  1  -0.00914894  -0.00004008  -0.00286252  1
  Cu  Cu103  1  0.66540194  0.34058255  0.49766788  1
  Cu  Cu104  1  0.17826508  0.49793304  0.75982056  1
  Cu  Cu105  1  0.82475041  0.50105224  0.74423119  1
  Cu  Cu106  1  0.82875531  0.83360912  0.74502136  1
  Cu  Cu107  1  0.49478092  0.16527416  0.24160841  1
  Cu  Cu108  1  0.16811299  0.84109340  0.23933785  1
  Cu  Cu109  1  -0.00264719  0.33814901  0.00288619  1
  Cu  Cu110  1  0.00046054  0.66764755  -0.00603614  1
  Cu  Cu111  1  0.67253445  0.67062629  -0.00032464  1
  Cu  Cu112  1  0.67154066  -0.00494325  0.50196113  1
  Cu  Cu113  1  0.50491862  0.50374336  0.74796560  1
  Cu  Cu114  1  0.51169769  0.82541351  0.25156905  1
  Se  Se115  1  0.07568558  0.08319596  0.04911138  1
  Se  Se116  1  0.08857622  0.07678072  0.55982366  1
  Se  Se117  1  0.08100671  0.42024635  0.05603680  1
  Se  Se118  1  0.07473810  0.40479496  0.55831689  1
  Se  Se119  1  0.07961411  0.75024033  0.05208477  1
  Se  Se120  1  0.07655267  0.74095537  0.55864778  1
  Se  Se121  1  0.39102478  0.05834581  0.05979901  1
  Se  Se122  1  0.41595885  0.07866216  0.56578101  1
  Se  Se123  1  0.44180646  0.43778764  0.05382444  1
  Se  Se124  1  0.41725189  0.42153546  0.54744272  1
  Se  Se125  1  0.41387951  0.74288275  0.05691338  1
  Se  Se126  1  0.41032711  0.76023603  0.56790485  1
  Se  Se127  1  0.74840113  0.08174288  0.05221335  1
  Se  Se128  1  0.75396084  0.08511590  0.54870526  1
  Se  Se129  1  0.74151664  0.40720260  0.06536875  1
  Se  Se130  1  0.74621805  0.41948067  0.55742732  1
  Se  Se131  1  0.75445666  0.75268413  0.05360180  1
  Se  Se132  1  0.74766375  0.75323902  0.55017387  1
  Se  Se133  1  0.23618962  0.24391242  0.05144967  1
  Se  Se134  1  0.25310241  0.24802150  0.55352802  1
  Se  Se135  1  0.26061543  0.59190643  0.04140170  1
  Se  Se136  1  0.25437365  0.59230844  0.55976032  1
  Se  Se137  1  0.23460698  0.89542677  0.03808098  1
  Se  Se138  1  0.25767013  0.91415741  0.57005711  1
  Se  Se139  1  0.57935533  0.24231709  0.05294946  1
  Se  Se140  1  0.58986117  0.25706567  0.56171597  1
  Se  Se141  1  0.59089905  0.58445040  0.05095087  1
  Se  Se142  1  0.57761561  0.58608637  0.55903073  1
  Se  Se143  1  0.58729532  0.91519803  0.05513665  1
  Se  Se144  1  0.58113833  0.91720775  0.55234875  1
  Se  Se145  1  0.91379594  0.25316438  0.05392645  1
  Se  Se146  1  0.92249816  0.25236323  0.55194008  1
  Se  Se147  1  0.92458327  0.59108514  0.06250462  1
  Se  Se148  1  0.91851822  0.58166549  0.54681838  1
  Se  Se149  1  0.91083039  0.91391030  0.05150247  1
  Se  Se150  1  0.91941254  0.91754733  0.55048029  1
  Se  Se151  1  0.10344103  0.24198193  0.44232894  1
  Se  Se152  1  0.07701090  0.25396508  0.94730767  1
  Se  Se153  1  0.07790856  0.59204092  0.44133071  1
  Se  Se154  1  0.08625163  0.58014389  0.94895072  1
  Se  Se155  1  0.08020400  0.92352527  0.43533437  1
  Se  Se156  1  0.07350371  0.91936354  0.94093396  1
  Se  Se157  1  0.41302507  0.25510623  0.43922171  1
  Se  Se158  1  0.40296577  0.26447268  0.95298640  1
  Se  Se159  1  0.40747172  0.58948087  0.44630388  1
  Se  Se160  1  0.42932767  0.59390917  0.94499505  1
  Se  Se161  1  0.41691648  0.91600663  0.45301395  1
  Se  Se162  1  0.41052576  0.92583745  0.93750747  1
  Se  Se163  1  0.74480990  0.24895137  0.44929152  1
  Se  Se164  1  0.75183808  0.24772306  0.94994770  1
  Se  Se165  1  0.74259876  0.58519196  0.45007549  1
  Se  Se166  1  0.74932355  0.58579314  0.93794155  1
  Se  Se167  1  0.75333299  0.91438895  0.44406050  1
  Se  Se168  1  0.75002305  0.91410647  0.94329999  1
  Se  Se169  1  0.25247193  0.08298013  0.45531933  1
  Se  Se170  1  0.23248452  0.09488641  0.94809778  1
  Se  Se171  1  0.25318248  0.41259896  0.43712151  1
  Se  Se172  1  0.25119068  0.42599260  0.95807888  1
  Se  Se173  1  0.25710746  0.74260247  0.44361086  1
  Se  Se174  1  0.24429809  0.76954297  0.95078129  1
  Se  Se175  1  0.59050652  0.07478339  0.43927205  1
  Se  Se176  1  0.57900332  0.08377332  0.94838399  1
  Se  Se177  1  0.57778466  0.42303475  0.44907404  1
  Se  Se178  1  0.58919450  0.41666602  0.94612400  1
  Se  Se179  1  0.57913314  0.75395395  0.44476614  1
  Se  Se180  1  0.59341450  0.74005075  0.93172586  1
  Se  Se181  1  0.91973603  0.08456455  0.44552488  1
  Se  Se182  1  0.90835081  0.08651476  0.94552213  1
  Se  Se183  1  0.91439872  0.42259613  0.45216617  1
  Se  Se184  1  0.92138999  0.41645434  0.93725406  1
  Se  Se185  1  0.92145460  0.74990203  0.45542742  1
  Se  Se186  1  0.91289053  0.75041943  0.94558336  1
  Se  Se187  1  0.25582693  0.25202394  0.29917355  1
  Se  Se188  1  0.24613963  0.23807522  0.81343345  1
  Se  Se189  1  0.24348986  0.57716700  0.30604370  1
  Se  Se190  1  0.25820992  0.58131440  0.81407689  1
  Se  Se191  1  0.25104202  0.91492970  0.30175036  1
  Se  Se192  1  0.24676800  0.91959078  0.80734467  1
  Se  Se193  1  0.57239261  0.23911158  0.31046363  1
  Se  Se194  1  0.58448375  0.25527325  0.80901451  1
  Se  Se195  1  0.57965990  0.58123151  0.30157336  1
  Se  Se196  1  0.59016784  0.58883084  0.79859372  1
  Se  Se197  1  0.58715129  0.91646300  0.30372920  1
  Se  Se198  1  0.57135867  0.90802659  0.80264151  1
  Se  Se199  1  0.91621118  0.25191232  0.30736068  1
  Se  Se200  1  0.91269094  0.24655903  0.80980158  1
  Se  Se201  1  0.90751220  0.57940280  0.31999394  1
  Se  Se202  1  0.91030657  0.57521075  0.80542116  1
  Se  Se203  1  0.91254814  0.91286114  0.30508124  1
  Se  Se204  1  0.91201138  0.91592534  0.79849370  1
  Se  Se205  1  0.09170219  0.09031831  0.30821309  1
  Se  Se206  1  0.07442603  0.07595163  0.80495628  1
  Se  Se207  1  0.08154321  0.42046439  0.29896926  1
  Se  Se208  1  0.10120732  0.41016083  0.81499396  1
  Se  Se209  1  0.08983357  0.76374147  0.30193320  1
  Se  Se210  1  0.08767338  0.74525253  0.81742367  1
  Se  Se211  1  0.42042101  0.08838145  0.31152611  1
  Se  Se212  1  0.41577410  0.09268386  0.80907773  1
  Se  Se213  1  0.41370688  0.41236611  0.29850951  1
  Se  Se214  1  0.42731750  0.42488682  0.81351144  1
  Se  Se215  1  0.42309926  0.75522478  0.31156215  1
  Se  Se216  1  0.41645014  0.76062960  0.79701875  1
  Se  Se217  1  0.75042206  0.07833960  0.30059275  1
  Se  Se218  1  0.75475399  0.09209988  0.80997186  1
  Se  Se219  1  0.75419564  0.41688012  0.31933367  1
  Se  Se220  1  0.74799865  0.41508978  0.80055458  1
  Se  Se221  1  0.74980064  0.74465724  0.30744165  1
  Se  Se222  1  0.74735346  0.74879669  0.79692260  1
  Se  Se223  1  0.24117414  0.09338847  0.18425560  1
  Se  Se224  1  0.24987541  0.07911602  0.70263189  1
  Se  Se225  1  0.25339158  0.41513411  0.18668404  1
  Se  Se226  1  0.24981749  0.41969140  0.69197397  1
  Se  Se227  1  0.25128419  0.75726041  0.18614299  1
  Se  Se228  1  0.24611757  0.74282591  0.70996480  1
  Se  Se229  1  0.58124590  0.07891351  0.19694227  1
  Se  Se230  1  0.57398196  0.09196372  0.68994150  1
  Se  Se231  1  0.58127414  0.41737705  0.18919991  1
  Se  Se232  1  0.58589512  0.41561284  0.69786426  1
  Se  Se233  1  0.58880792  0.73942110  0.19635255  1
  Se  Se234  1  0.58025551  0.75429862  0.69913712  1
  Se  Se235  1  0.90952644  0.09017579  0.18650471  1
  Se  Se236  1  0.91771530  0.07989581  0.69598556  1
  Se  Se237  1  0.91501942  0.41907710  0.20555868  1
  Se  Se238  1  0.91008836  0.42233838  0.68791024  1
  Se  Se239  1  0.91481691  0.75713940  0.19232396  1
  Se  Se240  1  0.90719615  0.75344071  0.68250701  1
  Se  Se241  1  0.07541439  0.25624600  0.19665075  1
  Se  Se242  1  0.08846900  0.23916479  0.69240098  1
  Se  Se243  1  0.09474924  0.58422168  0.18766456  1
  Se  Se244  1  0.09346886  0.57073860  0.69614308  1
  Se  Se245  1  0.09882961  0.92687537  0.17874658  1
  Se  Se246  1  0.07862210  0.91164045  0.70296511  1
  Se  Se247  1  0.41298202  0.25061500  0.19160945  1
  Se  Se248  1  0.42352100  0.24845948  0.68958166  1
  Se  Se249  1  0.41709059  0.56960806  0.18263881  1
  Se  Se250  1  0.41472241  0.58410235  0.69879240  1
  Se  Se251  1  0.42960858  0.90241876  0.18860592  1
  Se  Se252  1  0.39810085  0.94100553  0.70638743  1
  Se  Se253  1  0.75339405  0.24243845  0.19148962  1
  Se  Se254  1  0.74919147  0.25181427  0.69631098  1
  Se  Se255  1  0.75015752  0.58600558  0.20414604  1
  Se  Se256  1  0.74727083  0.59114780  0.69362286  1
  Se  Se257  1  0.74596021  0.91606792  0.19629400  1
  Se  Se258  1  0.75041295  0.91512904  0.68353121  1
