# generated using pymatgen
data_In86Cu29Se144
_symmetry_space_group_name_H-M   'P 1'
_cell_length_a   17.57756627
_cell_length_b   17.57753323
_cell_length_c   23.43893321
_cell_angle_alpha   89.99208187
_cell_angle_beta   90.00127054
_cell_angle_gamma   89.99208385
_symmetry_Int_Tables_number   1
_chemical_formula_structural   In86Cu29Se144
_chemical_formula_sum   'In86 Cu29 Se144'
_cell_volume   7241.93303825
_cell_formula_units_Z   1
loop_
 _symmetry_equiv_pos_site_id
 _symmetry_equiv_pos_as_xyz
  1  'x, y, z'
loop_
 _atom_site_type_symbol
 _atom_site_label
 _atom_site_symmetry_multiplicity
 _atom_site_fract_x
 _atom_site_fract_y
 _atom_site_fract_z
 _atom_site_occupancy
  In  In0  1  -0.00865214  0.15644706  0.12338209  1
  In  In1  1  0.00738313  0.16792663  0.61975072  1
  In  In2  1  0.00851031  0.50685905  0.11377267  1
  In  In3  1  0.01052127  0.49919451  0.64459138  1
  In  In4  1  0.00764818  0.81856938  0.13456495  1
  In  In5  1  0.00616477  0.82273269  0.62870065  1
  In  In6  1  0.33278848  0.18631938  0.12936526  1
  In  In7  1  0.33948460  0.17234481  0.62128971  1
  In  In8  1  0.31911206  0.50874673  0.12642302  1
  In  In9  1  0.33047915  0.49384261  0.64391662  1
  In  In10  1  0.31729669  0.81087362  0.10468997  1
  In  In11  1  0.32195539  0.84072033  0.62348165  1
  In  In12  1  0.67375008  0.15550791  0.11857595  1
  In  In13  1  0.66286318  0.17220614  0.62599470  1
  In  In14  1  0.68521925  0.49611365  0.11527781  1
  In  In15  1  0.67206756  0.49462594  0.63633478  1
  In  In16  1  0.65032269  0.83805347  0.11832929  1
  In  In17  1  0.67413725  0.82646815  0.63546127  1
  In  In18  1  0.15796835  0.00508850  0.37671186  1
  In  In19  1  0.17060551  -0.00069951  0.88548747  1
  In  In20  1  0.16948358  0.32163861  0.37653498  1
  In  In21  1  0.16356527  0.33857808  0.87084284  1
  In  In22  1  0.17553228  0.67407654  0.36940401  1
  In  In23  1  0.16873116  0.66645315  0.87230679  1
  In  In24  1  0.50917870  0.00805495  0.37505299  1
  In  In25  1  0.50383086  -0.01402706  0.87717513  1
  In  In26  1  0.49408485  0.33442453  0.37611903  1
  In  In27  1  0.50009196  0.33793841  0.86663451  1
  In  In28  1  0.50457251  0.67199102  0.36347697  1
  In  In29  1  0.49912042  0.66920997  0.87368326  1
  In  In30  1  0.84278057  0.00454806  0.37182392  1
  In  In31  1  0.82878244  0.01578678  0.87965771  1
  In  In32  1  0.82442620  0.32364146  0.37839616  1
  In  In33  1  0.83417035  0.33290088  0.87620432  1
  In  In34  1  0.84408949  0.68154621  0.35404849  1
  In  In35  1  0.82601971  0.65289371  0.87324186  1
  In  In36  1  0.00847008  0.16252294  0.38138476  1
  In  In37  1  -0.01017814  0.18274072  0.88049015  1
  In  In38  1  -0.00699552  0.50969847  0.37321746  1
  In  In39  1  0.00521431  0.49608080  0.87097095  1
  In  In40  1  0.00715227  0.84248363  0.36432543  1
  In  In41  1  0.01707403  0.82717749  0.88164272  1
  In  In42  1  0.33029147  0.17141727  0.37532347  1
  In  In43  1  0.32109759  0.17040391  0.87531684  1
  In  In44  1  0.33591053  0.50242257  0.36587804  1
  In  In45  1  0.32431513  0.50164458  0.86921979  1
  In  In46  1  0.33342202  0.81762775  0.37051139  1
  In  In47  1  0.34218735  0.81923544  0.89058500  1
  In  In48  1  0.66366621  0.17689890  0.39119252  1
  In  In49  1  0.67508813  0.17760027  0.86693914  1
  In  In50  1  0.66087532  0.50360602  0.37559368  1
  In  In51  1  0.66657975  0.49942089  0.87627777  1
  In  In52  1  0.67849511  0.83234890  0.36871713  1
  In  In53  1  0.66368938  0.82591896  0.87150104  1
  In  In54  1  0.15726074  -0.01104643  0.12220076  1
  In  In55  1  0.16536186  -0.00126228  0.61717541  1
  In  In56  1  0.17046139  0.34394043  0.11771513  1
  In  In57  1  0.17344782  0.32699942  0.63845979  1
  In  In58  1  0.16606573  0.66163545  0.11875569  1
  In  In59  1  0.16489003  0.67244896  0.63544660  1
  In  In60  1  0.51071112  -0.00647244  0.12196418  1
  In  In61  1  0.50046925  0.01690484  0.62311399  1
  In  In62  1  0.49286335  0.32165470  0.12837321  1
  In  In63  1  0.50522105  0.32445288  0.63556236  1
  In  In64  1  0.48617502  0.67210947  0.12344016  1
  In  In65  1  0.50402910  0.65819606  0.63051231  1
  In  In66  1  0.82656117  0.01132284  0.12614168  1
  In  In67  1  0.81931020  -0.00020677  0.62964748  1
  In  In68  1  0.82943315  0.33119333  0.10682098  1
  In  In69  1  0.83731673  0.32809971  0.62891776  1
  In  In70  1  0.84450966  0.66162878  0.12877872  1
  In  In71  1  0.83958602  0.66030818  0.63508230  1
  In  In72  1  0.33804540  0.00096346  0.74893046  1
  In  In73  1  0.83374857  0.83652262  0.00568048  1
  In  In74  1  0.83514959  0.49969674  0.50895938  1
  In  In75  1  0.33333638  -0.00212378  0.24874975  1
  In  In76  1  0.50508311  0.16439212  0.00258823  1
  In  In77  1  0.49782469  0.84014440  0.49413781  1
  In  In78  1  0.66660888  -0.00089405  0.24526362  1
  In  In79  1  0.17061606  0.49587215  0.51422098  1
  In  In80  1  0.00714955  0.34219338  0.24661158  1
  In  In81  1  0.49999941  0.49287064  0.49842463  1
  In  In82  1  0.66658654  0.33783147  0.25176965  1
  In  In83  1  0.49585710  0.50063174  -0.00912474  1
  In  In84  1  -0.00369613  -0.00152247  0.76189087  1
  In  In85  1  0.84070087  0.83744635  0.49285316  1
  Cu  Cu86  1  0.00273342  0.00267511  0.00340648  1
  Cu  Cu87  1  0.33253429  0.32938076  0.50377453  1
  Cu  Cu88  1  0.16376360  0.16524798  0.25409228  1
  Cu  Cu89  1  0.66160567  0.00934843  0.50612003  1
  Cu  Cu90  1  -0.00104240  -0.00000599  0.49724183  1
  Cu  Cu91  1  0.01450726  0.67006856  0.50361818  1
  Cu  Cu92  1  -0.00468494  0.32519597  0.50400952  1
  Cu  Cu93  1  0.84011541  0.50605947  0.24199579  1
  Cu  Cu94  1  0.32176317  0.00507027  0.49691715  1
  Cu  Cu95  1  0.49132330  0.82844512  0.24130021  1
  Cu  Cu96  1  0.17264542  0.82970964  0.75538396  1
  Cu  Cu97  1  0.49765042  0.50407103  0.75589358  1
  Cu  Cu98  1  0.16409281  0.17331334  0.75172086  1
  Cu  Cu99  1  0.50296279  0.82734562  0.75323633  1
  Cu  Cu100  1  0.50093935  0.50423584  0.24614023  1
  Cu  Cu101  1  0.83573580  0.16647871  0.24993026  1
  Cu  Cu102  1  0.17042638  0.50345390  0.24177641  1
  Cu  Cu103  1  0.67841950  0.66282907  0.49781647  1
  Cu  Cu104  1  0.66245278  0.66610989  -0.00508705  1
  Cu  Cu105  1  0.83381190  0.82779421  0.75559291  1
  Cu  Cu106  1  0.50147959  0.16903845  0.74752354  1
  Cu  Cu107  1  0.00009020  0.66107762  -0.00038670  1
  Cu  Cu108  1  0.33264049  0.67041558  0.49892438  1
  Cu  Cu109  1  0.32850891  0.33711086  -0.00123279  1
  Cu  Cu110  1  0.33226875  0.00239139  0.00024028  1
  Cu  Cu111  1  0.00387495  0.33183814  -0.00566128  1
  Cu  Cu112  1  0.82963147  0.50072158  0.75693244  1
  Cu  Cu113  1  0.16507226  0.82681759  0.24163585  1
  Cu  Cu114  1  0.83025547  0.16915313  0.75154026  1
  Se  Se115  1  0.08701177  0.08618033  0.05634495  1
  Se  Se116  1  0.08487330  0.08325872  0.54947276  1
  Se  Se117  1  0.08606161  0.41896986  0.04648494  1
  Se  Se118  1  0.07229711  0.40642484  0.56575322  1
  Se  Se119  1  0.07900774  0.74859043  0.05378446  1
  Se  Se120  1  0.09523310  0.75402867  0.55682624  1
  Se  Se121  1  0.40897132  0.08122651  0.06448343  1
  Se  Se122  1  0.41021696  0.08161730  0.55092005  1
  Se  Se123  1  0.41209311  0.41250408  0.05967778  1
  Se  Se124  1  0.40798345  0.41370936  0.56433634  1
  Se  Se125  1  0.42709121  0.75643424  0.04500475  1
  Se  Se126  1  0.41775686  0.74665700  0.55925121  1
  Se  Se127  1  0.75671062  0.08343638  0.04704582  1
  Se  Se128  1  0.74994001  0.08711035  0.55848856  1
  Se  Se129  1  0.75140313  0.41547134  0.03948355  1
  Se  Se130  1  0.74005706  0.40790601  0.55968510  1
  Se  Se131  1  0.74255348  0.74090044  0.06020163  1
  Se  Se132  1  0.75595585  0.74446019  0.55828131  1
  Se  Se133  1  0.24885369  0.25058135  0.05256466  1
  Se  Se134  1  0.24490102  0.25206195  0.55878397  1
  Se  Se135  1  0.24546426  0.57817582  0.04878263  1
  Se  Se136  1  0.26417906  0.59026823  0.56587447  1
  Se  Se137  1  0.24620901  0.91814348  0.05081014  1
  Se  Se138  1  0.24499265  0.91422231  0.54761875  1
  Se  Se139  1  0.59421259  0.25952574  0.05956322  1
  Se  Se140  1  0.56718947  0.24186451  0.55865657  1
  Se  Se141  1  0.58431739  0.58493893  0.05806054  1
  Se  Se142  1  0.59564395  0.58432284  0.55614191  1
  Se  Se143  1  0.59127984  0.92977428  0.04519184  1
  Se  Se144  1  0.59122812  0.91631666  0.56257090  1
  Se  Se145  1  0.92413829  0.24726583  0.05096087  1
  Se  Se146  1  0.91101810  0.24330079  0.55618019  1
  Se  Se147  1  0.91104583  0.58078176  0.05023386  1
  Se  Se148  1  0.93466180  0.58885167  0.56255882  1
  Se  Se149  1  0.92627648  0.92202159  0.06628964  1
  Se  Se150  1  0.92371189  0.92224728  0.56382779  1
  Se  Se151  1  0.08554925  0.25070274  0.44979949  1
  Se  Se152  1  0.09129447  0.24909535  0.94384642  1
  Se  Se153  1  0.08782458  0.58285321  0.44394561  1
  Se  Se154  1  0.08283202  0.58341847  0.94105126  1
  Se  Se155  1  0.08040599  0.91421560  0.44391866  1
  Se  Se156  1  0.08536343  0.91704956  0.95224049  1
  Se  Se157  1  0.41510008  0.25083013  0.44600103  1
  Se  Se158  1  0.41361056  0.25644413  0.94222339  1
  Se  Se159  1  0.41541218  0.59300816  0.43952082  1
  Se  Se160  1  0.40149404  0.59370379  0.94115112  1
  Se  Se161  1  0.40320063  0.92765928  0.43404382  1
  Se  Se162  1  0.41803336  0.91859558  0.95075682  1
  Se  Se163  1  0.75680136  0.24852251  0.45588442  1
  Se  Se164  1  0.76166703  0.23829169  0.94288535  1
  Se  Se165  1  0.75977820  0.58907912  0.43562940  1
  Se  Se166  1  0.74757885  0.57900015  0.94901392  1
  Se  Se167  1  0.73938695  0.92969690  0.44291920  1
  Se  Se168  1  0.74500359  0.91889377  0.94022269  1
  Se  Se169  1  0.24278275  0.09017440  0.44173731  1
  Se  Se170  1  0.25012221  0.08952922  0.95076165  1
  Se  Se171  1  0.25803717  0.41515378  0.44305860  1
  Se  Se172  1  0.24830319  0.41847251  0.94190224  1
  Se  Se173  1  0.24835023  0.75244179  0.44691547  1
  Se  Se174  1  0.22759875  0.76462318  0.94337792  1
  Se  Se175  1  0.57559030  0.08841814  0.45210378  1
  Se  Se176  1  0.59003779  0.08273688  0.93521482  1
  Se  Se177  1  0.59708846  0.40349215  0.44441946  1
  Se  Se178  1  0.58900203  0.40200497  0.94381420  1
  Se  Se179  1  0.59374010  0.74401378  0.44182404  1
  Se  Se180  1  0.58002395  0.75143891  0.94484805  1
  Se  Se181  1  0.91518695  0.08508516  0.44651845  1
  Se  Se182  1  0.92195553  0.08449294  0.94733536  1
  Se  Se183  1  0.92423913  0.41048603  0.44244857  1
  Se  Se184  1  0.92012541  0.41703499  0.94262182  1
  Se  Se185  1  0.92883838  0.73984650  0.43946654  1
  Se  Se186  1  0.91693896  0.74330347  0.94174844  1
  Se  Se187  1  0.25027602  0.25074104  0.30128890  1
  Se  Se188  1  0.25176021  0.25477543  0.80202649  1
  Se  Se189  1  0.25167828  0.58593940  0.30057024  1
  Se  Se190  1  0.24611812  0.58523747  0.79950677  1
  Se  Se191  1  0.24136278  0.90725505  0.30721103  1
  Se  Se192  1  0.25176950  0.91382092  0.81302549  1
  Se  Se193  1  0.58066470  0.24332253  0.30963671  1
  Se  Se194  1  0.58401464  0.25423419  0.80029587  1
  Se  Se195  1  0.58753140  0.58223726  0.30074181  1
  Se  Se196  1  0.58396232  0.58430720  0.80870051  1
  Se  Se197  1  0.57140484  0.90602658  0.30471643  1
  Se  Se198  1  0.58568057  0.91502892  0.80198347  1
  Se  Se199  1  0.91701858  0.24993612  0.30711200  1
  Se  Se200  1  0.91594216  0.25336878  0.80135226  1
  Se  Se201  1  0.92660758  0.58701170  0.29449702  1
  Se  Se202  1  0.91891218  0.58360597  0.80481819  1
  Se  Se203  1  0.88891368  0.89340011  0.31111017  1
  Se  Se204  1  0.90873248  0.90576992  0.82113306  1
  Se  Se205  1  0.07678890  0.08208565  0.30318171  1
  Se  Se206  1  0.09057617  0.09087005  0.81469827  1
  Se  Se207  1  0.09622714  0.42897760  0.31230187  1
  Se  Se208  1  0.07003325  0.40250641  0.79983425  1
  Se  Se209  1  0.08355339  0.74679977  0.30152352  1
  Se  Se210  1  0.08080674  0.74930359  0.80204460  1
  Se  Se211  1  0.42372911  0.08960933  0.30595824  1
  Se  Se212  1  0.42471564  0.09027887  0.81281489  1
  Se  Se213  1  0.42301971  0.41861644  0.30246886  1
  Se  Se214  1  0.41109556  0.41775655  0.80263805  1
  Se  Se215  1  0.41123225  0.74298548  0.29556991  1
  Se  Se216  1  0.41271521  0.75284875  0.80656576  1
  Se  Se217  1  0.74785975  0.09478925  0.31081763  1
  Se  Se218  1  0.74850423  0.08062231  0.80054275  1
  Se  Se219  1  0.76436616  0.42832307  0.30816857  1
  Se  Se220  1  0.74660716  0.41443445  0.80739991  1
  Se  Se221  1  0.73015525  0.73461368  0.29876823  1
  Se  Se222  1  0.74859372  0.74246901  0.80542227  1
  Se  Se223  1  0.24218727  0.08762266  0.18920679  1
  Se  Se224  1  0.24125838  0.08797885  0.69151029  1
  Se  Se225  1  0.25159614  0.41199169  0.19555356  1
  Se  Se226  1  0.22674172  0.43139943  0.70447689  1
  Se  Se227  1  0.24998106  0.74493368  0.18932875  1
  Se  Se228  1  0.25896979  0.75368867  0.69821585  1
  Se  Se229  1  0.57456043  0.09513449  0.19205411  1
  Se  Se230  1  0.58540001  0.08308270  0.69738932  1
  Se  Se231  1  0.58062784  0.42468104  0.18503373  1
  Se  Se232  1  0.57897964  0.41905958  0.70038400  1
  Se  Se233  1  0.57943438  0.74906176  0.18933906  1
  Se  Se234  1  0.58557206  0.74343174  0.69789784  1
  Se  Se235  1  0.91600273  0.07834945  0.19990975  1
  Se  Se236  1  0.91346481  0.08533224  0.69381217  1
  Se  Se237  1  0.91100565  0.41809774  0.18218862  1
  Se  Se238  1  0.90915989  0.41969225  0.69799054  1
  Se  Se239  1  0.91061426  0.75182380  0.19950413  1
  Se  Se240  1  0.91972264  0.75064632  0.69966363  1
  Se  Se241  1  0.08868499  0.24503684  0.18779596  1
  Se  Se242  1  0.07421341  0.24829207  0.69757347  1
  Se  Se243  1  0.08157191  0.58302497  0.19135442  1
  Se  Se244  1  0.08453104  0.59374324  0.70531703  1
  Se  Se245  1  0.07950382  0.91790392  0.19968292  1
  Se  Se246  1  0.09194340  0.91541137  0.69755649  1
  Se  Se247  1  0.41636456  0.25123918  0.20452907  1
  Se  Se248  1  0.40859651  0.24973389  0.70016982  1
  Se  Se249  1  0.41281406  0.58265665  0.19307769  1
  Se  Se250  1  0.41563694  0.58736725  0.70122816  1
  Se  Se251  1  0.41364526  0.90919379  0.18124245  1
  Se  Se252  1  0.42913332  0.90970496  0.68815481  1
  Se  Se253  1  0.75707167  0.24752212  0.18951813  1
  Se  Se254  1  0.74691268  0.25198673  0.69660899  1
  Se  Se255  1  0.74816701  0.58178930  0.19125286  1
  Se  Se256  1  0.74789407  0.58616207  0.70143978  1
  Se  Se257  1  0.75301650  0.90600488  0.18735075  1
  Se  Se258  1  0.75188250  0.91378078  0.70362259  1
