# generated using pymatgen
data_In86Cu29Se144
_symmetry_space_group_name_H-M   'P 1'
_cell_length_a   17.58322332
_cell_length_b   17.58242786
_cell_length_c   23.44015859
_cell_angle_alpha   90.00325832
_cell_angle_beta   89.97842047
_cell_angle_gamma   90.00099691
_symmetry_Int_Tables_number   1
_chemical_formula_structural   In86Cu29Se144
_chemical_formula_sum   'In86 Cu29 Se144'
_cell_volume   7246.65941067
_cell_formula_units_Z   1
loop_
 _symmetry_equiv_pos_site_id
 _symmetry_equiv_pos_as_xyz
  1  'x, y, z'
loop_
 _atom_site_type_symbol
 _atom_site_label
 _atom_site_symmetry_multiplicity
 _atom_site_fract_x
 _atom_site_fract_y
 _atom_site_fract_z
 _atom_site_occupancy
  In  In0  1  0.00822712  0.16980121  0.11789592  1
  In  In1  1  0.00425862  0.16368163  0.63562913  1
  In  In2  1  -0.01536273  0.49657386  0.12432692  1
  In  In3  1  -0.00119014  0.49788556  0.63481066  1
  In  In4  1  0.00840504  0.83337975  0.11581485  1
  In  In5  1  0.01781790  0.82496217  0.62738221  1
  In  In6  1  0.32392580  0.15034367  0.11707735  1
  In  In7  1  0.32994714  0.15934886  0.62031438  1
  In  In8  1  0.34166388  0.50585997  0.13081920  1
  In  In9  1  0.35046503  0.50218746  0.62122313  1
  In  In10  1  0.31439167  0.84857727  0.14606439  1
  In  In11  1  0.33228506  0.83741829  0.62380600  1
  In  In12  1  0.66350457  0.16916425  0.12495336  1
  In  In13  1  0.66312018  0.17747270  0.62438811  1
  In  In14  1  0.66154567  0.50175490  0.13542257  1
  In  In15  1  0.66389479  0.50554341  0.62926769  1
  In  In16  1  0.65960374  0.83903062  0.13676332  1
  In  In17  1  0.64868256  0.83072620  0.61964217  1
  In  In18  1  0.18330445  -0.01224059  0.38024159  1
  In  In19  1  0.16514388  -0.00568379  0.87768947  1
  In  In20  1  0.15092251  0.32663284  0.37646937  1
  In  In21  1  0.15379555  0.32842732  0.87238720  1
  In  In22  1  0.17810946  0.66825033  0.37574286  1
  In  In23  1  0.17004311  0.67543219  0.86708945  1
  In  In24  1  0.49604170  -0.00059634  0.37243991  1
  In  In25  1  0.49616307  0.02234294  0.86989314  1
  In  In26  1  0.51453722  0.32167405  0.39267989  1
  In  In27  1  0.50364968  0.30987803  0.86527722  1
  In  In28  1  0.50258182  0.66760895  0.38243977  1
  In  In29  1  0.50026203  0.66722904  0.86617770  1
  In  In30  1  0.83239601  0.01316832  0.36990906  1
  In  In31  1  0.85475925  0.00697153  0.87698325  1
  In  In32  1  0.83162918  0.33619379  0.37099592  1
  In  In33  1  0.82496899  0.32476987  0.86935020  1
  In  In34  1  0.82834768  0.67736393  0.37753089  1
  In  In35  1  0.83001939  0.66037854  0.85771236  1
  In  In36  1  0.00184422  0.17979635  0.37792097  1
  In  In37  1  0.00188272  0.15942612  0.88181609  1
  In  In38  1  0.00827471  0.48887238  0.37848437  1
  In  In39  1  -0.01740024  0.48919692  0.84906530  1
  In  In40  1  0.01063727  0.83302388  0.38255428  1
  In  In41  1  0.01459280  0.84800334  0.86369152  1
  In  In42  1  0.34232225  0.15574017  0.37888442  1
  In  In43  1  0.34274670  0.14903093  0.87761129  1
  In  In44  1  0.33536934  0.51501253  0.37844638  1
  In  In45  1  0.32617234  0.50514739  0.86896157  1
  In  In46  1  0.33243492  0.83775600  0.37302479  1
  In  In47  1  0.32569970  0.82978673  0.86933028  1
  In  In48  1  0.65968119  0.16554643  0.36885954  1
  In  In49  1  0.65866849  0.18019685  0.87821407  1
  In  In50  1  0.65475565  0.48859290  0.37491853  1
  In  In51  1  0.66834999  0.49392349  0.86238874  1
  In  In52  1  0.65700770  0.82272603  0.36981454  1
  In  In53  1  0.67208203  0.82810313  0.87231102  1
  In  In54  1  0.16897232  0.00319827  0.12001847  1
  In  In55  1  0.17077647  0.00231218  0.62680160  1
  In  In56  1  0.16599441  0.31031697  0.12587494  1
  In  In57  1  0.16246067  0.31946847  0.62419917  1
  In  In58  1  0.16602474  0.67803704  0.12353320  1
  In  In59  1  0.15780834  0.68502278  0.62587540  1
  In  In60  1  0.49234690  0.00569834  0.12973930  1
  In  In61  1  0.49274764  -0.00993247  0.61674178  1
  In  In62  1  0.51029732  0.33088388  0.12783988  1
  In  In63  1  0.51109567  0.33607827  0.61022415  1
  In  In64  1  0.49157576  0.67240030  0.13871254  1
  In  In65  1  0.49718361  0.66908810  0.62571336  1
  In  In66  1  0.82086875  -0.00091040  0.12419498  1
  In  In67  1  0.83952526  0.01205802  0.63112220  1
  In  In68  1  0.83609686  0.32660757  0.13230730  1
  In  In69  1  0.83291028  0.34066706  0.64020603  1
  In  In70  1  0.83150722  0.65956211  0.12608386  1
  In  In71  1  0.84019477  0.65398878  0.63823762  1
  In  In72  1  0.33569748  0.33379275  0.74260697  1
  In  In73  1  0.83479105  0.49875062  0.51016378  1
  In  In74  1  0.33475164  0.33596111  0.25267985  1
  In  In75  1  0.83038579  0.49651523  -0.00540580  1
  In  In76  1  0.66665955  -0.00206942  0.74938739  1
  In  In77  1  0.83942365  0.83806112  -0.00419057  1
  In  In78  1  0.50084499  0.49390494  0.00154069  1
  In  In79  1  0.16061594  0.49823999  -0.01160300  1
  In  In80  1  0.16963804  0.50223786  0.50406087  1
  In  In81  1  0.49202368  0.83769779  0.01071594  1
  In  In82  1  -0.00112166  0.66371385  0.25681964  1
  In  In83  1  0.83228775  0.83391601  0.50137767  1
  In  In84  1  0.00177416  0.00296549  0.24430039  1
  In  In85  1  0.83223997  0.17161549  0.50516315  1
  Cu  Cu86  1  0.66618279  0.66993055  0.00283279  1
  Cu  Cu87  1  0.33043078  0.33196536  0.50301678  1
  Cu  Cu88  1  0.00967079  0.00224835  0.50632254  1
  Cu  Cu89  1  0.33542678  0.31787059  -0.00244320  1
  Cu  Cu90  1  0.33283652  -0.00500213  0.00148652  1
  Cu  Cu91  1  0.33135753  0.00029273  0.49902645  1
  Cu  Cu92  1  0.49767265  0.16566599  0.25166508  1
  Cu  Cu93  1  0.83226281  0.83472768  0.25081147  1
  Cu  Cu94  1  0.17135772  0.84081082  0.74742479  1
  Cu  Cu95  1  0.16383505  0.16169105  0.24762027  1
  Cu  Cu96  1  0.16132110  0.49542668  0.25450184  1
  Cu  Cu97  1  0.66426068  0.66289953  0.50378266  1
  Cu  Cu98  1  0.82489231  0.49818831  0.25074873  1
  Cu  Cu99  1  0.50445422  0.82862915  0.25858774  1
  Cu  Cu100  1  0.66661491  0.32750256  0.00030894  1
  Cu  Cu101  1  0.83988690  0.16620269  0.75503436  1
  Cu  Cu102  1  0.33795019  0.67786318  0.49971913  1
  Cu  Cu103  1  0.00216328  0.32715067  0.00058388  1
  Cu  Cu104  1  0.17148570  0.50993496  0.74654356  1
  Cu  Cu105  1  0.67073467  0.01477338  -0.00142486  1
  Cu  Cu106  1  0.50122326  0.50258807  0.25927119  1
  Cu  Cu107  1  0.82430185  0.17330368  0.25003184  1
  Cu  Cu108  1  0.50226859  0.50164551  0.74344042  1
  Cu  Cu109  1  0.49384288  0.83329346  0.74458570  1
  Cu  Cu110  1  0.00507706  0.67347777  -0.01451192  1
  Cu  Cu111  1  0.16827566  0.16434776  0.75222697  1
  Cu  Cu112  1  0.83237614  0.83075907  0.75063116  1
  Cu  Cu113  1  0.65864241  0.00101199  0.49250761  1
  Cu  Cu114  1  0.32583225  0.67075873  -0.00298873  1
  Se  Se115  1  0.08394927  0.08079178  0.05322837  1
  Se  Se116  1  0.08551564  0.08985257  0.56082744  1
  Se  Se117  1  0.07903911  0.41238329  0.05992238  1
  Se  Se118  1  0.07671756  0.41193193  0.55981895  1
  Se  Se119  1  0.08621614  0.74836783  0.04620503  1
  Se  Se120  1  0.08837077  0.75730295  0.54582692  1
  Se  Se121  1  0.42016409  0.07982412  0.05052956  1
  Se  Se122  1  0.41742160  0.08295942  0.55042007  1
  Se  Se123  1  0.40531122  0.40420112  0.05972516  1
  Se  Se124  1  0.41850156  0.41805075  0.54719243  1
  Se  Se125  1  0.40239436  0.74299467  0.06454694  1
  Se  Se126  1  0.42142079  0.75763638  0.55604807  1
  Se  Se127  1  0.75324291  0.09241973  0.05544272  1
  Se  Se128  1  0.74124876  0.07164288  0.55730104  1
  Se  Se129  1  0.74003669  0.41462401  0.06072090  1
  Se  Se130  1  0.74271464  0.40588211  0.56287952  1
  Se  Se131  1  0.74549951  0.75162557  0.06056391  1
  Se  Se132  1  0.74891558  0.73922872  0.56401623  1
  Se  Se133  1  0.24629101  0.24105834  0.05008366  1
  Se  Se134  1  0.24762786  0.24661999  0.55304301  1
  Se  Se135  1  0.25228105  0.58034911  0.05496774  1
  Se  Se136  1  0.25890185  0.59554019  0.56130481  1
  Se  Se137  1  0.25337553  0.91088508  0.05733992  1
  Se  Se138  1  0.24813839  0.91857728  0.55451159  1
  Se  Se139  1  0.57844829  0.24805463  0.05252921  1
  Se  Se140  1  0.58482051  0.24082109  0.54569620  1
  Se  Se141  1  0.58330609  0.59243245  0.06209599  1
  Se  Se142  1  0.57986210  0.58238182  0.55799203  1
  Se  Se143  1  0.59453093  0.92808023  0.05798628  1
  Se  Se144  1  0.57916997  0.91365030  0.54516698  1
  Se  Se145  1  0.91434777  0.25322209  0.05684998  1
  Se  Se146  1  0.91974797  0.25645149  0.56868718  1
  Se  Se147  1  0.92502404  0.59575794  0.04875786  1
  Se  Se148  1  0.93074066  0.59209915  0.55971702  1
  Se  Se149  1  0.92430484  0.92985101  0.05731366  1
  Se  Se150  1  0.92159870  0.92445685  0.56183661  1
  Se  Se151  1  0.08345887  0.24757158  0.45315137  1
  Se  Se152  1  0.08850285  0.24612139  0.94904213  1
  Se  Se153  1  0.07909622  0.59024941  0.44140322  1
  Se  Se154  1  0.07161976  0.58281661  0.92510423  1
  Se  Se155  1  0.08823454  0.91868519  0.44983556  1
  Se  Se156  1  0.08005319  0.91424078  0.94659471  1
  Se  Se157  1  0.41271959  0.24661930  0.44912732  1
  Se  Se158  1  0.42219638  0.24266702  0.94222678  1
  Se  Se159  1  0.41856402  0.58555096  0.45256265  1
  Se  Se160  1  0.41076882  0.58915246  0.94264174  1
  Se  Se161  1  0.41550765  0.91812867  0.44392355  1
  Se  Se162  1  0.41528093  0.92126456  0.93739633  1
  Se  Se163  1  0.74369329  0.25411592  0.44000748  1
  Se  Se164  1  0.75402452  0.24810553  0.94768991  1
  Se  Se165  1  0.74713781  0.58605008  0.44376746  1
  Se  Se166  1  0.74052563  0.59195178  0.93865700  1
  Se  Se167  1  0.74696817  0.92308803  0.43631740  1
  Se  Se168  1  0.74292473  0.92797351  0.93842397  1
  Se  Se169  1  0.24763570  0.08661801  0.44730095  1
  Se  Se170  1  0.25109373  0.07832365  0.94600232  1
  Se  Se171  1  0.25342555  0.41091296  0.43816752  1
  Se  Se172  1  0.26041506  0.40404885  0.93827848  1
  Se  Se173  1  0.25079146  0.75540890  0.44592184  1
  Se  Se174  1  0.24479713  0.75367505  0.94364539  1
  Se  Se175  1  0.57834518  0.08650459  0.44034351  1
  Se  Se176  1  0.58115205  0.08923198  0.94494038  1
  Se  Se177  1  0.58181972  0.42234750  0.45527061  1
  Se  Se178  1  0.58942296  0.40832856  0.93785398  1
  Se  Se179  1  0.58629660  0.75251140  0.45113446  1
  Se  Se180  1  0.58210735  0.74841846  0.94501930  1
  Se  Se181  1  0.92434836  0.07731336  0.44581188  1
  Se  Se182  1  0.91465405  0.08871666  0.95451979  1
  Se  Se183  1  0.92142621  0.40630955  0.44708978  1
  Se  Se184  1  0.92642388  0.41022153  0.93861358  1
  Se  Se185  1  0.92684841  0.74033383  0.44743886  1
  Se  Se186  1  0.91680317  0.74728020  0.92824210  1
  Se  Se187  1  0.24416199  0.24257648  0.30944651  1
  Se  Se188  1  0.25138421  0.24666792  0.81004092  1
  Se  Se189  1  0.24679845  0.57913534  0.30349060  1
  Se  Se190  1  0.25530030  0.59210015  0.79895045  1
  Se  Se191  1  0.25232455  0.91739873  0.30053285  1
  Se  Se192  1  0.25282214  0.92339129  0.80330377  1
  Se  Se193  1  0.57546632  0.25447105  0.30460663  1
  Se  Se194  1  0.59792125  0.25277678  0.79426415  1
  Se  Se195  1  0.58590934  0.58726095  0.31028592  1
  Se  Se196  1  0.58411934  0.58330867  0.80085997  1
  Se  Se197  1  0.58665801  0.91982203  0.30523231  1
  Se  Se198  1  0.57237086  0.90993372  0.81116524  1
  Se  Se199  1  0.91328036  0.24798222  0.30547996  1
  Se  Se200  1  0.92350545  0.24639645  0.81086030  1
  Se  Se201  1  0.90667182  0.57254021  0.31503900  1
  Se  Se202  1  0.92594228  0.59735366  0.79048067  1
  Se  Se203  1  0.91592969  0.91012530  0.31110268  1
  Se  Se204  1  0.91406969  0.91823394  0.80058470  1
  Se  Se205  1  0.08667005  0.08493217  0.31351227  1
  Se  Se206  1  0.08576003  0.08277839  0.80899980  1
  Se  Se207  1  0.07740368  0.40897519  0.30147366  1
  Se  Se208  1  0.09373430  0.41951632  0.79838892  1
  Se  Se209  1  0.09298323  0.75831301  0.30593065  1
  Se  Se210  1  0.08561400  0.75364530  0.79688529  1
  Se  Se211  1  0.41271379  0.07988998  0.30021792  1
  Se  Se212  1  0.41880075  0.09186868  0.79357179  1
  Se  Se213  1  0.42295595  0.41830855  0.31859026  1
  Se  Se214  1  0.42556377  0.42207953  0.80904035  1
  Se  Se215  1  0.41955442  0.74716950  0.31155644  1
  Se  Se216  1  0.41362312  0.74974910  0.80228528  1
  Se  Se217  1  0.74464308  0.08392900  0.29997092  1
  Se  Se218  1  0.75384032  0.08603243  0.81345051  1
  Se  Se219  1  0.74290314  0.41415594  0.30453507  1
  Se  Se220  1  0.76688026  0.42466923  0.80139642  1
  Se  Se221  1  0.74986214  0.74807583  0.30167582  1
  Se  Se222  1  0.74185944  0.74840119  0.79668228  1
  Se  Se223  1  0.24858980  0.07919396  0.19596339  1
  Se  Se224  1  0.25315089  0.08489179  0.69742904  1
  Se  Se225  1  0.23988986  0.41965309  0.18816664  1
  Se  Se226  1  0.24488473  0.42594128  0.68349013  1
  Se  Se227  1  0.25850678  0.73168168  0.19706407  1
  Se  Se228  1  0.25195164  0.75344187  0.69466354  1
  Se  Se229  1  0.58202979  0.08512610  0.19500681  1
  Se  Se230  1  0.57886710  0.08123429  0.68531506  1
  Se  Se231  1  0.57780567  0.41767838  0.20130597  1
  Se  Se232  1  0.57951136  0.41322780  0.69078349  1
  Se  Se233  1  0.58733663  0.74546528  0.20239354  1
  Se  Se234  1  0.58217005  0.74998000  0.69698014  1
  Se  Se235  1  0.90671373  0.09317475  0.18966818  1
  Se  Se236  1  0.92310584  0.07960662  0.70576080  1
  Se  Se237  1  0.91360363  0.41735585  0.19957018  1
  Se  Se238  1  0.92401190  0.41489298  0.70578540  1
  Se  Se239  1  0.91455009  0.75729720  0.18973651  1
  Se  Se240  1  0.91875908  0.75589451  0.69301052  1
  Se  Se241  1  0.07675351  0.24638298  0.19944215  1
  Se  Se242  1  0.08476451  0.25221115  0.70350711  1
  Se  Se243  1  0.08413734  0.57545453  0.18911987  1
  Se  Se244  1  0.08607935  0.58982460  0.69269167  1
  Se  Se245  1  0.09118440  0.90664188  0.19147773  1
  Se  Se246  1  0.08362969  0.92174088  0.69556438  1
  Se  Se247  1  0.41486333  0.24183946  0.18825819  1
  Se  Se248  1  0.42446346  0.24885149  0.68129658  1
  Se  Se249  1  0.41433281  0.58298563  0.20639696  1
  Se  Se250  1  0.41491203  0.58684493  0.69761294  1
  Se  Se251  1  0.42597650  0.91141418  0.19942999  1
  Se  Se252  1  0.41342489  0.92135971  0.69501944  1
  Se  Se253  1  0.73943379  0.25600546  0.19706239  1
  Se  Se254  1  0.75372523  0.24136779  0.69788488  1
  Se  Se255  1  0.74786116  0.58801274  0.19862404  1
  Se  Se256  1  0.75282607  0.57369832  0.70094197  1
  Se  Se257  1  0.74903835  0.92089513  0.20069637  1
  Se  Se258  1  0.75351962  0.90736698  0.68513201  1
