# generated using pymatgen
data_In86Cu29Se144
_symmetry_space_group_name_H-M   'P 1'
_cell_length_a   17.58153091
_cell_length_b   17.58219599
_cell_length_c   23.44516690
_cell_angle_alpha   90.00843384
_cell_angle_beta   90.00129730
_cell_angle_gamma   89.96675194
_symmetry_Int_Tables_number   1
_chemical_formula_structural   In86Cu29Se144
_chemical_formula_sum   'In86 Cu29 Se144'
_cell_volume   7247.41375798
_cell_formula_units_Z   1
loop_
 _symmetry_equiv_pos_site_id
 _symmetry_equiv_pos_as_xyz
  1  'x, y, z'
loop_
 _atom_site_type_symbol
 _atom_site_label
 _atom_site_symmetry_multiplicity
 _atom_site_fract_x
 _atom_site_fract_y
 _atom_site_fract_z
 _atom_site_occupancy
  In  In0  1  -0.01806465  0.16024309  0.11519788  1
  In  In1  1  -0.00352019  0.17238909  0.63740384  1
  In  In2  1  0.01115607  0.50519390  0.11942793  1
  In  In3  1  -0.00073771  0.50548198  0.62657194  1
  In  In4  1  -0.00590243  0.83852093  0.11932458  1
  In  In5  1  0.00350478  0.83217307  0.64191172  1
  In  In6  1  0.33390934  0.14744607  0.12854108  1
  In  In7  1  0.32536795  0.16476428  0.62942906  1
  In  In8  1  0.33100474  0.49944822  0.11816326  1
  In  In9  1  0.33071100  0.51352312  0.61854007  1
  In  In10  1  0.34675606  0.84698244  0.11656779  1
  In  In11  1  0.34120881  0.83218470  0.62828197  1
  In  In12  1  0.66449768  0.16623029  0.12829446  1
  In  In13  1  0.68230603  0.16814577  0.61421376  1
  In  In14  1  0.65963525  0.51260343  0.13499071  1
  In  In15  1  0.68845053  0.50223770  0.61425364  1
  In  In16  1  0.66600047  0.83359842  0.12798671  1
  In  In17  1  0.65264014  0.83134966  0.62316453  1
  In  In18  1  0.16119852  -0.00228883  0.36355767  1
  In  In19  1  0.14789526  -0.02901944  0.85892991  1
  In  In20  1  0.16400031  0.34641906  0.38517705  1
  In  In21  1  0.16583571  0.34542995  0.87231922  1
  In  In22  1  0.15221953  0.66553614  0.37419275  1
  In  In23  1  0.15177210  0.68181792  0.88283136  1
  In  In24  1  0.49630422  -0.01143502  0.36064158  1
  In  In25  1  0.49977715  0.00042454  0.88388887  1
  In  In26  1  0.50028192  0.32487212  0.37281783  1
  In  In27  1  0.50437311  0.32722944  0.88347316  1
  In  In28  1  0.52364647  0.67275236  0.37320860  1
  In  In29  1  0.50405512  0.66270649  0.88350835  1
  In  In30  1  0.83629075  0.00500202  0.36719160  1
  In  In31  1  0.86315227  -0.02468425  0.90836608  1
  In  In32  1  0.81543147  0.34656243  0.39492029  1
  In  In33  1  0.83387078  0.31882227  0.87490220  1
  In  In34  1  0.82236333  0.65112406  0.37106715  1
  In  In35  1  0.84335355  0.67590763  0.86467657  1
  In  In36  1  -0.00350164  0.15922838  0.37498225  1
  In  In37  1  -0.00858942  0.15570320  0.87227774  1
  In  In38  1  -0.01533592  0.49966877  0.38854361  1
  In  In39  1  0.00975189  0.51358263  0.86470720  1
  In  In40  1  -0.00255740  0.83149822  0.36373571  1
  In  In41  1  0.00515231  0.83098534  0.87463517  1
  In  In42  1  0.33893238  0.16322359  0.37345049  1
  In  In43  1  0.34929057  0.15557033  0.88110918  1
  In  In44  1  0.32357936  0.49446310  0.38110997  1
  In  In45  1  0.33118183  0.50270332  0.88339667  1
  In  In46  1  0.33951102  0.84628085  0.36759757  1
  In  In47  1  0.32141933  0.84675543  0.88508533  1
  In  In48  1  0.67639953  0.17327664  0.36348693  1
  In  In49  1  0.67544174  0.15641803  0.88652857  1
  In  In50  1  0.67693729  0.50676278  0.37118565  1
  In  In51  1  0.65727723  0.50168785  0.87626305  1
  In  In52  1  0.65504715  0.82086078  0.35895054  1
  In  In53  1  0.67533259  0.82666224  0.88424838  1
  In  In54  1  0.17173945  -0.00567295  0.12625696  1
  In  In55  1  0.16604889  -0.00215000  0.64207908  1
  In  In56  1  0.15790430  0.34088561  0.11969519  1
  In  In57  1  0.14994188  0.33183269  0.61988002  1
  In  In58  1  0.15749695  0.66484182  0.11800033  1
  In  In59  1  0.16843479  0.65974915  0.62583696  1
  In  In60  1  0.49600381  -0.00403638  0.12832889  1
  In  In61  1  0.50718190  -0.00993908  0.62647099  1
  In  In62  1  0.50840327  0.34418113  0.12117213  1
  In  In63  1  0.50569739  0.33843856  0.62533911  1
  In  In64  1  0.51863943  0.68133242  0.11570614  1
  In  In65  1  0.49178898  0.67851167  0.62653829  1
  In  In66  1  0.83305026  -0.00319292  0.12318084  1
  In  In67  1  0.84091528  0.00842965  0.62315398  1
  In  In68  1  0.82979920  0.32164340  0.12603903  1
  In  In69  1  0.87139774  0.35923157  0.58696442  1
  In  In70  1  0.82021815  0.68208603  0.13405597  1
  In  In71  1  0.83836977  0.66525371  0.63094426  1
  In  In72  1  0.32946949  0.33579263  0.74679125  1
  In  In73  1  0.49878033  0.50300569  0.49591109  1
  In  In74  1  0.15878941  0.17090196  0.50359157  1
  In  In75  1  0.16826297  0.16072440  0.00199983  1
  In  In76  1  0.67591628  0.33218430  0.74172968  1
  In  In77  1  0.33203486  0.32716351  0.25836365  1
  In  In78  1  0.50171355  0.16629706  0.48954002  1
  In  In79  1  0.17008415  0.83065167  0.50767209  1
  In  In80  1  0.67441089  0.00005319  0.75224750  1
  In  In81  1  0.82728418  0.82915218  0.49782767  1
  In  In82  1  0.83336004  0.50087202  -0.00050149  1
  In  In83  1  0.34126080  0.67260637  0.24258244  1
  In  In84  1  -0.00602383  0.32765109  0.25119889  1
  In  In85  1  0.32268267  0.67805967  0.75517858  1
  Cu  Cu86  1  0.66004509  0.00466280  0.01102359  1
  Cu  Cu87  1  0.33587414  0.67679670  0.49980453  1
  Cu  Cu88  1  0.00234047  0.33864732  -0.00358328  1
  Cu  Cu89  1  0.66591762  -0.00317979  0.49509800  1
  Cu  Cu90  1  0.50757463  0.16059796  0.75717463  1
  Cu  Cu91  1  -0.00692836  0.65718470  0.49972645  1
  Cu  Cu92  1  0.33582839  0.33094449  -0.00160540  1
  Cu  Cu93  1  0.83040105  0.16365920  0.24686298  1
  Cu  Cu94  1  0.83137612  0.83693011  0.75878069  1
  Cu  Cu95  1  0.16402758  0.83198142  0.24394073  1
  Cu  Cu96  1  0.83921903  0.49767899  0.25552214  1
  Cu  Cu97  1  0.49813925  0.83390514  0.75102854  1
  Cu  Cu98  1  0.15702103  0.50375089  0.74923517  1
  Cu  Cu99  1  0.66409792  0.33240478  0.00237429  1
  Cu  Cu100  1  0.15719362  0.16161686  0.24890900  1
  Cu  Cu101  1  -0.00456619  0.67257698  -0.00366935  1
  Cu  Cu102  1  0.83622865  0.49440992  0.74179303  1
  Cu  Cu103  1  0.33269768  0.66327459  0.00246114  1
  Cu  Cu104  1  0.50247813  0.50665783  0.75784625  1
  Cu  Cu105  1  0.66730156  0.66758364  0.00508207  1
  Cu  Cu106  1  0.83985465  0.16197519  0.75172227  1
  Cu  Cu107  1  0.17157428  0.16416130  0.75367181  1
  Cu  Cu108  1  0.33860436  0.00233381  0.49521486  1
  Cu  Cu109  1  0.33285248  -0.00409859  0.00150377  1
  Cu  Cu110  1  0.50771408  0.50352126  0.24685450  1
  Cu  Cu111  1  0.49882074  0.16142836  0.24905757  1
  Cu  Cu112  1  0.16191480  0.50598796  0.24827949  1
  Cu  Cu113  1  0.00169731  -0.00243287  0.49910427  1
  Cu  Cu114  1  0.83818781  0.83751275  0.24706101  1
  Se  Se115  1  0.07448556  0.07123783  0.05649694  1
  Se  Se116  1  0.08092622  0.07181087  0.56393734  1
  Se  Se117  1  0.08672589  0.42347389  0.04569702  1
  Se  Se118  1  0.08375054  0.42743392  0.55567518  1
  Se  Se119  1  0.07969495  0.75392129  0.05136055  1
  Se  Se120  1  0.06967171  0.74266699  0.55972969  1
  Se  Se121  1  0.41694258  0.07970643  0.05388768  1
  Se  Se122  1  0.41505350  0.08150553  0.55925605  1
  Se  Se123  1  0.41679308  0.41665095  0.05284209  1
  Se  Se124  1  0.40995012  0.41197525  0.55873159  1
  Se  Se125  1  0.41754561  0.74842421  0.05259459  1
  Se  Se126  1  0.41889101  0.75980201  0.55128723  1
  Se  Se127  1  0.74962719  0.08735241  0.05847410  1
  Se  Se128  1  0.75375662  0.07413774  0.54791968  1
  Se  Se129  1  0.74298134  0.41541381  0.06241791  1
  Se  Se130  1  0.73624701  0.39354886  0.55248512  1
  Se  Se131  1  0.75021533  0.75474313  0.05406138  1
  Se  Se132  1  0.74173267  0.74150453  0.56103164  1
  Se  Se133  1  0.25825333  0.25372756  0.06366555  1
  Se  Se134  1  0.25774296  0.25839819  0.55927065  1
  Se  Se135  1  0.24482122  0.58092025  0.05269665  1
  Se  Se136  1  0.24925807  0.59233048  0.54788881  1
  Se  Se137  1  0.24561968  0.91311583  0.05149732  1
  Se  Se138  1  0.25752522  0.93011761  0.56109230  1
  Se  Se139  1  0.58184071  0.24867763  0.05685280  1
  Se  Se140  1  0.58761970  0.25600849  0.55371109  1
  Se  Se141  1  0.58502042  0.57737921  0.05245699  1
  Se  Se142  1  0.58197200  0.58901423  0.56222230  1
  Se  Se143  1  0.57939326  0.91403434  0.05885151  1
  Se  Se144  1  0.58170464  0.91652045  0.54917962  1
  Se  Se145  1  0.91627587  0.25895915  0.04927983  1
  Se  Se146  1  0.91583979  0.22601629  0.55592636  1
  Se  Se147  1  0.91645654  0.59525368  0.06053883  1
  Se  Se148  1  0.90816770  0.58089566  0.55598801  1
  Se  Se149  1  0.90621316  0.91317045  0.04952688  1
  Se  Se150  1  0.92658545  0.91177121  0.55930662  1
  Se  Se151  1  0.06805093  0.25863366  0.44350565  1
  Se  Se152  1  0.08217185  0.25341115  0.93915814  1
  Se  Se153  1  0.08387294  0.57984577  0.44737379  1
  Se  Se154  1  0.07908086  0.58348916  0.94713424  1
  Se  Se155  1  0.08077381  0.91568588  0.44067643  1
  Se  Se156  1  0.08541705  0.91260117  0.94621048  1
  Se  Se157  1  0.40049976  0.26237724  0.44447489  1
  Se  Se158  1  0.42072128  0.24476681  0.95079653  1
  Se  Se159  1  0.41156680  0.59731762  0.43449765  1
  Se  Se160  1  0.41869399  0.58010570  0.95038488  1
  Se  Se161  1  0.42067375  0.91920680  0.44235505  1
  Se  Se162  1  0.42103643  0.91223828  0.95109487  1
  Se  Se163  1  0.74793527  0.23589370  0.44631641  1
  Se  Se164  1  0.75101514  0.25146587  0.95073656  1
  Se  Se165  1  0.74994066  0.57971851  0.44960363  1
  Se  Se166  1  0.74740112  0.59311915  0.93878169  1
  Se  Se167  1  0.74537584  0.91810980  0.43288802  1
  Se  Se168  1  0.74013350  0.92240587  0.95342114  1
  Se  Se169  1  0.24831906  0.07711755  0.44066723  1
  Se  Se170  1  0.25132649  0.07123750  0.93786259  1
  Se  Se171  1  0.24864452  0.41915437  0.45506603  1
  Se  Se172  1  0.24951103  0.41363757  0.94782465  1
  Se  Se173  1  0.25433168  0.75085904  0.43504772  1
  Se  Se174  1  0.25096060  0.74756691  0.94821209  1
  Se  Se175  1  0.58824156  0.07451563  0.43066846  1
  Se  Se176  1  0.57972762  0.08667570  0.95191876  1
  Se  Se177  1  0.58666728  0.41247400  0.43641198  1
  Se  Se178  1  0.58364536  0.41750782  0.94811381  1
  Se  Se179  1  0.59123522  0.75736115  0.44594375  1
  Se  Se180  1  0.58315496  0.75090547  0.95063599  1
  Se  Se181  1  0.91666795  0.07639969  0.44516066  1
  Se  Se182  1  0.90969177  0.10010680  0.95292280  1
  Se  Se183  1  0.91689013  0.40938361  0.45883372  1
  Se  Se184  1  0.92250308  0.41700653  0.93428505  1
  Se  Se185  1  0.92240931  0.74368409  0.43772855  1
  Se  Se186  1  0.91136661  0.75408814  0.94283966  1
  Se  Se187  1  0.23088991  0.24199608  0.31411431  1
  Se  Se188  1  0.25243459  0.24318960  0.81487007  1
  Se  Se189  1  0.24897691  0.58246574  0.30554818  1
  Se  Se190  1  0.23979954  0.57878063  0.81240929  1
  Se  Se191  1  0.24701628  0.91462759  0.29869276  1
  Se  Se192  1  0.25928735  0.91535515  0.80078032  1
  Se  Se193  1  0.57954423  0.24951003  0.30006683  1
  Se  Se194  1  0.58983791  0.24430515  0.81077345  1
  Se  Se195  1  0.59150511  0.58474859  0.30061630  1
  Se  Se196  1  0.58623432  0.59188365  0.80629295  1
  Se  Se197  1  0.59481980  0.92472897  0.29564051  1
  Se  Se198  1  0.58227594  0.91154965  0.81137049  1
  Se  Se199  1  0.90152184  0.24623449  0.31305048  1
  Se  Se200  1  0.92149146  0.25049727  0.80259050  1
  Se  Se201  1  0.92348775  0.58029552  0.30764157  1
  Se  Se202  1  0.91415309  0.58141217  0.79776669  1
  Se  Se203  1  0.92131803  0.92270832  0.29904957  1
  Se  Se204  1  0.91293804  0.91958503  0.81336515  1
  Se  Se205  1  0.07156108  0.07940743  0.30028970  1
  Se  Se206  1  0.08408082  0.08327846  0.80474057  1
  Se  Se207  1  0.08321079  0.42318630  0.30805995  1
  Se  Se208  1  0.07813554  0.41318169  0.79934660  1
  Se  Se209  1  0.08377572  0.74752459  0.29862456  1
  Se  Se210  1  0.07735602  0.74453345  0.80224920  1
  Se  Se211  1  0.41016935  0.08143746  0.30037779  1
  Se  Se212  1  0.42329891  0.07627447  0.80574257  1
  Se  Se213  1  0.42314704  0.42940527  0.30825350  1
  Se  Se214  1  0.42277008  0.41945785  0.81112335  1
  Se  Se215  1  0.43008840  0.75648760  0.30590442  1
  Se  Se216  1  0.42038214  0.75675343  0.81572724  1
  Se  Se217  1  0.74605287  0.07748984  0.29695295  1
  Se  Se218  1  0.76437422  0.08269074  0.81495949  1
  Se  Se219  1  0.75523713  0.41253264  0.30672257  1
  Se  Se220  1  0.75767018  0.42276314  0.81052759  1
  Se  Se221  1  0.76065414  0.74995124  0.30254151  1
  Se  Se222  1  0.74314694  0.75093972  0.80361509  1
  Se  Se223  1  0.24586953  0.07957307  0.20021622  1
  Se  Se224  1  0.25807224  0.08136260  0.70362704  1
  Se  Se225  1  0.24379573  0.41964714  0.19500996  1
  Se  Se226  1  0.24249015  0.42941965  0.68815912  1
  Se  Se227  1  0.24649435  0.75595983  0.18272328  1
  Se  Se228  1  0.23504276  0.76537103  0.69131020  1
  Se  Se229  1  0.58229092  0.08011209  0.19509322  1
  Se  Se230  1  0.58779449  0.09268376  0.68841895  1
  Se  Se231  1  0.58884084  0.41250448  0.19887966  1
  Se  Se232  1  0.58097935  0.43176536  0.69276000  1
  Se  Se233  1  0.59261158  0.74195489  0.19677316  1
  Se  Se234  1  0.58008281  0.74932898  0.69840261  1
  Se  Se235  1  0.91573819  0.08261180  0.19404518  1
  Se  Se236  1  0.92242742  0.07419954  0.70089894  1
  Se  Se237  1  0.91378292  0.42366673  0.18640739  1
  Se  Se238  1  0.91494631  0.40977652  0.68621198  1
  Se  Se239  1  0.92175364  0.75248218  0.19452642  1
  Se  Se240  1  0.91152351  0.75102256  0.70299246  1
  Se  Se241  1  0.08441217  0.24213759  0.18551842  1
  Se  Se242  1  0.09099521  0.25026891  0.70048430  1
  Se  Se243  1  0.07960885  0.58824218  0.19512798  1
  Se  Se244  1  0.07846840  0.59184097  0.69692289  1
  Se  Se245  1  0.08012335  0.91627184  0.19143738  1
  Se  Se246  1  0.07693555  0.92245840  0.70704819  1
  Se  Se247  1  0.41901403  0.24674489  0.18990549  1
  Se  Se248  1  0.42988105  0.24272347  0.69479999  1
  Se  Se249  1  0.42713749  0.57778394  0.18382749  1
  Se  Se250  1  0.41603403  0.58161259  0.69782803  1
  Se  Se251  1  0.41112281  0.91739064  0.19826129  1
  Se  Se252  1  0.41844192  0.91960745  0.69738481  1
  Se  Se253  1  0.74570755  0.25163949  0.19919969  1
  Se  Se254  1  0.76752078  0.24213483  0.68689138  1
  Se  Se255  1  0.75654740  0.58150148  0.20025689  1
  Se  Se256  1  0.74884704  0.58059544  0.69577624  1
  Se  Se257  1  0.75094356  0.91808051  0.19495736  1
  Se  Se258  1  0.75756227  0.90861805  0.68684762  1
