# generated using pymatgen
data_In86Cu29Se144
_symmetry_space_group_name_H-M   'P 1'
_cell_length_a   17.58245428
_cell_length_b   17.58402410
_cell_length_c   23.43931980
_cell_angle_alpha   90.01826234
_cell_angle_beta   89.99824878
_cell_angle_gamma   90.01731587
_symmetry_Int_Tables_number   1
_chemical_formula_structural   In86Cu29Se144
_chemical_formula_sum   'In86 Cu29 Se144'
_cell_volume   7246.74082994
_cell_formula_units_Z   1
loop_
 _symmetry_equiv_pos_site_id
 _symmetry_equiv_pos_as_xyz
  1  'x, y, z'
loop_
 _atom_site_type_symbol
 _atom_site_label
 _atom_site_symmetry_multiplicity
 _atom_site_fract_x
 _atom_site_fract_y
 _atom_site_fract_z
 _atom_site_occupancy
  In  In0  1  0.01601929  0.16973619  0.12520827  1
  In  In1  1  -0.02044835  0.18201449  0.63329353  1
  In  In2  1  -0.00991799  0.50103433  0.11446323  1
  In  In3  1  -0.00525398  0.50434066  0.63307542  1
  In  In4  1  -0.00077666  0.82317085  0.10828400  1
  In  In5  1  -0.01388477  0.82572283  0.62492463  1
  In  In6  1  0.32619875  0.16205403  0.11845883  1
  In  In7  1  0.33269830  0.15010771  0.63022580  1
  In  In8  1  0.34638523  0.50820261  0.11442988  1
  In  In9  1  0.34549892  0.51904790  0.63020000  1
  In  In10  1  0.31972283  0.83549697  0.13747210  1
  In  In11  1  0.35414203  0.81755711  0.63479567  1
  In  In12  1  0.66492313  0.18096131  0.12273428  1
  In  In13  1  0.67751574  0.17364924  0.61523245  1
  In  In14  1  0.67842154  0.51224281  0.11463252  1
  In  In15  1  0.66586400  0.49038472  0.64040412  1
  In  In16  1  0.66313294  0.81474465  0.12646246  1
  In  In17  1  0.64647498  0.80942205  0.59922311  1
  In  In18  1  0.18221300  -0.01073333  0.36575190  1
  In  In19  1  0.17324633  -0.01408773  0.88306414  1
  In  In20  1  0.15814169  0.34425622  0.37237879  1
  In  In21  1  0.15339402  0.34520273  0.88518261  1
  In  In22  1  0.17209280  0.66890532  0.36322067  1
  In  In23  1  0.16682965  0.66472769  0.87905057  1
  In  In24  1  0.49612589  -0.00006434  0.38063562  1
  In  In25  1  0.50061641  0.01452163  0.87274219  1
  In  In26  1  0.49381325  0.32097093  0.38043989  1
  In  In27  1  0.50375030  0.33001977  0.87515328  1
  In  In28  1  0.50656879  0.67116595  0.37388085  1
  In  In29  1  0.48831879  0.65044384  0.85510018  1
  In  In30  1  0.83091091  -0.00395373  0.38920343  1
  In  In31  1  0.82932787  -0.01792992  0.87234772  1
  In  In32  1  0.84340879  0.33611823  0.38611048  1
  In  In33  1  0.84695869  0.34572895  0.86253764  1
  In  In34  1  0.82235162  0.67211662  0.39107889  1
  In  In35  1  0.83421922  0.66360161  0.87270636  1
  In  In36  1  -0.00938316  0.17269807  0.37652743  1
  In  In37  1  -0.00173089  0.17882255  0.87288982  1
  In  In38  1  -0.00527468  0.49579104  0.37238778  1
  In  In39  1  0.00089550  0.50339323  0.87805112  1
  In  In40  1  -0.00380801  0.82711513  0.37491636  1
  In  In41  1  0.01551140  0.81011634  0.89267545  1
  In  In42  1  0.34649484  0.15585709  0.37844822  1
  In  In43  1  0.33730363  0.15903157  0.87704705  1
  In  In44  1  0.33056535  0.49913619  0.37197646  1
  In  In45  1  0.32498070  0.50798113  0.88289045  1
  In  In46  1  0.33579793  0.83797781  0.36540178  1
  In  In47  1  0.32898871  0.82458870  0.86917474  1
  In  In48  1  0.66761628  0.15787895  0.38969278  1
  In  In49  1  0.65224600  0.16962897  0.87335367  1
  In  In50  1  0.67364626  0.51817555  0.37920769  1
  In  In51  1  0.66745465  0.50325268  0.87085172  1
  In  In52  1  0.67495746  0.81991220  0.38968677  1
  In  In53  1  0.68187300  0.82147917  0.87982858  1
  In  In54  1  0.17318604  0.00387278  0.11858853  1
  In  In55  1  0.17810795  -0.00033515  0.62921557  1
  In  In56  1  0.16216205  0.32860705  0.11912774  1
  In  In57  1  0.15484570  0.33276131  0.63465245  1
  In  In58  1  0.17863987  0.67684072  0.10562198  1
  In  In59  1  0.17063109  0.66302288  0.63431788  1
  In  In60  1  0.48303109  -0.00412900  0.12476042  1
  In  In61  1  0.50051151  -0.01014710  0.61618841  1
  In  In62  1  0.49784850  0.33129495  0.11357037  1
  In  In63  1  0.52033428  0.34170739  0.62968452  1
  In  In64  1  0.50731386  0.66275481  0.12891363  1
  In  In65  1  0.49630093  0.66944068  0.63486694  1
  In  In66  1  0.84477339  -0.00500181  0.12741188  1
  In  In67  1  0.80802879  -0.01881807  0.60340404  1
  In  In68  1  0.83063711  0.35244993  0.12455155  1
  In  In69  1  0.83247195  0.33448336  0.62475270  1
  In  In70  1  0.83068340  0.65869766  0.11587802  1
  In  In71  1  0.83146394  0.66580096  0.62787059  1
  In  In72  1  0.15790681  0.17006093  0.50194689  1
  In  In73  1  0.16608918  0.83488110  0.48998803  1
  In  In74  1  0.00433324  0.66675770  0.23994400  1
  In  In75  1  0.83263090  0.16526457  -0.00497499  1
  In  In76  1  0.50483512  0.50279058  0.50388406  1
  In  In77  1  0.50118228  0.83060328  0.00125574  1
  In  In78  1  0.66283861  0.34249970  0.25695924  1
  In  In79  1  0.66272254  -0.00247800  0.74270613  1
  In  In80  1  0.00963538  -0.00159660  0.24425417  1
  In  In81  1  0.66353174  -0.00069637  0.26125988  1
  In  In82  1  0.33159091  0.33231888  0.25261450  1
  In  In83  1  0.32694817  0.33611385  0.75706171  1
  In  In84  1  0.16201497  0.50496026  0.50957373  1
  In  In85  1  -0.00368457  0.00042584  0.74127058  1
  Cu  Cu86  1  0.33418708  0.33159595  -0.00568758  1
  Cu  Cu87  1  0.84141229  0.18060966  0.25904455  1
  Cu  Cu88  1  0.16969707  0.82999475  0.75765893  1
  Cu  Cu89  1  0.83487493  0.49788299  0.75085980  1
  Cu  Cu90  1  0.33445652  0.00129318  0.00075973  1
  Cu  Cu91  1  0.49804442  0.82497561  0.25083530  1
  Cu  Cu92  1  0.50588467  0.84031915  0.74588497  1
  Cu  Cu93  1  0.17013455  0.16754158  0.24432304  1
  Cu  Cu94  1  0.83690861  0.50905667  0.24452911  1
  Cu  Cu95  1  0.82767596  0.82950561  0.25595253  1
  Cu  Cu96  1  -0.00214292  0.66609159  0.50157005  1
  Cu  Cu97  1  0.33668324  0.66896238  -0.00440166  1
  Cu  Cu98  1  0.66846279  0.33582969  0.50477437  1
  Cu  Cu99  1  0.82325165  0.16773856  0.74541126  1
  Cu  Cu100  1  0.66374420  0.00248905  -0.00392025  1
  Cu  Cu101  1  0.49789827  0.17093578  0.74935083  1
  Cu  Cu102  1  0.83614515  0.82466312  0.75054934  1
  Cu  Cu103  1  -0.00125856  0.33269013  -0.00173260  1
  Cu  Cu104  1  0.66630969  0.66057223  -0.00311620  1
  Cu  Cu105  1  0.66561557  0.33696431  -0.00532883  1
  Cu  Cu106  1  0.50682370  0.50641167  0.24421441  1
  Cu  Cu107  1  -0.00082525  0.00924780  0.50508651  1
  Cu  Cu108  1  0.00128946  -0.00306394  0.00230366  1
  Cu  Cu109  1  0.16367282  0.50438465  0.75953766  1
  Cu  Cu110  1  0.49537576  0.15662097  0.25076712  1
  Cu  Cu111  1  0.16863401  0.50074818  0.24504507  1
  Cu  Cu112  1  0.16221074  0.16355417  0.75252400  1
  Cu  Cu113  1  0.33413778  0.32871340  0.50451195  1
  Cu  Cu114  1  0.33838857  -0.00879399  0.50155931  1
  Se  Se115  1  0.08431104  0.08445019  0.05199896  1
  Se  Se116  1  0.07656988  0.08103718  0.57009884  1
  Se  Se117  1  0.08115221  0.41548871  0.05289491  1
  Se  Se118  1  0.07212024  0.40862687  0.56038849  1
  Se  Se119  1  0.06930275  0.72955620  0.04305735  1
  Se  Se120  1  0.08425628  0.74445728  0.55836728  1
  Se  Se121  1  0.41917997  0.08583878  0.05192945  1
  Se  Se122  1  0.41416508  0.08118069  0.55479154  1
  Se  Se123  1  0.41953990  0.41654743  0.04601325  1
  Se  Se124  1  0.41011740  0.41237529  0.56415476  1
  Se  Se125  1  0.41018766  0.74664997  0.06362011  1
  Se  Se126  1  0.42920414  0.75090527  0.55640617  1
  Se  Se127  1  0.74539222  0.07756919  0.06191501  1
  Se  Se128  1  0.75550109  0.09261620  0.54527882  1
  Se  Se129  1  0.75128588  0.41905028  0.04704849  1
  Se  Se130  1  0.74401587  0.42066393  0.56152280  1
  Se  Se131  1  0.74600843  0.74826529  0.05120349  1
  Se  Se132  1  0.77186145  0.76253317  0.55660766  1
  Se  Se133  1  0.25032729  0.25073113  0.05121361  1
  Se  Se134  1  0.25138195  0.25400101  0.56640329  1
  Se  Se135  1  0.25460674  0.57881851  0.04510625  1
  Se  Se136  1  0.26156865  0.59748955  0.55587094  1
  Se  Se137  1  0.25639318  0.91380223  0.05528498  1
  Se  Se138  1  0.25648241  0.91136132  0.55987249  1
  Se  Se139  1  0.58463762  0.24939184  0.04681213  1
  Se  Se140  1  0.58001881  0.25346773  0.55401880  1
  Se  Se141  1  0.57817569  0.58257654  0.05178810  1
  Se  Se142  1  0.59124449  0.58583727  0.56859300  1
  Se  Se143  1  0.59049288  0.92273797  0.06304992  1
  Se  Se144  1  0.60100737  0.93136959  0.54979928  1
  Se  Se145  1  0.91767177  0.25359781  0.06103269  1
  Se  Se146  1  0.91080772  0.25077663  0.55321199  1
  Se  Se147  1  0.91428832  0.58580585  0.04501826  1
  Se  Se148  1  0.91909033  0.58392843  0.55876412  1
  Se  Se149  1  0.91169720  0.91575241  0.05072055  1
  Se  Se150  1  0.92147064  0.91499864  0.55165804  1
  Se  Se151  1  0.07252677  0.26594394  0.44526610  1
  Se  Se152  1  0.08176761  0.24512108  0.94906893  1
  Se  Se153  1  0.08164442  0.59387705  0.43785332  1
  Se  Se154  1  0.08063995  0.58684085  0.94728984  1
  Se  Se155  1  0.07446430  0.93389685  0.43665065  1
  Se  Se156  1  0.08742227  0.91103771  0.95361625  1
  Se  Se157  1  0.41455918  0.24268246  0.45274445  1
  Se  Se158  1  0.41836821  0.24765877  0.94234464  1
  Se  Se159  1  0.41139633  0.58415912  0.44080644  1
  Se  Se160  1  0.42313466  0.58794062  0.94314131  1
  Se  Se161  1  0.41516193  0.90736448  0.44379479  1
  Se  Se162  1  0.41469039  0.92182554  0.93887186  1
  Se  Se163  1  0.74905618  0.25505730  0.44622144  1
  Se  Se164  1  0.74838522  0.25750159  0.93394164  1
  Se  Se165  1  0.75788277  0.57441874  0.45737861  1
  Se  Se166  1  0.75272140  0.57987291  0.94364953  1
  Se  Se167  1  0.73462912  0.92628220  0.45135012  1
  Se  Se168  1  0.74821819  0.91590582  0.95001964  1
  Se  Se169  1  0.25120122  0.07325592  0.44668442  1
  Se  Se170  1  0.24928146  0.08226741  0.94608935  1
  Se  Se171  1  0.25457499  0.40998482  0.44674189  1
  Se  Se172  1  0.24730625  0.41904639  0.94988006  1
  Se  Se173  1  0.25807407  0.74155639  0.43730138  1
  Se  Se174  1  0.25106419  0.75357480  0.94594383  1
  Se  Se175  1  0.56538763  0.09240473  0.44856785  1
  Se  Se176  1  0.58008029  0.08803123  0.94857813  1
  Se  Se177  1  0.58904537  0.41004385  0.43815439  1
  Se  Se178  1  0.58345555  0.42004869  0.94063219  1
  Se  Se179  1  0.58919909  0.73348259  0.45193726  1
  Se  Se180  1  0.58183361  0.73868120  0.93766292  1
  Se  Se181  1  0.91699182  0.08831833  0.44770376  1
  Se  Se182  1  0.92268148  0.07180515  0.93629113  1
  Se  Se183  1  0.91173435  0.43518601  0.44952847  1
  Se  Se184  1  0.91563347  0.41511477  0.94445517  1
  Se  Se185  1  0.91803771  0.75572295  0.45000172  1
  Se  Se186  1  0.88888499  0.77200976  0.93744725  1
  Se  Se187  1  0.24472069  0.24097313  0.31553722  1
  Se  Se188  1  0.23696867  0.24560290  0.81621509  1
  Se  Se189  1  0.25363151  0.57945191  0.29944986  1
  Se  Se190  1  0.25200876  0.58763287  0.80683372  1
  Se  Se191  1  0.24822849  0.90742303  0.29220309  1
  Se  Se192  1  0.25259095  0.91951356  0.80411959  1
  Se  Se193  1  0.57826071  0.23688779  0.30880370  1
  Se  Se194  1  0.58365480  0.25383267  0.79891404  1
  Se  Se195  1  0.58687093  0.58394958  0.30449148  1
  Se  Se196  1  0.60554286  0.60211411  0.80191635  1
  Se  Se197  1  0.57767403  0.90179230  0.31518534  1
  Se  Se198  1  0.58324690  0.91090940  0.81507755  1
  Se  Se199  1  0.92385600  0.26689511  0.30693819  1
  Se  Se200  1  0.91398094  0.24505325  0.79738193  1
  Se  Se201  1  0.91211018  0.59127780  0.30806729  1
  Se  Se202  1  0.91872920  0.58101615  0.80477405  1
  Se  Se203  1  0.90970666  0.91723018  0.30728544  1
  Se  Se204  1  0.92154619  0.90434781  0.80687539  1
  Se  Se205  1  0.09140410  0.09151180  0.31092148  1
  Se  Se206  1  0.08358250  0.07956778  0.81226197  1
  Se  Se207  1  0.08178267  0.42330838  0.29949390  1
  Se  Se208  1  0.07939401  0.41594182  0.80609478  1
  Se  Se209  1  0.08874474  0.76463428  0.30079780  1
  Se  Se210  1  0.08350042  0.74673821  0.80734984  1
  Se  Se211  1  0.41354246  0.07230929  0.30290335  1
  Se  Se212  1  0.41521262  0.08455620  0.79933728  1
  Se  Se213  1  0.43234671  0.42157486  0.30657862  1
  Se  Se214  1  0.41678721  0.42531544  0.81404189  1
  Se  Se215  1  0.41471155  0.74139057  0.30403025  1
  Se  Se216  1  0.41988592  0.75698810  0.79821050  1
  Se  Se217  1  0.76201043  0.09290000  0.31241355  1
  Se  Se218  1  0.75196781  0.08570414  0.80989279  1
  Se  Se219  1  0.76044427  0.42970591  0.30973951  1
  Se  Se220  1  0.74621724  0.41452837  0.80105185  1
  Se  Se221  1  0.74961714  0.74562125  0.31116058  1
  Se  Se222  1  0.74767877  0.74353340  0.80067062  1
  Se  Se223  1  0.25219123  0.08212541  0.19376930  1
  Se  Se224  1  0.24954293  0.08007043  0.70517351  1
  Se  Se225  1  0.25121738  0.42063246  0.18545527  1
  Se  Se226  1  0.24317005  0.43012362  0.69179282  1
  Se  Se227  1  0.24279479  0.73585752  0.19357019  1
  Se  Se228  1  0.25290610  0.75051375  0.69887549  1
  Se  Se229  1  0.58273345  0.08597448  0.18937485  1
  Se  Se230  1  0.57725625  0.09325203  0.68531921  1
  Se  Se231  1  0.58086935  0.42160637  0.18392215  1
  Se  Se232  1  0.56645127  0.42918403  0.70858956  1
  Se  Se233  1  0.58654763  0.74293465  0.20249058  1
  Se  Se234  1  0.59014681  0.75754195  0.69305897  1
  Se  Se235  1  0.91271798  0.09719911  0.19461208  1
  Se  Se236  1  0.89267183  0.07752153  0.68479607  1
  Se  Se237  1  0.91979984  0.42268756  0.19475591  1
  Se  Se238  1  0.91695559  0.41186612  0.69765955  1
  Se  Se239  1  0.90710301  0.75924482  0.18811656  1
  Se  Se240  1  0.92206450  0.74070905  0.70015390  1
  Se  Se241  1  0.08560188  0.25557068  0.19863523  1
  Se  Se242  1  0.07694784  0.24618801  0.70230337  1
  Se  Se243  1  0.09205690  0.57726011  0.18017148  1
  Se  Se244  1  0.08243659  0.58478031  0.70015043  1
  Se  Se245  1  0.08654052  0.90575875  0.17986565  1
  Se  Se246  1  0.09161392  0.90293040  0.68919991  1
  Se  Se247  1  0.42282713  0.24474316  0.19114973  1
  Se  Se248  1  0.41519701  0.25155937  0.68977774  1
  Se  Se249  1  0.41493804  0.58360264  0.19453388  1
  Se  Se250  1  0.42038852  0.58716305  0.70741104  1
  Se  Se251  1  0.41694124  0.91238475  0.19971453  1
  Se  Se252  1  0.42010416  0.92365531  0.69546689  1
  Se  Se253  1  0.75699811  0.25171316  0.19610756  1
  Se  Se254  1  0.74287376  0.25466113  0.69379357  1
  Se  Se255  1  0.74911975  0.58923542  0.19332610  1
  Se  Se256  1  0.75237343  0.58288281  0.69895917  1
  Se  Se257  1  0.75119871  0.91286516  0.19409779  1
  Se  Se258  1  0.75416069  0.90360784  0.69060279  1
