# generated using pymatgen
data_In86Cu29Se144
_symmetry_space_group_name_H-M   'P 1'
_cell_length_a   17.58430258
_cell_length_b   17.58405525
_cell_length_c   23.45117329
_cell_angle_alpha   90.02232421
_cell_angle_beta   90.01471909
_cell_angle_gamma   89.98684363
_symmetry_Int_Tables_number   1
_chemical_formula_structural   In86Cu29Se144
_chemical_formula_sum   'In86 Cu29 Se144'
_cell_volume   7251.18031608
_cell_formula_units_Z   1
loop_
 _symmetry_equiv_pos_site_id
 _symmetry_equiv_pos_as_xyz
  1  'x, y, z'
loop_
 _atom_site_type_symbol
 _atom_site_label
 _atom_site_symmetry_multiplicity
 _atom_site_fract_x
 _atom_site_fract_y
 _atom_site_fract_z
 _atom_site_occupancy
  In  In0  1  -0.01255630  0.16529079  0.12412861  1
  In  In1  1  -0.00967370  0.16013928  0.61638835  1
  In  In2  1  0.00709950  0.52099237  0.10318187  1
  In  In3  1  0.00023543  0.50575823  0.62313896  1
  In  In4  1  0.00988499  0.82316457  0.14546385  1
  In  In5  1  -0.00992106  0.84243548  0.63101361  1
  In  In6  1  0.33991178  0.15581804  0.12028161  1
  In  In7  1  0.31817861  0.16153455  0.62165494  1
  In  In8  1  0.35602628  0.52423415  0.11482904  1
  In  In9  1  0.33236131  0.51330241  0.62818779  1
  In  In10  1  0.34028832  0.80944704  0.13500607  1
  In  In11  1  0.34419857  0.82523114  0.63008256  1
  In  In12  1  0.67936982  0.17492340  0.11685322  1
  In  In13  1  0.66777868  0.15448186  0.62826642  1
  In  In14  1  0.65276995  0.49431987  0.11721552  1
  In  In15  1  0.68315128  0.50753813  0.62892402  1
  In  In16  1  0.66507086  0.84086810  0.12126545  1
  In  In17  1  0.66943244  0.82937741  0.62555578  1
  In  In18  1  0.16290460  0.00729706  0.38306318  1
  In  In19  1  0.15925969  -0.01190151  0.86486306  1
  In  In20  1  0.15900345  0.33731168  0.38188468  1
  In  In21  1  0.17642995  0.34048843  0.87650672  1
  In  In22  1  0.15414105  0.66205978  0.36792807  1
  In  In23  1  0.15788274  0.65702963  0.86960601  1
  In  In24  1  0.49255973  -0.00890364  0.37719892  1
  In  In25  1  0.50395095  -0.00507072  0.87484946  1
  In  In26  1  0.50321301  0.33007452  0.36303476  1
  In  In27  1  0.50434883  0.33661318  0.88445599  1
  In  In28  1  0.49994449  0.67882950  0.36673637  1
  In  In29  1  0.50080019  0.67358027  0.88154722  1
  In  In30  1  0.84487096  -0.01638456  0.38705088  1
  In  In31  1  0.83827473  0.00470961  0.86905756  1
  In  In32  1  0.82741948  0.33940908  0.37876542  1
  In  In33  1  0.82619969  0.34153232  0.87924905  1
  In  In34  1  0.83408538  0.66127963  0.38098107  1
  In  In35  1  0.83514481  0.66309084  0.87003239  1
  In  In36  1  0.00179121  0.15753676  0.38361325  1
  In  In37  1  -0.00717752  0.15314816  0.87417055  1
  In  In38  1  -0.00418196  0.50721528  0.37844884  1
  In  In39  1  -0.01404016  0.52581901  0.89190090  1
  In  In40  1  -0.02003548  0.81417992  0.35533631  1
  In  In41  1  -0.00539732  0.82982786  0.86360557  1
  In  In42  1  0.33044436  0.15412643  0.37762823  1
  In  In43  1  0.34588805  0.16414987  0.87755572  1
  In  In44  1  0.31830867  0.50113939  0.37132901  1
  In  In45  1  0.32191979  0.51205280  0.88314031  1
  In  In46  1  0.34472785  0.82933401  0.37630162  1
  In  In47  1  0.33999868  0.83879750  0.86939277  1
  In  In48  1  0.66642683  0.17954105  0.37220919  1
  In  In49  1  0.67569426  0.15832473  0.87778371  1
  In  In50  1  0.68261510  0.50835231  0.37099938  1
  In  In51  1  0.66954557  0.51736231  0.88883933  1
  In  In52  1  0.66342987  0.83168697  0.38273005  1
  In  In53  1  0.65494224  0.81847255  0.87271045  1
  In  In54  1  0.16176557  -0.02096102  0.13080791  1
  In  In55  1  0.15575948  0.00364311  0.63018215  1
  In  In56  1  0.15177253  0.34318070  0.12712026  1
  In  In57  1  0.15860576  0.33035556  0.61537091  1
  In  In58  1  0.17118208  0.66767980  0.12969801  1
  In  In59  1  0.17153746  0.66085744  0.62846821  1
  In  In60  1  0.49599720  -0.00091863  0.11179596  1
  In  In61  1  0.51511240  -0.01598350  0.63452264  1
  In  In62  1  0.51946220  0.34708169  0.11726240  1
  In  In63  1  0.50506798  0.33704743  0.62830161  1
  In  In64  1  0.49909077  0.66359738  0.11850863  1
  In  In65  1  0.49361284  0.67706178  0.63330440  1
  In  In66  1  0.83080333  -0.00005799  0.12595352  1
  In  In67  1  0.83227739  -0.00140592  0.62451509  1
  In  In68  1  0.83138867  0.33089322  0.12282050  1
  In  In69  1  0.84016700  0.34137873  0.61817148  1
  In  In70  1  0.84305542  0.67083316  0.12110944  1
  In  In71  1  0.83299533  0.66735004  0.62824655  1
  In  In72  1  0.50065031  0.15958589  0.49598476  1
  In  In73  1  0.16785583  0.16863105  0.00099353  1
  In  In74  1  0.16874037  0.82937515  0.00864062  1
  In  In75  1  0.83135182  0.83118188  -0.00170906  1
  In  In76  1  0.50185177  0.50140042  0.49785896  1
  In  In77  1  0.33035813  -0.00402915  0.25099905  1
  In  In78  1  0.33632552  0.33098120  0.75237884  1
  In  In79  1  0.67014301  -0.00534383  0.25099429  1
  In  In80  1  0.00073247  0.33933216  0.74453024  1
  In  In81  1  -0.00849087  0.33725641  0.25281905  1
  In  In82  1  0.66692532  0.66488932  0.24484691  1
  In  In83  1  0.16174209  0.83437049  0.50071947  1
  In  In84  1  0.33703970  0.34013129  0.24519136  1
  In  In85  1  0.66880588  0.33685562  0.76192471  1
  Cu  Cu86  1  -0.00165548  0.33415369  0.49690217  1
  Cu  Cu87  1  0.49647083  0.15299355  0.75194740  1
  Cu  Cu88  1  0.33477285  0.67042000  -0.00057226  1
  Cu  Cu89  1  0.82976684  0.16181609  0.24768588  1
  Cu  Cu90  1  0.83497653  0.16594796  0.74561733  1
  Cu  Cu91  1  0.66699611  0.32965224  -0.00181146  1
  Cu  Cu92  1  -0.00280293  -0.00264864  0.50300245  1
  Cu  Cu93  1  -0.00209235  0.33197590  0.00235483  1
  Cu  Cu94  1  -0.00675637  -0.00351574  -0.00039771  1
  Cu  Cu95  1  0.83794904  0.49994093  0.24923315  1
  Cu  Cu96  1  -0.00271580  0.66697126  0.49792957  1
  Cu  Cu97  1  0.66907075  0.66821117  0.50168329  1
  Cu  Cu98  1  0.83102383  0.83662542  0.74804404  1
  Cu  Cu99  1  0.66581688  0.00295627  -0.00269625  1
  Cu  Cu100  1  0.16583889  0.16588085  0.25906898  1
  Cu  Cu101  1  0.17298521  0.82801674  0.74565545  1
  Cu  Cu102  1  0.33861354  -0.00219770  -0.00634704  1
  Cu  Cu103  1  0.16604343  0.50186352  0.75023818  1
  Cu  Cu104  1  0.33554449  0.33878174  0.00185906  1
  Cu  Cu105  1  0.50342874  0.83104662  0.75347120  1
  Cu  Cu106  1  0.50324354  0.51118503  0.76027012  1
  Cu  Cu107  1  0.32683642  0.33517227  0.49788032  1
  Cu  Cu108  1  0.67257922  0.33442834  0.49868873  1
  Cu  Cu109  1  0.16471783  0.15366943  0.74872141  1
  Cu  Cu110  1  0.16896580  0.50991751  0.24298257  1
  Cu  Cu111  1  0.33440469  -0.00453105  0.50131504  1
  Cu  Cu112  1  0.33042391  0.66455329  0.50481747  1
  Cu  Cu113  1  0.67197982  -0.00469415  0.50715298  1
  Cu  Cu114  1  0.51144194  0.16904022  0.24175618  1
  Se  Se115  1  0.08003568  0.07321536  0.05940584  1
  Se  Se116  1  0.08436697  0.08126500  0.55251622  1
  Se  Se117  1  0.08525701  0.41816431  0.04757621  1
  Se  Se118  1  0.07843779  0.41970916  0.55244767  1
  Se  Se119  1  0.07023140  0.74249036  0.06038069  1
  Se  Se120  1  0.07488910  0.74480049  0.56295457  1
  Se  Se121  1  0.41956606  0.08800878  0.04307880  1
  Se  Se122  1  0.41750861  0.07387351  0.56317154  1
  Se  Se123  1  0.42212789  0.42016987  0.05357829  1
  Se  Se124  1  0.40941035  0.40969860  0.55937499  1
  Se  Se125  1  0.41800970  0.75524800  0.05147101  1
  Se  Se126  1  0.41807888  0.74723009  0.55330116  1
  Se  Se127  1  0.75412121  0.07954309  0.05229472  1
  Se  Se128  1  0.75208026  0.08624501  0.55441731  1
  Se  Se129  1  0.74658464  0.41248359  0.05522760  1
  Se  Se130  1  0.74914991  0.42123997  0.55384008  1
  Se  Se131  1  0.73939001  0.74257122  0.05683943  1
  Se  Se132  1  0.75347887  0.75005149  0.55528169  1
  Se  Se133  1  0.25475275  0.25995286  0.06402068  1
  Se  Se134  1  0.24695037  0.24820421  0.55037634  1
  Se  Se135  1  0.24965920  0.59009094  0.05518987  1
  Se  Se136  1  0.24639861  0.57887114  0.55319627  1
  Se  Se137  1  0.26492176  0.92191143  0.06177010  1
  Se  Se138  1  0.25404258  0.91805066  0.56403874  1
  Se  Se139  1  0.58256573  0.24539709  0.05137506  1
  Se  Se140  1  0.58881336  0.25498489  0.55707598  1
  Se  Se141  1  0.58338112  0.58710267  0.04943947  1
  Se  Se142  1  0.58651646  0.58887707  0.56251875  1
  Se  Se143  1  0.58398252  0.91636508  0.04798393  1
  Se  Se144  1  0.58393043  0.91101861  0.55427770  1
  Se  Se145  1  0.91356894  0.24739715  0.05215737  1
  Se  Se146  1  0.91446520  0.25163858  0.55080954  1
  Se  Se147  1  0.89603292  0.57735549  0.04395413  1
  Se  Se148  1  0.91432664  0.58613607  0.55530092  1
  Se  Se149  1  0.92493125  0.91190397  0.06399978  1
  Se  Se150  1  0.91228265  0.91359400  0.55394283  1
  Se  Se151  1  0.08351615  0.24749768  0.44796822  1
  Se  Se152  1  0.07620375  0.25359554  0.93753038  1
  Se  Se153  1  0.08432575  0.58531424  0.44656872  1
  Se  Se154  1  0.09619074  0.58114972  0.95104366  1
  Se  Se155  1  0.06861840  0.91498729  0.43810727  1
  Se  Se156  1  0.07613557  0.91573356  0.94305579  1
  Se  Se157  1  0.41105397  0.25787730  0.43860942  1
  Se  Se158  1  0.41497118  0.25333155  0.94789538  1
  Se  Se159  1  0.40930365  0.58844704  0.43880536  1
  Se  Se160  1  0.41753956  0.58378392  0.94766804  1
  Se  Se161  1  0.41857821  0.91114563  0.45126571  1
  Se  Se162  1  0.42165325  0.91075804  0.94461910  1
  Se  Se163  1  0.75209573  0.24686516  0.44654256  1
  Se  Se164  1  0.75264384  0.24817837  0.94480311  1
  Se  Se165  1  0.75127885  0.58011634  0.45160318  1
  Se  Se166  1  0.77657937  0.57880203  0.95097810  1
  Se  Se167  1  0.75030897  0.90903384  0.45114119  1
  Se  Se168  1  0.74487088  0.92152005  0.93569348  1
  Se  Se169  1  0.25093453  0.08307126  0.45321068  1
  Se  Se170  1  0.24841668  0.07239713  0.93815565  1
  Se  Se171  1  0.24538732  0.42144626  0.44661713  1
  Se  Se172  1  0.24837922  0.41985042  0.95137256  1
  Se  Se173  1  0.25142658  0.74342844  0.44143211  1
  Se  Se174  1  0.25254682  0.74796669  0.93793713  1
  Se  Se175  1  0.59551481  0.07090071  0.43847133  1
  Se  Se176  1  0.58141186  0.08525437  0.94338638  1
  Se  Se177  1  0.58962118  0.40942044  0.43688923  1
  Se  Se178  1  0.58780139  0.42150400  0.94891443  1
  Se  Se179  1  0.57988756  0.74317215  0.44658242  1
  Se  Se180  1  0.58703457  0.74747945  0.95305536  1
  Se  Se181  1  0.91163950  0.08363042  0.45206995  1
  Se  Se182  1  0.91072505  0.08182121  0.94879575  1
  Se  Se183  1  0.91563704  0.41929689  0.44446840  1
  Se  Se184  1  0.91876117  0.41497072  0.94564627  1
  Se  Se185  1  0.91731184  0.75243143  0.44405289  1
  Se  Se186  1  0.92830663  0.74644116  0.94154885  1
  Se  Se187  1  0.24866966  0.24968669  0.31126761  1
  Se  Se188  1  0.24218008  0.23678493  0.80860445  1
  Se  Se189  1  0.25000911  0.59033597  0.29990871  1
  Se  Se190  1  0.25269243  0.58393206  0.80169072  1
  Se  Se191  1  0.24401904  0.91342208  0.31709756  1
  Se  Se192  1  0.25227276  0.91493769  0.79979885  1
  Se  Se193  1  0.59100984  0.25423191  0.29487207  1
  Se  Se194  1  0.57267425  0.24073129  0.81050294  1
  Se  Se195  1  0.57810094  0.57537904  0.30758076  1
  Se  Se196  1  0.58804621  0.59006568  0.81376252  1
  Se  Se197  1  0.57385861  0.90637068  0.30712095  1
  Se  Se198  1  0.58821910  0.91550713  0.80475270  1
  Se  Se199  1  0.90945350  0.24037941  0.31185754  1
  Se  Se200  1  0.91059122  0.24873707  0.80731809  1
  Se  Se201  1  0.91514258  0.58477966  0.30601400  1
  Se  Se202  1  0.92945615  0.58947904  0.80411767  1
  Se  Se203  1  0.91358386  0.92444689  0.30174203  1
  Se  Se204  1  0.91764392  0.92122023  0.79885464  1
  Se  Se205  1  0.08172880  0.08244219  0.30886016  1
  Se  Se206  1  0.07583972  0.07794478  0.80243895  1
  Se  Se207  1  0.09184344  0.42666172  0.30439156  1
  Se  Se208  1  0.08722664  0.42291463  0.81112226  1
  Se  Se209  1  0.08836894  0.75424737  0.29831248  1
  Se  Se210  1  0.08657210  0.74936502  0.80121638  1
  Se  Se211  1  0.42945379  0.09243645  0.30389468  1
  Se  Se212  1  0.41233063  0.07405424  0.80651958  1
  Se  Se213  1  0.42348732  0.43180884  0.30558529  1
  Se  Se214  1  0.42129078  0.42376582  0.81348425  1
  Se  Se215  1  0.40876708  0.74814468  0.29865641  1
  Se  Se216  1  0.41860302  0.74653145  0.80531455  1
  Se  Se217  1  0.75540784  0.08416485  0.31410476  1
  Se  Se218  1  0.75069269  0.08429248  0.80007429  1
  Se  Se219  1  0.75345216  0.41665310  0.30145693  1
  Se  Se220  1  0.75689633  0.43667590  0.81023893  1
  Se  Se221  1  0.75104779  0.75181223  0.31171712  1
  Se  Se222  1  0.75420332  0.75303417  0.80637202  1
  Se  Se223  1  0.24085302  0.09056575  0.19143845  1
  Se  Se224  1  0.25344918  0.07566190  0.69653022  1
  Se  Se225  1  0.24812495  0.42867870  0.18374757  1
  Se  Se226  1  0.24237634  0.41561894  0.69031131  1
  Se  Se227  1  0.21928807  0.78125289  0.19121798  1
  Se  Se228  1  0.25650705  0.74313118  0.69532125  1
  Se  Se229  1  0.58457952  0.08209577  0.18350689  1
  Se  Se230  1  0.58845212  0.07826358  0.70075239  1
  Se  Se231  1  0.58639234  0.41801767  0.19771272  1
  Se  Se232  1  0.57811950  0.42760040  0.69828588  1
  Se  Se233  1  0.57787837  0.75939670  0.18953688  1
  Se  Se234  1  0.58785763  0.74921672  0.69859691  1
  Se  Se235  1  0.91472083  0.08066111  0.19590855  1
  Se  Se236  1  0.91843886  0.08206250  0.69310434  1
  Se  Se237  1  0.91924256  0.42791187  0.18322395  1
  Se  Se238  1  0.90406746  0.43095916  0.69460872  1
  Se  Se239  1  0.91362094  0.74134168  0.20064277  1
  Se  Se240  1  0.91669467  0.75084272  0.69801685  1
  Se  Se241  1  0.08546925  0.24214691  0.19562371  1
  Se  Se242  1  0.08812076  0.23918800  0.69008908  1
  Se  Se243  1  0.07654826  0.58315385  0.18955031  1
  Se  Se244  1  0.08209582  0.58301340  0.69570279  1
  Se  Se245  1  0.06695004  0.93345815  0.20496134  1
  Se  Se246  1  0.08416275  0.91328358  0.69884026  1
  Se  Se247  1  0.42399775  0.24607014  0.18523523  1
  Se  Se248  1  0.42419820  0.23838262  0.68988565  1
  Se  Se249  1  0.41075454  0.60378710  0.19607626  1
  Se  Se250  1  0.41762491  0.58398719  0.69991636  1
  Se  Se251  1  0.42494034  0.91419322  0.19008780  1
  Se  Se252  1  0.41820706  0.91436203  0.69985976  1
  Se  Se253  1  0.75182655  0.24995297  0.19558795  1
  Se  Se254  1  0.75395086  0.25241867  0.69060992  1
  Se  Se255  1  0.75612027  0.57436638  0.18537892  1
  Se  Se256  1  0.74262771  0.59819140  0.70047053  1
  Se  Se257  1  0.76150250  0.90147126  0.19544373  1
  Se  Se258  1  0.74738486  0.91891716  0.69377281  1
