# generated using pymatgen
data_In86Cu29Se144
_symmetry_space_group_name_H-M   'P 1'
_cell_length_a   17.58989815
_cell_length_b   17.58526455
_cell_length_c   23.44901787
_cell_angle_alpha   89.99364104
_cell_angle_beta   90.02449866
_cell_angle_gamma   90.01423830
_symmetry_Int_Tables_number   1
_chemical_formula_structural   In86Cu29Se144
_chemical_formula_sum   'In86 Cu29 Se144'
_cell_volume   7253.31991304
_cell_formula_units_Z   1
loop_
 _symmetry_equiv_pos_site_id
 _symmetry_equiv_pos_as_xyz
  1  'x, y, z'
loop_
 _atom_site_type_symbol
 _atom_site_label
 _atom_site_symmetry_multiplicity
 _atom_site_fract_x
 _atom_site_fract_y
 _atom_site_fract_z
 _atom_site_occupancy
  In  In0  1  -0.00214041  0.17074358  0.12321655  1
  In  In1  1  0.00339164  0.15516170  0.63504914  1
  In  In2  1  0.01114729  0.49244637  0.13688248  1
  In  In3  1  0.00035487  0.50814456  0.61896945  1
  In  In4  1  0.00365091  0.83178893  0.13486060  1
  In  In5  1  0.00342009  0.83377152  0.62828886  1
  In  In6  1  0.32672183  0.18371554  0.12313324  1
  In  In7  1  0.33378481  0.17570979  0.61171800  1
  In  In8  1  0.33148296  0.49454138  0.11666927  1
  In  In9  1  0.33173188  0.50031678  0.62315500  1
  In  In10  1  0.33636175  0.81699160  0.12469471  1
  In  In11  1  0.31307636  0.83419795  0.62536886  1
  In  In12  1  0.68004473  0.16034399  0.12591596  1
  In  In13  1  0.67942973  0.21251872  0.61753601  1
  In  In14  1  0.66258517  0.50771693  0.13440765  1
  In  In15  1  0.67492275  0.49541474  0.61725751  1
  In  In16  1  0.66026616  0.83279119  0.12180188  1
  In  In17  1  0.67631663  0.81809485  0.62261969  1
  In  In18  1  0.15370705  0.01720793  0.37998248  1
  In  In19  1  0.16214832  0.01186564  0.87721417  1
  In  In20  1  0.14001239  0.35493429  0.39926530  1
  In  In21  1  0.15391902  0.34213276  0.87847070  1
  In  In22  1  0.15096389  0.66615765  0.39095736  1
  In  In23  1  0.15606283  0.64523237  0.85752705  1
  In  In24  1  0.51190490  0.00549108  0.37399585  1
  In  In25  1  0.48612731  -0.00521021  0.87492586  1
  In  In26  1  0.50919187  0.33459330  0.38356198  1
  In  In27  1  0.51478322  0.33535889  0.87156887  1
  In  In28  1  0.49680983  0.64702780  0.37620815  1
  In  In29  1  0.49358479  0.66546510  0.87974562  1
  In  In30  1  0.83667390  -0.01323182  0.37849475  1
  In  In31  1  0.85395810  0.00726593  0.86406234  1
  In  In32  1  0.83580054  0.33721355  0.37095703  1
  In  In33  1  0.83012562  0.32497462  0.85971655  1
  In  In34  1  0.84123207  0.66605300  0.37900588  1
  In  In35  1  0.83670398  0.65613053  0.86853038  1
  In  In36  1  0.00462923  0.17986321  0.36946526  1
  In  In37  1  0.00050578  0.17200108  0.87219218  1
  In  In38  1  0.00049448  0.49803108  0.37953639  1
  In  In39  1  0.00802121  0.49439654  0.86427953  1
  In  In40  1  -0.00322829  0.83362154  0.37971172  1
  In  In41  1  -0.00493759  0.83506367  0.86284240  1
  In  In42  1  0.31869318  0.19807443  0.39648214  1
  In  In43  1  0.32627507  0.15238503  0.87533462  1
  In  In44  1  0.32325381  0.49500300  0.39337699  1
  In  In45  1  0.32341033  0.50805237  0.87677167  1
  In  In46  1  0.32497190  0.81766923  0.37871459  1
  In  In47  1  0.34190069  0.82781800  0.87678109  1
  In  In48  1  0.65574676  0.17077036  0.37910704  1
  In  In49  1  0.66448123  0.18422936  0.87258032  1
  In  In50  1  0.66698653  0.49888308  0.37359648  1
  In  In51  1  0.67126774  0.48574404  0.87471401  1
  In  In52  1  0.68875343  0.83328874  0.38061400  1
  In  In53  1  0.66589062  0.81924647  0.87612155  1
  In  In54  1  0.14882103  0.00405168  0.12918325  1
  In  In55  1  0.15986669  -0.01141627  0.61814375  1
  In  In56  1  0.16168426  0.33465536  0.11786016  1
  In  In57  1  0.16363479  0.33098389  0.62018703  1
  In  In58  1  0.16628980  0.65383974  0.12808731  1
  In  In59  1  0.15735725  0.66982723  0.62565491  1
  In  In60  1  0.51667032  -0.00160781  0.12215701  1
  In  In61  1  0.48733369  0.00588978  0.62577177  1
  In  In62  1  0.49583426  0.34656185  0.12677896  1
  In  In63  1  0.51629896  0.35818984  0.60630025  1
  In  In64  1  0.50120103  0.66492179  0.12155675  1
  In  In65  1  0.50194310  0.64552650  0.62179121  1
  In  In66  1  0.83209960  0.01573996  0.12153385  1
  In  In67  1  0.84913835  0.00376772  0.63301441  1
  In  In68  1  0.84287216  0.32664600  0.13131171  1
  In  In69  1  0.82942923  0.33860746  0.63631757  1
  In  In70  1  0.84182589  0.65704310  0.13566368  1
  In  In71  1  0.87101649  0.68784408  0.59094236  1
  In  In72  1  0.17475568  0.83348643  -0.00233091  1
  In  In73  1  0.49942840  0.83439267  0.49878435  1
  In  In74  1  0.83440332  0.16877234  0.50235731  1
  In  In75  1  0.66878512  0.00235410  0.74020029  1
  In  In76  1  0.32509154  0.65643045  0.26220127  1
  In  In77  1  0.67670700  0.65403335  0.74564080  1
  In  In78  1  0.33603900  0.00129743  0.25421687  1
  In  In79  1  0.32569224  -0.00320893  0.75148729  1
  In  In80  1  0.67772849  -0.00348724  0.24932564  1
  In  In81  1  0.49657531  0.16982301  -0.00147905  1
  In  In82  1  0.83598576  0.49664887  0.00076563  1
  In  In83  1  0.32256317  0.34055965  0.25303607  1
  In  In84  1  0.32624092  0.33644803  0.74236350  1
  In  In85  1  0.83038996  0.83599993  -0.00283561  1
  Cu  Cu86  1  0.66817047  -0.00024515  -0.00151403  1
  Cu  Cu87  1  0.33156764  -0.00321636  -0.00013957  1
  Cu  Cu88  1  0.49987627  0.49551231  0.74384540  1
  Cu  Cu89  1  0.50128411  0.82386092  0.75539315  1
  Cu  Cu90  1  0.65668713  0.66543510  0.00419850  1
  Cu  Cu91  1  0.67043490  0.00493155  0.50682438  1
  Cu  Cu92  1  0.15671704  0.17193200  0.24932331  1
  Cu  Cu93  1  0.50144653  0.49758240  0.25295122  1
  Cu  Cu94  1  0.16047459  0.82884227  0.74502351  1
  Cu  Cu95  1  -0.00145711  0.00926529  -0.00063777  1
  Cu  Cu96  1  0.33636937  0.66145956  -0.00074702  1
  Cu  Cu97  1  0.00261791  -0.00075096  0.50528404  1
  Cu  Cu98  1  0.32732820  0.33561410  -0.00355770  1
  Cu  Cu99  1  0.15863712  0.83343243  0.25931895  1
  Cu  Cu100  1  0.50805659  0.82563283  0.24334951  1
  Cu  Cu101  1  0.66872513  0.33429820  -0.00070913  1
  Cu  Cu102  1  0.83686754  0.16906015  0.24914357  1
  Cu  Cu103  1  0.83354325  0.50113072  0.25725670  1
  Cu  Cu104  1  0.84079938  0.50164481  0.74166486  1
  Cu  Cu105  1  0.32836806  0.00295266  0.49637214  1
  Cu  Cu106  1  0.50636409  0.17949532  0.74205404  1
  Cu  Cu107  1  0.32433292  0.66773929  0.50603630  1
  Cu  Cu108  1  0.16448872  0.16359701  0.74770199  1
  Cu  Cu109  1  0.00813824  0.66189311  -0.00600143  1
  Cu  Cu110  1  0.84073297  0.82615946  0.25579984  1
  Cu  Cu111  1  0.49964873  0.17226092  0.26289795  1
  Cu  Cu112  1  -0.00321024  0.33355372  0.50211874  1
  Cu  Cu113  1  0.67305863  0.66101861  0.49637550  1
  Cu  Cu114  1  -0.00093486  0.33048894  -0.00015244  1
  Se  Se115  1  0.08404915  0.08846794  0.05376430  1
  Se  Se116  1  0.08386363  0.08636315  0.55674917  1
  Se  Se117  1  0.07670766  0.42086341  0.05261015  1
  Se  Se118  1  0.08253035  0.41783440  0.55269496  1
  Se  Se119  1  0.07985441  0.74706206  0.05702762  1
  Se  Se120  1  0.09649771  0.76891174  0.55710132  1
  Se  Se121  1  0.41023118  0.07828733  0.06335874  1
  Se  Se122  1  0.41449418  0.08171038  0.54978440  1
  Se  Se123  1  0.41664169  0.41368233  0.04880206  1
  Se  Se124  1  0.41137359  0.42407548  0.54976319  1
  Se  Se125  1  0.41899840  0.74760765  0.05100467  1
  Se  Se126  1  0.41244617  0.74723466  0.56294977  1
  Se  Se127  1  0.75123780  0.08738668  0.04606453  1
  Se  Se128  1  0.74597868  0.08456195  0.56930164  1
  Se  Se129  1  0.74539193  0.41220527  0.06414234  1
  Se  Se130  1  0.74131174  0.39007662  0.55705238  1
  Se  Se131  1  0.74967154  0.73803665  0.05977040  1
  Se  Se132  1  0.75279162  0.75304933  0.54323576  1
  Se  Se133  1  0.24458284  0.25102376  0.04821738  1
  Se  Se134  1  0.25618898  0.26584370  0.54779419  1
  Se  Se135  1  0.24847485  0.58363181  0.05326658  1
  Se  Se136  1  0.24268954  0.58358622  0.55879056  1
  Se  Se137  1  0.25523013  0.92309845  0.06782144  1
  Se  Se138  1  0.24825268  0.91518176  0.54754995  1
  Se  Se139  1  0.58831585  0.25375065  0.06172474  1
  Se  Se140  1  0.56782314  0.24011551  0.55159407  1
  Se  Se141  1  0.58054021  0.57443424  0.05614185  1
  Se  Se142  1  0.58909118  0.57897695  0.54929684  1
  Se  Se143  1  0.58469594  0.91384835  0.04771274  1
  Se  Se144  1  0.58841315  0.92071436  0.56421657  1
  Se  Se145  1  0.91214712  0.24945054  0.05240838  1
  Se  Se146  1  0.92379065  0.25242029  0.56590335  1
  Se  Se147  1  0.92733176  0.58746433  0.05794723  1
  Se  Se148  1  0.90085591  0.56001446  0.54495304  1
  Se  Se149  1  0.92473058  0.92097839  0.05910582  1
  Se  Se150  1  0.91784220  0.91952504  0.55898773  1
  Se  Se151  1  0.07774586  0.24154832  0.45364363  1
  Se  Se152  1  0.08430092  0.24773282  0.94628909  1
  Se  Se153  1  0.08719637  0.56593926  0.45491251  1
  Se  Se154  1  0.08472223  0.57609596  0.93937057  1
  Se  Se155  1  0.08347699  0.92049788  0.44491119  1
  Se  Se156  1  0.07337790  0.91905960  0.94219022  1
  Se  Se157  1  0.44264417  0.23287555  0.44667778  1
  Se  Se158  1  0.40782133  0.25691453  0.93414272  1
  Se  Se159  1  0.40915461  0.58701174  0.45218552  1
  Se  Se160  1  0.41834414  0.57495087  0.94694225  1
  Se  Se161  1  0.40955822  0.92305327  0.43555152  1
  Se  Se162  1  0.41569328  0.91288599  0.94989730  1
  Se  Se163  1  0.74391572  0.25760806  0.44268042  1
  Se  Se164  1  0.75250453  0.25768037  0.94214239  1
  Se  Se165  1  0.75504166  0.57785939  0.44266075  1
  Se  Se166  1  0.74146231  0.59040281  0.94287245  1
  Se  Se167  1  0.75330968  0.92058067  0.45521298  1
  Se  Se168  1  0.74669618  0.92531143  0.93257638  1
  Se  Se169  1  0.24428414  0.09056267  0.44848198  1
  Se  Se170  1  0.24673988  0.08203369  0.95192163  1
  Se  Se171  1  0.26791821  0.38217257  0.45078835  1
  Se  Se172  1  0.24487856  0.41998303  0.94409963  1
  Se  Se173  1  0.24215163  0.75155365  0.45331828  1
  Se  Se174  1  0.25197095  0.73553711  0.93707684  1
  Se  Se175  1  0.58582372  0.08109336  0.45034970  1
  Se  Se176  1  0.58568948  0.07879160  0.93647180  1
  Se  Se177  1  0.56873486  0.44045260  0.44430225  1
  Se  Se178  1  0.58354887  0.41746686  0.94837249  1
  Se  Se179  1  0.58771963  0.74297939  0.43856382  1
  Se  Se180  1  0.57885445  0.74975451  0.94728742  1
  Se  Se181  1  0.92423664  0.07949679  0.44129319  1
  Se  Se182  1  0.91636916  0.08873426  0.94297226  1
  Se  Se183  1  0.91300821  0.41318858  0.44613649  1
  Se  Se184  1  0.92002331  0.40944024  0.93629827  1
  Se  Se185  1  0.91076141  0.75722501  0.44926816  1
  Se  Se186  1  0.92248271  0.74197736  0.93994686  1
  Se  Se187  1  0.23491916  0.24976435  0.31195925  1
  Se  Se188  1  0.24596711  0.24188136  0.80855663  1
  Se  Se189  1  0.23506873  0.56983020  0.32038509  1
  Se  Se190  1  0.26228982  0.58616833  0.79675042  1
  Se  Se191  1  0.24431592  0.91346228  0.31445137  1
  Se  Se192  1  0.23742089  0.90549675  0.81340404  1
  Se  Se193  1  0.58716317  0.25860246  0.30618658  1
  Se  Se194  1  0.59033106  0.26003351  0.79542444  1
  Se  Se195  1  0.58517519  0.58480461  0.30196712  1
  Se  Se196  1  0.57949487  0.57475999  0.80873200  1
  Se  Se197  1  0.58435707  0.90490028  0.30759501  1
  Se  Se198  1  0.57887908  0.91239194  0.80838571  1
  Se  Se199  1  0.91833724  0.25618160  0.30048486  1
  Se  Se200  1  0.93471130  0.26292490  0.80015449  1
  Se  Se201  1  0.92033426  0.58258788  0.30816585  1
  Se  Se202  1  0.92141784  0.58118898  0.80031396  1
  Se  Se203  1  0.92005830  0.91723614  0.30435282  1
  Se  Se204  1  0.91533626  0.91513389  0.79392864  1
  Se  Se205  1  0.07573719  0.08493299  0.30086570  1
  Se  Se206  1  0.08116347  0.08215418  0.80296731  1
  Se  Se207  1  0.08216660  0.41289781  0.31047421  1
  Se  Se208  1  0.08582770  0.40796781  0.79616599  1
  Se  Se209  1  0.08138637  0.74666844  0.31330682  1
  Se  Se210  1  0.07896252  0.74638824  0.80101196  1
  Se  Se211  1  0.41493043  0.09432697  0.31852782  1
  Se  Se212  1  0.42671877  0.09457963  0.80002610  1
  Se  Se213  1  0.41586884  0.42486916  0.31431594  1
  Se  Se214  1  0.42082320  0.41861006  0.80778657  1
  Se  Se215  1  0.42558901  0.75415230  0.30798358  1
  Se  Se216  1  0.41470371  0.74225398  0.80486669  1
  Se  Se217  1  0.75844217  0.09022335  0.31344546  1
  Se  Se218  1  0.74783059  0.08868823  0.80994840  1
  Se  Se219  1  0.74678083  0.41483219  0.30298064  1
  Se  Se220  1  0.75335433  0.42231609  0.79708761  1
  Se  Se221  1  0.75356892  0.74626706  0.30716029  1
  Se  Se222  1  0.75994659  0.75509581  0.80389842  1
  Se  Se223  1  0.24590981  0.09395860  0.19375756  1
  Se  Se224  1  0.24803005  0.08906330  0.68556630  1
  Se  Se225  1  0.23752491  0.42970267  0.19033044  1
  Se  Se226  1  0.23275292  0.42970011  0.69201629  1
  Se  Se227  1  0.24263676  0.75575362  0.19955323  1
  Se  Se228  1  0.24872621  0.74604170  0.69784848  1
  Se  Se229  1  0.57752750  0.09173648  0.19905029  1
  Se  Se230  1  0.58114104  0.09529469  0.68199531  1
  Se  Se231  1  0.58337472  0.41429550  0.19887219  1
  Se  Se232  1  0.58853859  0.41952569  0.69073346  1
  Se  Se233  1  0.58911911  0.74224221  0.19119171  1
  Se  Se234  1  0.57769103  0.74711878  0.69113705  1
  Se  Se235  1  0.91768274  0.08451015  0.19434091  1
  Se  Se236  1  0.91028818  0.09159390  0.70649996  1
  Se  Se237  1  0.91394608  0.41908138  0.19881514  1
  Se  Se238  1  0.92789920  0.41825404  0.69262547  1
  Se  Se239  1  0.92382640  0.74458022  0.20037048  1
  Se  Se240  1  0.92162105  0.73642549  0.68634668  1
  Se  Se241  1  0.08124169  0.25608010  0.19049528  1
  Se  Se242  1  0.08685978  0.25063588  0.69375854  1
  Se  Se243  1  0.07605911  0.59425394  0.20004319  1
  Se  Se244  1  0.06511684  0.59746926  0.69310264  1
  Se  Se245  1  0.08139983  0.91919906  0.20332102  1
  Se  Se246  1  0.08277912  0.92307902  0.69818853  1
  Se  Se247  1  0.42111449  0.24730260  0.19753312  1
  Se  Se248  1  0.42236203  0.25425300  0.68274747  1
  Se  Se249  1  0.41556519  0.57600615  0.19340508  1
  Se  Se250  1  0.41470333  0.58067344  0.69574138  1
  Se  Se251  1  0.42649257  0.91102708  0.18988189  1
  Se  Se252  1  0.42086586  0.90463131  0.69461807  1
  Se  Se253  1  0.74873199  0.24862433  0.19675044  1
  Se  Se254  1  0.76322017  0.23938835  0.70297701  1
  Se  Se255  1  0.74997921  0.58484650  0.20242146  1
  Se  Se256  1  0.76782273  0.58291949  0.67743257  1
  Se  Se257  1  0.76542654  0.90488795  0.18745781  1
  Se  Se258  1  0.75853701  0.90292562  0.69121563  1
