# generated using pymatgen
data_In86Cu29Se144
_symmetry_space_group_name_H-M   'P 1'
_cell_length_a   17.58280055
_cell_length_b   17.58073284
_cell_length_c   23.44253749
_cell_angle_alpha   90.00077166
_cell_angle_beta   90.01512379
_cell_angle_gamma   90.00237513
_symmetry_Int_Tables_number   1
_chemical_formula_structural   In86Cu29Se144
_chemical_formula_sum   'In86 Cu29 Se144'
_cell_volume   7246.52221255
_cell_formula_units_Z   1
loop_
 _symmetry_equiv_pos_site_id
 _symmetry_equiv_pos_as_xyz
  1  'x, y, z'
loop_
 _atom_site_type_symbol
 _atom_site_label
 _atom_site_symmetry_multiplicity
 _atom_site_fract_x
 _atom_site_fract_y
 _atom_site_fract_z
 _atom_site_occupancy
  In  In0  1  0.00398626  0.16760522  0.12598169  1
  In  In1  1  -0.00820884  0.14896524  0.62281320  1
  In  In2  1  0.00032225  0.49983078  0.12309366  1
  In  In3  1  -0.00208767  0.52160502  0.62363717  1
  In  In4  1  0.02145081  0.81446471  0.15140147  1
  In  In5  1  -0.00843126  0.84095397  0.63694786  1
  In  In6  1  0.33522985  0.16579686  0.12103224  1
  In  In7  1  0.33205798  0.15607014  0.61454832  1
  In  In8  1  0.33154036  0.52652917  0.11691594  1
  In  In9  1  0.34128361  0.50936814  0.62651883  1
  In  In10  1  0.31275443  0.80242080  0.09596712  1
  In  In11  1  0.32856011  0.82574895  0.62428608  1
  In  In12  1  0.66624128  0.15301481  0.11843954  1
  In  In13  1  0.65442553  0.16519221  0.62152881  1
  In  In14  1  0.68442209  0.50589975  0.12219273  1
  In  In15  1  0.68259869  0.49832976  0.62010043  1
  In  In16  1  0.65976452  0.83798574  0.12654718  1
  In  In17  1  0.66851793  0.83326135  0.62928089  1
  In  In18  1  0.16567147  0.00252844  0.37160380  1
  In  In19  1  0.16029717  0.00430084  0.88358302  1
  In  In20  1  0.15409363  0.32744144  0.36777075  1
  In  In21  1  0.16621578  0.33179500  0.88681109  1
  In  In22  1  0.16118455  0.67349318  0.35704005  1
  In  In23  1  0.16435757  0.67207422  0.88332958  1
  In  In24  1  0.50144356  -0.00650937  0.39100910  1
  In  In25  1  0.50763003  -0.01012946  0.87852063  1
  In  In26  1  0.49202100  0.31949501  0.37061442  1
  In  In27  1  0.49093965  0.33140129  0.87750367  1
  In  In28  1  0.51109136  0.67563490  0.36700679  1
  In  In29  1  0.50981493  0.67571876  0.87020101  1
  In  In30  1  0.82967256  -0.03270385  0.37644041  1
  In  In31  1  0.84006558  -0.00205532  0.86531118  1
  In  In32  1  0.85216992  0.33488384  0.37544775  1
  In  In33  1  0.83319716  0.33277422  0.88325638  1
  In  In34  1  0.82932542  0.67318415  0.37560353  1
  In  In35  1  0.82649880  0.66765993  0.86799604  1
  In  In36  1  0.00162013  0.17083326  0.36731230  1
  In  In37  1  0.00386762  0.15512641  0.88297845  1
  In  In38  1  -0.00065553  0.50134373  0.36878132  1
  In  In39  1  -0.01011910  0.51128485  0.88521599  1
  In  In40  1  -0.02091074  0.81886269  0.35194647  1
  In  In41  1  -0.00123904  0.84299598  0.86972832  1
  In  In42  1  0.33785056  0.14223639  0.38740470  1
  In  In43  1  0.33258509  0.17009682  0.88468740  1
  In  In44  1  0.32056394  0.50284802  0.36963801  1
  In  In45  1  0.32089734  0.51022582  0.88609482  1
  In  In46  1  0.34062069  0.83525464  0.37240746  1
  In  In47  1  0.34088661  0.81899894  0.89053286  1
  In  In48  1  0.65718793  0.15136170  0.37599356  1
  In  In49  1  0.67529611  0.15877990  0.88042626  1
  In  In50  1  0.66540893  0.52146615  0.37590555  1
  In  In51  1  0.66783443  0.51299454  0.87452221  1
  In  In52  1  0.67247509  0.82988499  0.39470098  1
  In  In53  1  0.66946629  0.82630403  0.86082069  1
  In  In54  1  0.15677798  -0.01176119  0.11998253  1
  In  In55  1  0.15231643  -0.00719958  0.62223794  1
  In  In56  1  0.15951825  0.32682248  0.11905658  1
  In  In57  1  0.17688378  0.32574041  0.62714066  1
  In  In58  1  0.16720601  0.66491645  0.11872265  1
  In  In59  1  0.16066248  0.67887997  0.63581402  1
  In  In60  1  0.49889151  -0.00791785  0.11925414  1
  In  In61  1  0.51352431  0.00644554  0.61627759  1
  In  In62  1  0.50452383  0.32024608  0.12563106  1
  In  In63  1  0.50526704  0.32453244  0.62257939  1
  In  In64  1  0.48920636  0.68595875  0.13155736  1
  In  In65  1  0.49156357  0.68239432  0.62921467  1
  In  In66  1  0.83702921  0.00444841  0.12507178  1
  In  In67  1  0.83967950  -0.01619636  0.63529869  1
  In  In68  1  0.84573953  0.34291623  0.11970396  1
  In  In69  1  0.82381979  0.33836450  0.61890286  1
  In  In70  1  0.84746500  0.66581853  0.13428681  1
  In  In71  1  0.83442332  0.67070741  0.62386151  1
  In  In72  1  0.32836676  0.33397333  0.24382027  1
  In  In73  1  0.67464724  0.33780638  0.25072042  1
  In  In74  1  0.16944753  0.84308832  0.49538573  1
  In  In75  1  0.50034646  0.49917485  0.50033313  1
  In  In76  1  0.82997336  0.16257024  0.49813375  1
  In  In77  1  0.67022158  -0.00556855  0.25427343  1
  In  In78  1  0.50698780  0.49949849  -0.00047056  1
  In  In79  1  0.32981275  -0.00473235  0.75271083  1
  In  In80  1  -0.00176084  0.33640358  0.76026949  1
  In  In81  1  0.66259735  0.33424164  0.74334828  1
  In  In82  1  0.33190386  0.33978634  0.76107244  1
  In  In83  1  0.15862669  0.49877589  0.49325755  1
  In  In84  1  0.33386491  -0.00817239  0.25424046  1
  In  In85  1  0.83824522  0.83662466  0.00226964  1
  Cu  Cu86  1  0.33000186  0.31704312  0.49828206  1
  Cu  Cu87  1  0.50101936  0.51898104  0.74979938  1
  Cu  Cu88  1  0.16902933  0.16852777  0.24806183  1
  Cu  Cu89  1  0.15361541  0.15830136  0.75257373  1
  Cu  Cu90  1  0.66951293  0.67027455  -0.00409624  1
  Cu  Cu91  1  0.66918348  0.67333127  0.50235640  1
  Cu  Cu92  1  0.83573577  0.17040187  0.24669566  1
  Cu  Cu93  1  -0.00904037  0.67889537  0.49829738  1
  Cu  Cu94  1  -0.00160076  -0.00412165  0.49746975  1
  Cu  Cu95  1  0.32981259  0.66240431  0.50025129  1
  Cu  Cu96  1  0.67200820  0.32595853  0.00652420  1
  Cu  Cu97  1  -0.00252955  0.00050318  0.00273426  1
  Cu  Cu98  1  0.16997699  0.51311967  0.75869315  1
  Cu  Cu99  1  0.83165890  0.15259825  0.75111871  1
  Cu  Cu100  1  0.16465548  0.50652306  0.24332195  1
  Cu  Cu101  1  0.00593555  0.33586605  0.49469608  1
  Cu  Cu102  1  0.33543352  0.33148369  0.00394263  1
  Cu  Cu103  1  0.16781924  0.82946233  0.75728074  1
  Cu  Cu104  1  0.50152861  0.50640791  0.24435294  1
  Cu  Cu105  1  -0.00146632  0.33157339  0.00216044  1
  Cu  Cu106  1  0.33334584  0.00408316  0.00052113  1
  Cu  Cu107  1  0.83937006  0.50726659  0.24811212  1
  Cu  Cu108  1  0.83378597  0.50571465  0.74832025  1
  Cu  Cu109  1  0.49783910  0.83184983  0.24955619  1
  Cu  Cu110  1  0.50162618  0.83529236  0.75094967  1
  Cu  Cu111  1  0.00120231  0.66663739  0.00607894  1
  Cu  Cu112  1  0.66750102  0.33622400  0.49718892  1
  Cu  Cu113  1  0.49831599  0.16288464  0.74632500  1
  Cu  Cu114  1  0.66672607  -0.00094465  -0.00183134  1
  Se  Se115  1  0.08403498  0.08409582  0.05462929  1
  Se  Se116  1  0.08009234  0.08087100  0.55046726  1
  Se  Se117  1  0.08267691  0.41742024  0.05286331  1
  Se  Se118  1  0.07844716  0.41126014  0.56462229  1
  Se  Se119  1  0.07723934  0.75636339  0.05921617  1
  Se  Se120  1  0.08069533  0.75163866  0.55719774  1
  Se  Se121  1  0.42010913  0.08352078  0.05419790  1
  Se  Se122  1  0.42979453  0.09134722  0.55147242  1
  Se  Se123  1  0.41484484  0.41289044  0.06392592  1
  Se  Se124  1  0.40476394  0.40486744  0.55726816  1
  Se  Se125  1  0.43439800  0.75672754  0.04555607  1
  Se  Se126  1  0.41080298  0.74927471  0.55115213  1
  Se  Se127  1  0.75517966  0.07804229  0.05026674  1
  Se  Se128  1  0.75254451  0.07668751  0.56780864  1
  Se  Se129  1  0.75399795  0.41750074  0.05141408  1
  Se  Se130  1  0.75507909  0.42053046  0.54313579  1
  Se  Se131  1  0.74828381  0.74525183  0.06194362  1
  Se  Se132  1  0.75313868  0.75551689  0.55592771  1
  Se  Se133  1  0.24980941  0.24706656  0.05419273  1
  Se  Se134  1  0.24189261  0.24086658  0.55241715  1
  Se  Se135  1  0.24855172  0.59130123  0.04255963  1
  Se  Se136  1  0.24563891  0.58748129  0.55951947  1
  Se  Se137  1  0.24740106  0.91894371  0.04895101  1
  Se  Se138  1  0.25971016  0.92915727  0.55888141  1
  Se  Se139  1  0.58409868  0.24281406  0.05370826  1
  Se  Se140  1  0.58410499  0.25126321  0.54777860  1
  Se  Se141  1  0.59044651  0.59315382  0.06092086  1
  Se  Se142  1  0.58700326  0.58992073  0.56176413  1
  Se  Se143  1  0.58511515  0.91306754  0.05006419  1
  Se  Se144  1  0.57001133  0.89516816  0.56050510  1
  Se  Se145  1  0.91686299  0.24593693  0.05529681  1
  Se  Se146  1  0.92361319  0.25670898  0.55696349  1
  Se  Se147  1  0.91340967  0.58428359  0.05623781  1
  Se  Se148  1  0.91329649  0.58680898  0.54881914  1
  Se  Se149  1  0.93096742  0.91453255  0.06715120  1
  Se  Se150  1  0.92027801  0.91471606  0.55697018  1
  Se  Se151  1  0.08263353  0.24672752  0.44324969  1
  Se  Se152  1  0.08074914  0.24585529  0.94928497  1
  Se  Se153  1  0.07660398  0.60099663  0.43888082  1
  Se  Se154  1  0.08378478  0.58294310  0.95127634  1
  Se  Se155  1  0.06926443  0.91369676  0.43195121  1
  Se  Se156  1  0.07710339  0.91482372  0.94722461  1
  Se  Se157  1  0.41935429  0.24097986  0.44535135  1
  Se  Se158  1  0.42104266  0.24929238  0.95187066  1
  Se  Se159  1  0.41036680  0.58562839  0.43754482  1
  Se  Se160  1  0.42074708  0.59374114  0.94272587  1
  Se  Se161  1  0.40005893  0.91968944  0.44832352  1
  Se  Se162  1  0.41731580  0.91977563  0.94817551  1
  Se  Se163  1  0.74493021  0.25583929  0.43390059  1
  Se  Se164  1  0.75387766  0.24455511  0.94896266  1
  Se  Se165  1  0.75120416  0.58866654  0.44920318  1
  Se  Se166  1  0.75434458  0.58633995  0.94505975  1
  Se  Se167  1  0.73019993  0.94091825  0.45251796  1
  Se  Se168  1  0.74630604  0.91830343  0.93758255  1
  Se  Se169  1  0.23684489  0.07841904  0.44937370  1
  Se  Se170  1  0.24683162  0.08747843  0.94929810  1
  Se  Se171  1  0.25444749  0.40344801  0.43989969  1
  Se  Se172  1  0.25154305  0.41536795  0.95216856  1
  Se  Se173  1  0.24920164  0.73922031  0.43752455  1
  Se  Se174  1  0.24240223  0.75393644  0.95540699  1
  Se  Se175  1  0.58996933  0.07729808  0.45432712  1
  Se  Se176  1  0.58145127  0.08346966  0.94544965  1
  Se  Se177  1  0.58576630  0.41092075  0.43334705  1
  Se  Se178  1  0.59727663  0.40551434  0.93943536  1
  Se  Se179  1  0.57405483  0.74684776  0.45138572  1
  Se  Se180  1  0.59248099  0.75602176  0.94039694  1
  Se  Se181  1  0.91892920  0.07648721  0.43557419  1
  Se  Se182  1  0.91007708  0.07526050  0.94499897  1
  Se  Se183  1  0.92348526  0.42354728  0.44608580  1
  Se  Se184  1  0.91512830  0.41660014  0.94962704  1
  Se  Se185  1  0.91299243  0.76247381  0.44165543  1
  Se  Se186  1  0.92222416  0.74303326  0.94072331  1
  Se  Se187  1  0.25375136  0.23924061  0.31194697  1
  Se  Se188  1  0.23682771  0.24025087  0.80931747  1
  Se  Se189  1  0.25102094  0.58654695  0.29667210  1
  Se  Se190  1  0.25346226  0.59425175  0.81165322  1
  Se  Se191  1  0.23672967  0.90093552  0.30578709  1
  Se  Se192  1  0.24675613  0.90920852  0.81912460  1
  Se  Se193  1  0.58188841  0.24056689  0.30154628  1
  Se  Se194  1  0.57638529  0.24616757  0.80779095  1
  Se  Se195  1  0.58684184  0.58760850  0.29742206  1
  Se  Se196  1  0.59380469  0.59309059  0.80083136  1
  Se  Se197  1  0.57578733  0.90891219  0.31389419  1
  Se  Se198  1  0.58549212  0.92087319  0.80077008  1
  Se  Se199  1  0.91987784  0.25598040  0.29811134  1
  Se  Se200  1  0.90659773  0.23844366  0.81099052  1
  Se  Se201  1  0.91634754  0.59098488  0.30688912  1
  Se  Se202  1  0.91800308  0.58271574  0.80520543  1
  Se  Se203  1  0.92555151  0.93666723  0.29865079  1
  Se  Se204  1  0.90420198  0.90206104  0.79708203  1
  Se  Se205  1  0.08578887  0.08584334  0.30167620  1
  Se  Se206  1  0.07553285  0.07366067  0.80696653  1
  Se  Se207  1  0.08672390  0.42200954  0.30055052  1
  Se  Se208  1  0.09235595  0.42664664  0.81576236  1
  Se  Se209  1  0.07604187  0.74799870  0.28876018  1
  Se  Se210  1  0.08189284  0.74868829  0.81008613  1
  Se  Se211  1  0.42953974  0.07987896  0.31109115  1
  Se  Se212  1  0.41793646  0.08975652  0.81122688  1
  Se  Se213  1  0.42348380  0.42469794  0.30516834  1
  Se  Se214  1  0.42556271  0.43683208  0.81236258  1
  Se  Se215  1  0.41364101  0.74687209  0.30229498  1
  Se  Se216  1  0.41684443  0.75596005  0.80702916  1
  Se  Se217  1  0.76252456  0.08971668  0.31057561  1
  Se  Se218  1  0.74192908  0.07689895  0.80360930  1
  Se  Se219  1  0.76003639  0.42921854  0.31294225  1
  Se  Se220  1  0.75548288  0.41937787  0.80624498  1
  Se  Se221  1  0.73885667  0.75759504  0.31438119  1
  Se  Se222  1  0.76726705  0.76116569  0.79449691  1
  Se  Se223  1  0.24829389  0.08458784  0.19065986  1
  Se  Se224  1  0.24071357  0.08747954  0.69140738  1
  Se  Se225  1  0.24648440  0.42814345  0.18206650  1
  Se  Se226  1  0.24336667  0.42920403  0.69564208  1
  Se  Se227  1  0.25551893  0.74570529  0.18581197  1
  Se  Se228  1  0.25431699  0.75142201  0.70234305  1
  Se  Se229  1  0.57815225  0.08084751  0.19264204  1
  Se  Se230  1  0.58520018  0.08165629  0.69653103  1
  Se  Se231  1  0.58093011  0.42392547  0.18708855  1
  Se  Se232  1  0.57117429  0.43124784  0.68782760  1
  Se  Se233  1  0.58777890  0.75134145  0.19884083  1
  Se  Se234  1  0.58407354  0.74869076  0.69898828  1
  Se  Se235  1  0.91855277  0.08592790  0.19463158  1
  Se  Se236  1  0.92179555  0.07447422  0.70066836  1
  Se  Se237  1  0.91912128  0.41878931  0.19664491  1
  Se  Se238  1  0.91206865  0.42033289  0.69011343  1
  Se  Se239  1  0.90626191  0.76091767  0.20510011  1
  Se  Se240  1  0.94454359  0.72122684  0.68789159  1
  Se  Se241  1  0.08482058  0.25325260  0.19684452  1
  Se  Se242  1  0.08075393  0.24549911  0.69260593  1
  Se  Se243  1  0.08021857  0.58783986  0.19019938  1
  Se  Se244  1  0.08379312  0.58500423  0.69965918  1
  Se  Se245  1  0.08275775  0.92913798  0.20305287  1
  Se  Se246  1  0.08767017  0.91534899  0.70193860  1
  Se  Se247  1  0.42477573  0.23668621  0.19816120  1
  Se  Se248  1  0.41383146  0.24718361  0.69343554  1
  Se  Se249  1  0.41467202  0.58922036  0.19502953  1
  Se  Se250  1  0.41043803  0.59524350  0.69809173  1
  Se  Se251  1  0.41601710  0.90520270  0.18679913  1
  Se  Se252  1  0.42074327  0.91370336  0.68908821  1
  Se  Se253  1  0.75408301  0.24543261  0.18513818  1
  Se  Se254  1  0.75860958  0.23951825  0.69039014  1
  Se  Se255  1  0.75090084  0.58809607  0.19843757  1
  Se  Se256  1  0.74952250  0.58476293  0.69289573  1
  Se  Se257  1  0.76034757  0.90843666  0.19281842  1
  Se  Se258  1  0.75673094  0.90267949  0.70299746  1
