# generated using pymatgen
data_In86Cu29Se144
_symmetry_space_group_name_H-M   'P 1'
_cell_length_a   17.57606151
_cell_length_b   17.57633352
_cell_length_c   23.43546458
_cell_angle_alpha   90.00478099
_cell_angle_beta   90.01767114
_cell_angle_gamma   89.99992594
_symmetry_Int_Tables_number   1
_chemical_formula_structural   In86Cu29Se144
_chemical_formula_sum   'In86 Cu29 Se144'
_cell_volume   7239.74707043
_cell_formula_units_Z   1
loop_
 _symmetry_equiv_pos_site_id
 _symmetry_equiv_pos_as_xyz
  1  'x, y, z'
loop_
 _atom_site_type_symbol
 _atom_site_label
 _atom_site_symmetry_multiplicity
 _atom_site_fract_x
 _atom_site_fract_y
 _atom_site_fract_z
 _atom_site_occupancy
  In  In0  1  -0.00580587  0.17393760  0.13227658  1
  In  In1  1  0.01063670  0.17797776  0.61258350  1
  In  In2  1  0.00444828  0.49675077  0.13398325  1
  In  In3  1  -0.00841403  0.51492374  0.63268276  1
  In  In4  1  0.00918621  0.82461771  0.13456103  1
  In  In5  1  -0.00565629  0.82348958  0.62084018  1
  In  In6  1  0.32694609  0.17476260  0.14042142  1
  In  In7  1  0.32468030  0.15781184  0.61273799  1
  In  In8  1  0.34614502  0.49284307  0.12990452  1
  In  In9  1  0.34364285  0.50695113  0.62663119  1
  In  In10  1  0.32375850  0.84243956  0.13393008  1
  In  In11  1  0.32623573  0.82913431  0.61926856  1
  In  In12  1  0.67499756  0.15703719  0.11986231  1
  In  In13  1  0.66820883  0.16907516  0.62012149  1
  In  In14  1  0.66724217  0.51295005  0.12295760  1
  In  In15  1  0.67119135  0.48992762  0.63060681  1
  In  In16  1  0.65491878  0.82993473  0.12698022  1
  In  In17  1  0.65857356  0.84843247  0.64291720  1
  In  In18  1  0.16467937  -0.00316338  0.38223706  1
  In  In19  1  0.15254429  -0.00437210  0.87789597  1
  In  In20  1  0.15662769  0.32244353  0.36771798  1
  In  In21  1  0.16512112  0.34242949  0.86691700  1
  In  In22  1  0.17552615  0.67784950  0.37128902  1
  In  In23  1  0.17687490  0.66732284  0.86753639  1
  In  In24  1  0.48540603  0.00963794  0.38192084  1
  In  In25  1  0.50299076  -0.01390658  0.86633841  1
  In  In26  1  0.48641450  0.32435227  0.36840555  1
  In  In27  1  0.51384195  0.32953848  0.87689005  1
  In  In28  1  0.50324375  0.67058438  0.37364602  1
  In  In29  1  0.49144453  0.66422429  0.86678513  1
  In  In30  1  0.85215845  0.00284771  0.38130239  1
  In  In31  1  0.83305712  0.01184924  0.87054857  1
  In  In32  1  0.84721862  0.32040319  0.38655022  1
  In  In33  1  0.83196745  0.33006167  0.87009235  1
  In  In34  1  0.82924002  0.65844869  0.37471021  1
  In  In35  1  0.83260487  0.67495579  0.86009804  1
  In  In36  1  0.00135027  0.16421467  0.38133991  1
  In  In37  1  -0.01195443  0.16214504  0.87106250  1
  In  In38  1  -0.00449645  0.49220994  0.37135768  1
  In  In39  1  0.01430176  0.49985287  0.85702425  1
  In  In40  1  0.01270316  0.84712421  0.37207332  1
  In  In41  1  0.01354235  0.83204478  0.87624426  1
  In  In42  1  0.33361384  0.15981958  0.37190810  1
  In  In43  1  0.33664391  0.17619743  0.87677764  1
  In  In44  1  0.33230447  0.49969211  0.36554764  1
  In  In45  1  0.32954984  0.51280372  0.87967946  1
  In  In46  1  0.33305700  0.83487070  0.37838819  1
  In  In47  1  0.33267169  0.81908778  0.87474409  1
  In  In48  1  0.66610637  0.16588937  0.38445325  1
  In  In49  1  0.67510245  0.17951306  0.86324661  1
  In  In50  1  0.66934614  0.51419747  0.38029405  1
  In  In51  1  0.66355604  0.49500792  0.86997725  1
  In  In52  1  0.66507474  0.81516027  0.37763533  1
  In  In53  1  0.65187444  0.82461519  0.84500689  1
  In  In54  1  0.17350616  -0.00751117  0.13337198  1
  In  In55  1  0.16205418  0.00395325  0.60994866  1
  In  In56  1  0.16997443  0.33054813  0.13467301  1
  In  In57  1  0.16130335  0.31925565  0.62643813  1
  In  In58  1  0.16097840  0.67513693  0.13230548  1
  In  In59  1  0.15308382  0.67779447  0.63506884  1
  In  In60  1  0.49584743  -0.00739983  0.13000595  1
  In  In61  1  0.50525404  0.00342386  0.61577966  1
  In  In62  1  0.47722569  0.34268523  0.12379359  1
  In  In63  1  0.50998205  0.33183185  0.62492974  1
  In  In64  1  0.50749649  0.65912485  0.13022412  1
  In  In65  1  0.49199932  0.68207518  0.63842840  1
  In  In66  1  0.83200611  0.01449711  0.12546481  1
  In  In67  1  0.82183682  -0.00423346  0.62173208  1
  In  In68  1  0.84770995  0.32871412  0.12682898  1
  In  In69  1  0.83108067  0.33713313  0.62137457  1
  In  In70  1  0.83260092  0.66822689  0.13440868  1
  In  In71  1  0.84046447  0.66718556  0.63306885  1
  In  In72  1  0.33135911  0.33654789  0.75035552  1
  In  In73  1  0.83369567  0.83218585  0.50113545  1
  In  In74  1  0.66418286  -0.00567501  0.24938185  1
  In  In75  1  0.16537701  0.16832215  0.01214391  1
  In  In76  1  0.83389032  0.49612874  -0.00630487  1
  In  In77  1  0.17121666  0.49868774  0.00020457  1
  In  In78  1  0.83043567  0.84154242  -0.00941622  1
  In  In79  1  0.16578937  0.50014558  0.50038976  1
  In  In80  1  0.50441015  0.16672596  0.00508334  1
  In  In81  1  -0.00726287  -0.00268039  0.74442105  1
  In  In82  1  0.50570301  0.49850224  0.50150648  1
  In  In83  1  0.33262337  -0.00005494  0.73730410  1
  In  In84  1  0.66596738  0.33599728  0.25916988  1
  In  In85  1  0.49601745  0.83112974  -0.00240202  1
  Cu  Cu86  1  0.16981192  0.83045905  0.74869859  1
  Cu  Cu87  1  0.33207306  0.67210106  0.50068923  1
  Cu  Cu88  1  0.83096998  0.17242685  0.74333721  1
  Cu  Cu89  1  0.67094682  0.00622007  -0.00968738  1
  Cu  Cu90  1  0.00150339  0.66773674  0.50308919  1
  Cu  Cu91  1  0.50154857  0.50405398  0.74994795  1
  Cu  Cu92  1  -0.00256943  0.32406600  -0.00079547  1
  Cu  Cu93  1  0.32288500  0.00037192  0.00738912  1
  Cu  Cu94  1  0.33204205  0.66879644  0.00020429  1
  Cu  Cu95  1  0.33700879  -0.00198493  0.49543533  1
  Cu  Cu96  1  0.83516495  0.49950538  0.25136900  1
  Cu  Cu97  1  0.16595697  0.50665192  0.25068730  1
  Cu  Cu98  1  0.66413851  0.66698372  -0.00101441  1
  Cu  Cu99  1  0.83903177  0.16690039  0.25619187  1
  Cu  Cu100  1  0.66702535  0.33344380  0.50223545  1
  Cu  Cu101  1  0.83255976  0.49498389  0.74962769  1
  Cu  Cu102  1  0.66650414  0.66820683  0.50706245  1
  Cu  Cu103  1  0.16467522  0.16338407  0.25709059  1
  Cu  Cu104  1  0.67098198  0.33101448  -0.00607174  1
  Cu  Cu105  1  0.50079303  0.50256988  0.25186531  1
  Cu  Cu106  1  -0.00245776  -0.00586405  -0.00019086  1
  Cu  Cu107  1  0.00396715  0.66391452  0.00513077  1
  Cu  Cu108  1  0.50205717  0.16389930  0.74328617  1
  Cu  Cu109  1  -0.00442450  0.33754540  0.49875321  1
  Cu  Cu110  1  0.16615849  0.83642353  0.25580630  1
  Cu  Cu111  1  0.33036777  0.32314999  0.49470364  1
  Cu  Cu112  1  0.66440746  -0.00358560  0.50279744  1
  Cu  Cu113  1  0.83646119  0.83064925  0.25822988  1
  Cu  Cu114  1  0.49492373  0.82882657  0.25328704  1
  Se  Se115  1  0.07381780  0.07361502  0.06520606  1
  Se  Se116  1  0.08118859  0.08735857  0.54381835  1
  Se  Se117  1  0.07732265  0.40535647  0.05872319  1
  Se  Se118  1  0.07497672  0.41528130  0.56220548  1
  Se  Se119  1  0.08398065  0.75144375  0.05574053  1
  Se  Se120  1  0.08754891  0.75171743  0.55238604  1
  Se  Se121  1  0.40694560  0.07943844  0.06329004  1
  Se  Se122  1  0.41899983  0.08423706  0.54846849  1
  Se  Se123  1  0.42131519  0.43065739  0.04766123  1
  Se  Se124  1  0.40818054  0.40581350  0.55551890  1
  Se  Se125  1  0.41062290  0.74693765  0.06443881  1
  Se  Se126  1  0.42006082  0.74887078  0.55530245  1
  Se  Se127  1  0.75598454  0.08427483  0.04533277  1
  Se  Se128  1  0.74877985  0.08263930  0.55109108  1
  Se  Se129  1  0.74817953  0.40931566  0.06038188  1
  Se  Se130  1  0.74850459  0.42188456  0.55107449  1
  Se  Se131  1  0.74574719  0.74779880  0.05728024  1
  Se  Se132  1  0.74527679  0.75025596  0.56675357  1
  Se  Se133  1  0.26258615  0.26204401  0.05975098  1
  Se  Se134  1  0.24224941  0.24835223  0.54993173  1
  Se  Se135  1  0.25364924  0.59035068  0.06377430  1
  Se  Se136  1  0.25337199  0.59144285  0.56129425  1
  Se  Se137  1  0.24307832  0.91117039  0.05590214  1
  Se  Se138  1  0.25168364  0.91739336  0.55018955  1
  Se  Se139  1  0.59260602  0.26096110  0.06379714  1
  Se  Se140  1  0.58000722  0.24907279  0.55044596  1
  Se  Se141  1  0.58064087  0.58438629  0.05091165  1
  Se  Se142  1  0.58457153  0.58879683  0.56743376  1
  Se  Se143  1  0.59095054  0.92834536  0.05283470  1
  Se  Se144  1  0.58798015  0.90750088  0.55593122  1
  Se  Se145  1  0.91419256  0.24204408  0.05235014  1
  Se  Se146  1  0.91190735  0.25328105  0.55137945  1
  Se  Se147  1  0.91971118  0.58443916  0.06088957  1
  Se  Se148  1  0.91476831  0.58804469  0.55525169  1
  Se  Se149  1  0.91761501  0.91675335  0.06306490  1
  Se  Se150  1  0.92523815  0.92603129  0.55576807  1
  Se  Se151  1  0.08305083  0.25471925  0.44824075  1
  Se  Se152  1  0.08287746  0.25016293  0.93871620  1
  Se  Se153  1  0.07966277  0.59060425  0.43802582  1
  Se  Se154  1  0.07811874  0.58511506  0.94019095  1
  Se  Se155  1  0.08109371  0.91687076  0.45232124  1
  Se  Se156  1  0.08592187  0.91122279  0.95313307  1
  Se  Se157  1  0.41780633  0.24273009  0.44375166  1
  Se  Se158  1  0.41424992  0.26035634  0.94797791  1
  Se  Se159  1  0.40871853  0.58432671  0.44328040  1
  Se  Se160  1  0.41897221  0.59045986  0.94653264  1
  Se  Se161  1  0.42255097  0.90953282  0.44893249  1
  Se  Se162  1  0.40477519  0.92727556  0.94208289  1
  Se  Se163  1  0.75084498  0.24808075  0.45070280  1
  Se  Se164  1  0.75400214  0.24724739  0.94289617  1
  Se  Se165  1  0.75187267  0.58686638  0.45412087  1
  Se  Se166  1  0.74857094  0.59428463  0.93735833  1
  Se  Se167  1  0.74332934  0.92092005  0.43713304  1
  Se  Se168  1  0.73492879  0.91807201  0.92668953  1
  Se  Se169  1  0.25183985  0.08395459  0.44572762  1
  Se  Se170  1  0.25152047  0.08145232  0.94180635  1
  Se  Se171  1  0.25372514  0.41075724  0.43771286  1
  Se  Se172  1  0.25876857  0.40502654  0.94187630  1
  Se  Se173  1  0.24693403  0.75453809  0.44897384  1
  Se  Se174  1  0.24572168  0.74763847  0.94626672  1
  Se  Se175  1  0.58165900  0.08008958  0.44865929  1
  Se  Se176  1  0.58402594  0.08257721  0.93268616  1
  Se  Se177  1  0.58700564  0.40688387  0.43526998  1
  Se  Se178  1  0.58721006  0.41858998  0.94676635  1
  Se  Se179  1  0.58005432  0.74506856  0.45144440  1
  Se  Se180  1  0.59140993  0.74999406  0.93603910  1
  Se  Se181  1  0.90750580  0.09782289  0.45209760  1
  Se  Se182  1  0.91761687  0.07966157  0.94655859  1
  Se  Se183  1  0.91329457  0.42529546  0.44883897  1
  Se  Se184  1  0.93124441  0.41254078  0.93593220  1
  Se  Se185  1  0.92336454  0.74611843  0.43810105  1
  Se  Se186  1  0.92234529  0.73990528  0.94198754  1
  Se  Se187  1  0.25285114  0.24968755  0.30391975  1
  Se  Se188  1  0.24194350  0.23786892  0.80445259  1
  Se  Se189  1  0.25139427  0.58896358  0.30221850  1
  Se  Se190  1  0.23918793  0.56510375  0.80403019  1
  Se  Se191  1  0.24975293  0.91856843  0.31015471  1
  Se  Se192  1  0.24588018  0.91580969  0.80870025  1
  Se  Se193  1  0.57804504  0.23423605  0.30667411  1
  Se  Se194  1  0.58034337  0.25231874  0.79717988  1
  Se  Se195  1  0.58506536  0.58385714  0.30623607  1
  Se  Se196  1  0.58593219  0.58565149  0.80415168  1
  Se  Se197  1  0.57743093  0.90800852  0.31382652  1
  Se  Se198  1  0.58841217  0.93281334  0.78835191  1
  Se  Se199  1  0.92324898  0.25069457  0.30781951  1
  Se  Se200  1  0.91646393  0.24968311  0.80056767  1
  Se  Se201  1  0.91805242  0.58380950  0.30496160  1
  Se  Se202  1  0.91577670  0.58070215  0.80143013  1
  Se  Se203  1  0.91858961  0.92045332  0.30429273  1
  Se  Se204  1  0.91337667  0.90830811  0.81248529  1
  Se  Se205  1  0.08249851  0.08100202  0.31167388  1
  Se  Se206  1  0.08659494  0.08625827  0.80465443  1
  Se  Se207  1  0.08465522  0.41821307  0.30220459  1
  Se  Se208  1  0.07854013  0.40198584  0.79166077  1
  Se  Se209  1  0.08060833  0.75020863  0.30484953  1
  Se  Se210  1  0.08583969  0.74872057  0.80333492  1
  Se  Se211  1  0.41454908  0.07716297  0.30169187  1
  Se  Se212  1  0.41937329  0.09011649  0.80577393  1
  Se  Se213  1  0.41606764  0.41527905  0.29946780  1
  Se  Se214  1  0.42358888  0.42204537  0.81302673  1
  Se  Se215  1  0.41152988  0.74678719  0.30798444  1
  Se  Se216  1  0.43222579  0.77077783  0.80474569  1
  Se  Se217  1  0.75363352  0.08512266  0.31066299  1
  Se  Se218  1  0.75041221  0.08636967  0.79763693  1
  Se  Se219  1  0.76018354  0.42154504  0.31754067  1
  Se  Se220  1  0.74782278  0.41253628  0.80308506  1
  Se  Se221  1  0.74979854  0.74488455  0.30436774  1
  Se  Se222  1  0.75222688  0.75043800  0.78878672  1
  Se  Se223  1  0.24883763  0.08142082  0.20187666  1
  Se  Se224  1  0.23430468  0.09078689  0.68880481  1
  Se  Se225  1  0.24988537  0.42257221  0.19665835  1
  Se  Se226  1  0.24608669  0.42148689  0.68443357  1
  Se  Se227  1  0.24885674  0.75191108  0.20121459  1
  Se  Se228  1  0.25612358  0.74830679  0.69670664  1
  Se  Se229  1  0.57872860  0.09097772  0.19055178  1
  Se  Se230  1  0.58492008  0.08327409  0.68841295  1
  Se  Se231  1  0.58200527  0.42278994  0.19085129  1
  Se  Se232  1  0.58056620  0.41447645  0.69917241  1
  Se  Se233  1  0.58335247  0.74852835  0.20039978  1
  Se  Se234  1  0.59799333  0.73897011  0.70080776  1
  Se  Se235  1  0.91774522  0.08180795  0.19973261  1
  Se  Se236  1  0.91102126  0.09224426  0.68290902  1
  Se  Se237  1  0.91798907  0.41359364  0.19962588  1
  Se  Se238  1  0.91512015  0.41570259  0.69254376  1
  Se  Se239  1  0.91831574  0.74776130  0.20091575  1
  Se  Se240  1  0.92838583  0.74773231  0.69905931  1
  Se  Se241  1  0.08435507  0.24854556  0.20024299  1
  Se  Se242  1  0.07370594  0.24920897  0.69671263  1
  Se  Se243  1  0.07926292  0.58842752  0.19912505  1
  Se  Se244  1  0.08857588  0.57967410  0.69947908  1
  Se  Se245  1  0.08159758  0.91879060  0.20094067  1
  Se  Se246  1  0.09230626  0.91191366  0.68740619  1
  Se  Se247  1  0.42658790  0.24911889  0.19765477  1
  Se  Se248  1  0.41487492  0.24131520  0.68593459  1
  Se  Se249  1  0.41634410  0.58651161  0.19884478  1
  Se  Se250  1  0.41348322  0.58742099  0.70236821  1
  Se  Se251  1  0.41483438  0.91738032  0.20196061  1
  Se  Se252  1  0.42500144  0.90962543  0.68445779  1
  Se  Se253  1  0.75512803  0.24380296  0.19519993  1
  Se  Se254  1  0.74546575  0.25529203  0.69068519  1
  Se  Se255  1  0.74913686  0.58144962  0.19904035  1
  Se  Se256  1  0.75209624  0.57955909  0.69506315  1
  Se  Se257  1  0.75925862  0.90597310  0.18944135  1
  Se  Se258  1  0.76645009  0.91250537  0.70087563  1
