# generated using pymatgen
data_In86Cu29Se144
_symmetry_space_group_name_H-M   'P 1'
_cell_length_a   17.58346665
_cell_length_b   17.58013642
_cell_length_c   23.43814408
_cell_angle_alpha   89.97978788
_cell_angle_beta   90.02982511
_cell_angle_gamma   90.01270816
_symmetry_Int_Tables_number   1
_chemical_formula_structural   In86Cu29Se144
_chemical_formula_sum   'In86 Cu29 Se144'
_cell_volume   7245.19145263
_cell_formula_units_Z   1
loop_
 _symmetry_equiv_pos_site_id
 _symmetry_equiv_pos_as_xyz
  1  'x, y, z'
loop_
 _atom_site_type_symbol
 _atom_site_label
 _atom_site_symmetry_multiplicity
 _atom_site_fract_x
 _atom_site_fract_y
 _atom_site_fract_z
 _atom_site_occupancy
  In  In0  1  -0.00235508  0.16576381  0.12461548  1
  In  In1  1  -0.00022224  0.17222548  0.62769519  1
  In  In2  1  -0.00086534  0.50442747  0.12486343  1
  In  In3  1  -0.00152167  0.49764063  0.63286462  1
  In  In4  1  0.00523072  0.82613902  0.12859395  1
  In  In5  1  -0.00293586  0.82867239  0.61641253  1
  In  In6  1  0.33569285  0.17168101  0.11795421  1
  In  In7  1  0.33152919  0.15253951  0.62594550  1
  In  In8  1  0.33158128  0.50171177  0.11273553  1
  In  In9  1  0.34531961  0.48994551  0.62670420  1
  In  In10  1  0.33278763  0.83743874  0.12005699  1
  In  In11  1  0.33052873  0.84925604  0.62591772  1
  In  In12  1  0.66987196  0.16723427  0.12505583  1
  In  In13  1  0.67747814  0.17347665  0.61969066  1
  In  In14  1  0.66630316  0.50745567  0.11712350  1
  In  In15  1  0.65593281  0.50002219  0.62310960  1
  In  In16  1  0.65631921  0.83213096  0.13815691  1
  In  In17  1  0.67278314  0.82230326  0.61954782  1
  In  In18  1  0.15248703  0.00634462  0.37453439  1
  In  In19  1  0.17208229  -0.01248189  0.88629793  1
  In  In20  1  0.15083052  0.32840303  0.37158103  1
  In  In21  1  0.15486264  0.34632905  0.88374980  1
  In  In22  1  0.17131600  0.67429766  0.37171665  1
  In  In23  1  0.15706857  0.67557624  0.88222066  1
  In  In24  1  0.51671519  -0.00685589  0.37370950  1
  In  In25  1  0.49343261  0.00949281  0.88129957  1
  In  In26  1  0.49883380  0.33544476  0.37909228  1
  In  In27  1  0.50882362  0.32497763  0.87868217  1
  In  In28  1  0.49902862  0.66286011  0.36918749  1
  In  In29  1  0.52248743  0.65926473  0.89852400  1
  In  In30  1  0.82952502  -0.00500059  0.37420061  1
  In  In31  1  0.85005498  0.00968066  0.88600293  1
  In  In32  1  0.83542005  0.31975482  0.37098089  1
  In  In33  1  0.83250253  0.33353345  0.87865428  1
  In  In34  1  0.84688412  0.67634337  0.36419946  1
  In  In35  1  0.83261511  0.64466242  0.88231649  1
  In  In36  1  -0.04295822  0.13150384  0.33211441  1
  In  In37  1  -0.01445790  0.17467280  0.89061925  1
  In  In38  1  -0.00008064  0.49068868  0.35526620  1
  In  In39  1  -0.00379476  0.49846281  0.87732512  1
  In  In40  1  -0.00038051  0.83310003  0.37309369  1
  In  In41  1  0.01265723  0.83530680  0.87943632  1
  In  In42  1  0.33574186  0.17297064  0.38105066  1
  In  In43  1  0.33987314  0.15794246  0.87761813  1
  In  In44  1  0.34078288  0.50920578  0.37448611  1
  In  In45  1  0.33458494  0.50100918  0.88402894  1
  In  In46  1  0.32847148  0.82674023  0.38072948  1
  In  In47  1  0.33163448  0.84224637  0.87976132  1
  In  In48  1  0.67994241  0.15437607  0.38003332  1
  In  In49  1  0.65837866  0.17485929  0.88315949  1
  In  In50  1  0.64780641  0.50681101  0.36273318  1
  In  In51  1  0.68002938  0.49075673  0.88961614  1
  In  In52  1  0.67766453  0.84940362  0.35967338  1
  In  In53  1  0.66696134  0.81549483  0.88428319  1
  In  In54  1  0.14952154  -0.00998934  0.10903188  1
  In  In55  1  0.18010950  -0.00237474  0.62409976  1
  In  In56  1  0.15946756  0.32896033  0.11496968  1
  In  In57  1  0.15483997  0.32084935  0.63067793  1
  In  In58  1  0.15171595  0.65643550  0.11597939  1
  In  In59  1  0.15238611  0.66054006  0.62458171  1
  In  In60  1  0.50510435  0.00536105  0.12561436  1
  In  In61  1  0.47924185  0.00162651  0.62742772  1
  In  In62  1  0.50267497  0.33516258  0.11756647  1
  In  In63  1  0.51248546  0.33870763  0.62081422  1
  In  In64  1  0.50759378  0.66942780  0.12134572  1
  In  In65  1  0.51267876  0.65703763  0.62242699  1
  In  In66  1  0.83120933  0.01019707  0.13321720  1
  In  In67  1  0.83666147  -0.00005038  0.61502437  1
  In  In68  1  0.83396996  0.33609131  0.12280738  1
  In  In69  1  0.83949237  0.32312376  0.62967764  1
  In  In70  1  0.83809294  0.66401870  0.12963631  1
  In  In71  1  0.83410727  0.67509608  0.62103915  1
  In  In72  1  0.33270515  0.66750137  0.24733412  1
  In  In73  1  0.32952494  0.33774534  0.24979858  1
  In  In74  1  0.00476827  0.00423676  0.75544503  1
  In  In75  1  0.66578647  0.00117556  0.75163442  1
  In  In76  1  0.82686629  0.50071310  0.49252324  1
  In  In77  1  0.67133391  0.33492112  0.24338697  1
  In  In78  1  0.82906979  0.83707484  0.01129797  1
  In  In79  1  0.33094063  0.67661814  0.76184136  1
  In  In80  1  0.17103729  0.50176866  0.49419808  1
  In  In81  1  0.32636695  0.32933115  0.74766329  1
  In  In82  1  0.33460165  0.00007161  0.24488661  1
  In  In83  1  0.16609834  0.16501248  0.50253194  1
  In  In84  1  0.67051339  0.66057494  0.74928431  1
  In  In85  1  0.50175425  0.83754605  0.49907757  1
  Cu  Cu86  1  0.16072384  0.16633842  0.75556159  1
  Cu  Cu87  1  0.33321205  0.32993075  -0.00526499  1
  Cu  Cu88  1  0.50997489  0.16475370  0.25131725  1
  Cu  Cu89  1  0.82788346  0.17410918  0.75502726  1
  Cu  Cu90  1  0.16090646  0.83325560  0.24834205  1
  Cu  Cu91  1  0.66713170  0.00219330  0.49607383  1
  Cu  Cu92  1  0.66709130  0.66978097  0.49419199  1
  Cu  Cu93  1  0.50151151  0.16614135  0.75523536  1
  Cu  Cu94  1  -0.00377638  0.66610986  0.00240348  1
  Cu  Cu95  1  -0.00174389  0.32532171  0.49928966  1
  Cu  Cu96  1  0.00164788  0.66997720  0.49504710  1
  Cu  Cu97  1  -0.00514912  -0.00330342  0.49150638  1
  Cu  Cu98  1  0.66668026  -0.00014525  0.00835503  1
  Cu  Cu99  1  0.34321720  0.33716368  0.50057006  1
  Cu  Cu100  1  -0.00658114  0.33943228  0.00349778  1
  Cu  Cu101  1  0.33243916  0.67270726  -0.00062610  1
  Cu  Cu102  1  0.16616059  0.83332307  0.75661290  1
  Cu  Cu103  1  0.84141245  0.82767490  0.74556171  1
  Cu  Cu104  1  0.83740548  0.49137152  0.75597987  1
  Cu  Cu105  1  0.83344307  0.50047940  0.24166495  1
  Cu  Cu106  1  0.66585022  0.33178449  0.49311729  1
  Cu  Cu107  1  0.15441851  0.50074137  0.75568974  1
  Cu  Cu108  1  0.66852807  0.33031856  0.00269621  1
  Cu  Cu109  1  0.83680220  0.83606095  0.24579310  1
  Cu  Cu110  1  0.33746235  0.00185933  0.00363998  1
  Cu  Cu111  1  0.16034463  0.16635289  0.23775134  1
  Cu  Cu112  1  0.49561010  0.83696276  0.75700373  1
  Cu  Cu113  1  0.33813779  0.66755671  0.49725737  1
  Cu  Cu114  1  0.50219632  0.49589389  0.75235778  1
  Se  Se115  1  0.09835354  0.10634262  0.05565186  1
  Se  Se116  1  0.07237483  0.07129900  0.56067431  1
  Se  Se117  1  0.08072219  0.42378990  0.05242445  1
  Se  Se118  1  0.07869572  0.41031847  0.55612917  1
  Se  Se119  1  0.08159361  0.75386973  0.04967937  1
  Se  Se120  1  0.08705562  0.74815350  0.55078485  1
  Se  Se121  1  0.42208943  0.08560026  0.05524496  1
  Se  Se122  1  0.41472582  0.08493294  0.55214101  1
  Se  Se123  1  0.41567080  0.41294251  0.04963570  1
  Se  Se124  1  0.42718795  0.42160233  0.55194591  1
  Se  Se125  1  0.41633212  0.75022832  0.05633822  1
  Se  Se126  1  0.41539074  0.74434488  0.56352880  1
  Se  Se127  1  0.75328964  0.08447251  0.05582266  1
  Se  Se128  1  0.75217402  0.08438796  0.55067376  1
  Se  Se129  1  0.74966198  0.41740654  0.05428447  1
  Se  Se130  1  0.74553304  0.40965360  0.55821427  1
  Se  Se131  1  0.73964932  0.74479525  0.06613682  1
  Se  Se132  1  0.75445057  0.74973953  0.54589718  1
  Se  Se133  1  0.24968094  0.24910477  0.04950024  1
  Se  Se134  1  0.25763164  0.26148093  0.56074557  1
  Se  Se135  1  0.24621926  0.58687269  0.04804680  1
  Se  Se136  1  0.26110831  0.58634147  0.56175071  1
  Se  Se137  1  0.24974931  0.91533834  0.04960518  1
  Se  Se138  1  0.24862702  0.91440213  0.55047898  1
  Se  Se139  1  0.58481285  0.24572158  0.05473191  1
  Se  Se140  1  0.58628875  0.24925742  0.55210886  1
  Se  Se141  1  0.56656011  0.57139741  0.05129156  1
  Se  Se142  1  0.58742935  0.58220807  0.54602733  1
  Se  Se143  1  0.58593388  0.91486673  0.06097934  1
  Se  Se144  1  0.59050416  0.92636819  0.56422284  1
  Se  Se145  1  0.91396230  0.25011526  0.05476006  1
  Se  Se146  1  0.91515890  0.24409365  0.55431037  1
  Se  Se147  1  0.91153506  0.58333592  0.05418346  1
  Se  Se148  1  0.92410845  0.58429336  0.55443769  1
  Se  Se149  1  0.92294254  0.92495362  0.06612639  1
  Se  Se150  1  0.91481766  0.91258383  0.54863177  1
  Se  Se151  1  0.07167651  0.24138783  0.43887137  1
  Se  Se152  1  0.07965465  0.25654764  0.95129863  1
  Se  Se153  1  0.07441532  0.58390218  0.43442402  1
  Se  Se154  1  0.07891400  0.58330225  0.94607227  1
  Se  Se155  1  0.08404556  0.91453768  0.44386002  1
  Se  Se156  1  0.07435848  0.92236468  0.95274370  1
  Se  Se157  1  0.42297835  0.24875669  0.44943016  1
  Se  Se158  1  0.41939045  0.24602900  0.94434688  1
  Se  Se159  1  0.42334058  0.58541072  0.44620641  1
  Se  Se160  1  0.41677840  0.58401144  0.95133832  1
  Se  Se161  1  0.41083505  0.92630295  0.44000606  1
  Se  Se162  1  0.42025280  0.91761892  0.94897457  1
  Se  Se163  1  0.75500228  0.24846017  0.44651522  1
  Se  Se164  1  0.75277672  0.24772974  0.94845168  1
  Se  Se165  1  0.74376306  0.59182250  0.42946408  1
  Se  Se166  1  0.72564789  0.60548423  0.94936880  1
  Se  Se167  1  0.74684858  0.91332389  0.44491987  1
  Se  Se168  1  0.74463398  0.92509516  0.94115844  1
  Se  Se169  1  0.25512209  0.07498121  0.44203660  1
  Se  Se170  1  0.25337795  0.08174878  0.94735682  1
  Se  Se171  1  0.25927780  0.40568829  0.43598620  1
  Se  Se172  1  0.24815959  0.41995560  0.94976801  1
  Se  Se173  1  0.24657732  0.74681647  0.45068766  1
  Se  Se174  1  0.24870964  0.75518477  0.94522369  1
  Se  Se175  1  0.58132498  0.08497426  0.44559236  1
  Se  Se176  1  0.58495817  0.08188019  0.94951018  1
  Se  Se177  1  0.58718035  0.42120426  0.44165721  1
  Se  Se178  1  0.58228134  0.41266449  0.94897330  1
  Se  Se179  1  0.58886171  0.75292002  0.43419469  1
  Se  Se180  1  0.57748825  0.76590412  0.96119818  1
  Se  Se181  1  0.91991549  0.08497220  0.43508971  1
  Se  Se182  1  0.92396376  0.08052397  0.96231777  1
  Se  Se183  1  0.92628275  0.41354879  0.43946318  1
  Se  Se184  1  0.90964449  0.42207064  0.94785987  1
  Se  Se185  1  0.91496500  0.75211720  0.44437637  1
  Se  Se186  1  0.91476725  0.74835321  0.94223317  1
  Se  Se187  1  0.24153493  0.23674225  0.30489997  1
  Se  Se188  1  0.24148121  0.24727508  0.81568972  1
  Se  Se189  1  0.24239225  0.57304357  0.30522678  1
  Se  Se190  1  0.24090496  0.57679852  0.81215724  1
  Se  Se191  1  0.24395937  0.91169814  0.30833983  1
  Se  Se192  1  0.24972011  0.91878874  0.80612224  1
  Se  Se193  1  0.58541508  0.24840544  0.31144370  1
  Se  Se194  1  0.58755595  0.25018504  0.80297743  1
  Se  Se195  1  0.58455228  0.60083758  0.29206499  1
  Se  Se196  1  0.58206799  0.57545831  0.81309504  1
  Se  Se197  1  0.58135736  0.91873359  0.29451461  1
  Se  Se198  1  0.58384821  0.90909155  0.81579784  1
  Se  Se199  1  0.93935492  0.27159485  0.30385064  1
  Se  Se200  1  0.91671370  0.24957376  0.80976563  1
  Se  Se201  1  0.91788867  0.58349968  0.29578405  1
  Se  Se202  1  0.91615403  0.58287673  0.80476192  1
  Se  Se203  1  0.91782151  0.91650915  0.30440473  1
  Se  Se204  1  0.91038897  0.91090920  0.81048300  1
  Se  Se205  1  0.08508961  0.07752549  0.29331373  1
  Se  Se206  1  0.08640470  0.09028683  0.82216293  1
  Se  Se207  1  0.10238811  0.42216936  0.29707489  1
  Se  Se208  1  0.07419373  0.41227923  0.80545812  1
  Se  Se209  1  0.08192063  0.74785463  0.30360378  1
  Se  Se210  1  0.07977357  0.74921716  0.80434931  1
  Se  Se211  1  0.42106766  0.09068812  0.30928157  1
  Se  Se212  1  0.41634436  0.07993574  0.80187244  1
  Se  Se213  1  0.42713797  0.42623772  0.30410887  1
  Se  Se214  1  0.41676727  0.41812569  0.80908376  1
  Se  Se215  1  0.41945551  0.76277694  0.30651958  1
  Se  Se216  1  0.43247547  0.74937748  0.82206855  1
  Se  Se217  1  0.75422016  0.08316416  0.30369037  1
  Se  Se218  1  0.75686642  0.08621394  0.81464396  1
  Se  Se219  1  0.75752806  0.42546449  0.30995133  1
  Se  Se220  1  0.74730693  0.41599503  0.80868275  1
  Se  Se221  1  0.75308636  0.75090167  0.29882015  1
  Se  Se222  1  0.76100399  0.75118943  0.80866159  1
  Se  Se223  1  0.24503445  0.08585985  0.18280420  1
  Se  Se224  1  0.24348914  0.08625475  0.69968866  1
  Se  Se225  1  0.24411778  0.42119099  0.18383589  1
  Se  Se226  1  0.23530097  0.42692973  0.69064013  1
  Se  Se227  1  0.24050122  0.75487799  0.18709570  1
  Se  Se228  1  0.24248316  0.75378336  0.69092670  1
  Se  Se229  1  0.59028739  0.08342413  0.19596020  1
  Se  Se230  1  0.57787611  0.08833834  0.68868391  1
  Se  Se231  1  0.57623088  0.42379273  0.19005232  1
  Se  Se232  1  0.58670366  0.41600562  0.69809882  1
  Se  Se233  1  0.58646865  0.73215552  0.20281408  1
  Se  Se234  1  0.57546122  0.75839869  0.69491332  1
  Se  Se235  1  0.92293824  0.08542340  0.20086090  1
  Se  Se236  1  0.90517621  0.08746353  0.69543233  1
  Se  Se237  1  0.91755755  0.41585288  0.19248272  1
  Se  Se238  1  0.91851831  0.40987482  0.69774102  1
  Se  Se239  1  0.92014020  0.74803124  0.19768465  1
  Se  Se240  1  0.92318930  0.74610057  0.69161715  1
  Se  Se241  1  0.07973592  0.25649223  0.19119428  1
  Se  Se242  1  0.07415819  0.24848110  0.70506632  1
  Se  Se243  1  0.07747189  0.59012929  0.19496750  1
  Se  Se244  1  0.07613948  0.58656234  0.70038822  1
  Se  Se245  1  0.08362454  0.92038494  0.19356349  1
  Se  Se246  1  0.08757412  0.91206738  0.69167823  1
  Se  Se247  1  0.42595863  0.24525196  0.19416921  1
  Se  Se248  1  0.42323382  0.24511248  0.68961032  1
  Se  Se249  1  0.41770528  0.57609458  0.18718609  1
  Se  Se250  1  0.42190685  0.58314307  0.69813919  1
  Se  Se251  1  0.42660632  0.90649539  0.19253974  1
  Se  Se252  1  0.41165217  0.91709168  0.70330818  1
  Se  Se253  1  0.76545905  0.23967654  0.19623139  1
  Se  Se254  1  0.74494169  0.25324921  0.69838307  1
  Se  Se255  1  0.74597163  0.58195253  0.19275938  1
  Se  Se256  1  0.76261593  0.57080292  0.68835628  1
  Se  Se257  1  0.74965357  0.91835689  0.19627744  1
  Se  Se258  1  0.75750266  0.90902736  0.69048243  1
