# generated using pymatgen
data_In86Cu29Se144
_symmetry_space_group_name_H-M   'P 1'
_cell_length_a   17.58910126
_cell_length_b   17.59893687
_cell_length_c   23.46125025
_cell_angle_alpha   89.98786521
_cell_angle_beta   90.00949089
_cell_angle_gamma   90.00400353
_symmetry_Int_Tables_number   1
_chemical_formula_structural   In86Cu29Se144
_chemical_formula_sum   'In86 Cu29 Se144'
_cell_volume   7262.41760017
_cell_formula_units_Z   1
loop_
 _symmetry_equiv_pos_site_id
 _symmetry_equiv_pos_as_xyz
  1  'x, y, z'
loop_
 _atom_site_type_symbol
 _atom_site_label
 _atom_site_symmetry_multiplicity
 _atom_site_fract_x
 _atom_site_fract_y
 _atom_site_fract_z
 _atom_site_occupancy
  In  In0  1  -0.00658300  0.17856004  0.12821535  1
  In  In1  1  0.00333208  0.16454649  0.61924048  1
  In  In2  1  0.00303702  0.49592941  0.13186548  1
  In  In3  1  -0.00852199  0.50232906  0.62263490  1
  In  In4  1  -0.00403009  0.83017632  0.12159557  1
  In  In5  1  -0.01088221  0.84483749  0.62337193  1
  In  In6  1  0.34122247  0.16519095  0.13090063  1
  In  In7  1  0.31848988  0.16976507  0.62489168  1
  In  In8  1  0.32900103  0.50652891  0.13557460  1
  In  In9  1  0.32738269  0.51192541  0.62389997  1
  In  In10  1  0.31784339  0.83852025  0.12325868  1
  In  In11  1  0.33598202  0.82840839  0.63243923  1
  In  In12  1  0.67624885  0.16514715  0.13054651  1
  In  In13  1  0.68262667  0.15105725  0.63502753  1
  In  In14  1  0.65920197  0.49847039  0.12614938  1
  In  In15  1  0.70541441  0.47876723  0.65470296  1
  In  In16  1  0.68438576  0.83544456  0.11739293  1
  In  In17  1  0.68138716  0.82108060  0.63876182  1
  In  In18  1  0.17439211  0.00501040  0.37965227  1
  In  In19  1  0.15090492  -0.01756764  0.86543757  1
  In  In20  1  0.16058511  0.33368890  0.37493920  1
  In  In21  1  0.16085211  0.34367885  0.87667968  1
  In  In22  1  0.13978937  0.65276469  0.36210935  1
  In  In23  1  0.16506510  0.66763401  0.86548487  1
  In  In24  1  0.50784965  -0.01663958  0.37347240  1
  In  In25  1  0.50517495  0.01181101  0.86683587  1
  In  In26  1  0.50107820  0.33617900  0.37021036  1
  In  In27  1  0.51324769  0.32315212  0.87737922  1
  In  In28  1  0.49836763  0.67729274  0.37334720  1
  In  In29  1  0.49724062  0.66396289  0.86869911  1
  In  In30  1  0.83230440  0.00798039  0.38687867  1
  In  In31  1  0.83035794  -0.00239712  0.87776161  1
  In  In32  1  0.83869289  0.33095413  0.37651815  1
  In  In33  1  0.82134954  0.31984982  0.85933582  1
  In  In34  1  0.86329512  0.64190488  0.40718300  1
  In  In35  1  0.84735606  0.67821790  0.85606647  1
  In  In36  1  -0.01063234  0.16615487  0.38444097  1
  In  In37  1  -0.01373635  0.14873834  0.86479608  1
  In  In38  1  0.00418575  0.50121059  0.38066472  1
  In  In39  1  -0.02188297  0.48835059  0.84737315  1
  In  In40  1  0.00159298  0.81477950  0.37944041  1
  In  In41  1  -0.00230861  0.83228952  0.87338927  1
  In  In42  1  0.31732637  0.17232455  0.37526950  1
  In  In43  1  0.34577819  0.16458827  0.87587393  1
  In  In44  1  0.31741764  0.48849339  0.36964477  1
  In  In45  1  0.31892412  0.50237557  0.87114492  1
  In  In46  1  0.33480612  0.83413029  0.36951421  1
  In  In47  1  0.31844188  0.82171393  0.86910188  1
  In  In48  1  0.67865765  0.17586808  0.37089758  1
  In  In49  1  0.68225279  0.17287115  0.87126467  1
  In  In50  1  0.68168066  0.49496911  0.37814678  1
  In  In51  1  0.67243652  0.49356912  0.86204039  1
  In  In52  1  0.67244275  0.83952504  0.36843105  1
  In  In53  1  0.68435531  0.85426408  0.86534617  1
  In  In54  1  0.17316664  -0.00341158  0.12248193  1
  In  In55  1  0.15296319  0.01523518  0.63389084  1
  In  In56  1  0.15746200  0.33461995  0.14225155  1
  In  In57  1  0.14940763  0.32502225  0.61518255  1
  In  In58  1  0.14909860  0.68516808  0.14162584  1
  In  In59  1  0.16681150  0.66219588  0.62366891  1
  In  In60  1  0.50620144  0.01367990  0.12346287  1
  In  In61  1  0.50538424  -0.01062656  0.63577909  1
  In  In62  1  0.50693265  0.32637134  0.13910558  1
  In  In63  1  0.51275209  0.34424617  0.62451803  1
  In  In64  1  0.49546858  0.65675904  0.12352548  1
  In  In65  1  0.49945678  0.66706523  0.63015577  1
  In  In66  1  0.82516398  -0.00662913  0.11767706  1
  In  In67  1  0.83762820  -0.00111177  0.61921743  1
  In  In68  1  0.83942399  0.32690242  0.13095456  1
  In  In69  1  0.84352359  0.33146432  0.62689590  1
  In  In70  1  0.83748088  0.67553447  0.12307810  1
  In  In71  1  0.83610600  0.66600746  0.62475277  1
  In  In72  1  0.83257332  0.49889905  -0.00527722  1
  In  In73  1  0.16357074  0.16320522  0.00146998  1
  In  In74  1  0.67220512  0.66621152  0.24824080  1
  In  In75  1  0.50602755  0.83001008  0.49917889  1
  In  In76  1  0.50316508  0.83657474  -0.00452648  1
  In  In77  1  0.15630773  0.51044620  -0.00099804  1
  In  In78  1  0.00061297  0.00132527  0.25759933  1
  In  In79  1  0.33507828  0.33250073  0.75329124  1
  In  In80  1  0.50203349  0.50037194  -0.00788840  1
  In  In81  1  0.51094072  0.16695738  0.00365937  1
  In  In82  1  0.50240560  0.50656204  0.50497531  1
  In  In83  1  0.50363789  0.16697731  0.49955515  1
  In  In84  1  0.16599248  0.83385076  0.50211851  1
  In  In85  1  0.33265026  0.00278157  0.25137153  1
  Cu  Cu86  1  0.67501054  0.66408078  0.51228696  1
  Cu  Cu87  1  0.49167585  0.83439194  0.75704691  1
  Cu  Cu88  1  0.67559901  0.67296104  -0.01173292  1
  Cu  Cu89  1  -0.00355212  0.33734466  0.49919570  1
  Cu  Cu90  1  0.49871272  0.50080639  0.25096989  1
  Cu  Cu91  1  0.50279598  0.50068202  0.74667714  1
  Cu  Cu92  1  0.67810321  0.33243861  0.50473101  1
  Cu  Cu93  1  0.32379962  0.66040667  0.49428378  1
  Cu  Cu94  1  0.16430013  0.16509025  0.74691304  1
  Cu  Cu95  1  -0.00685121  0.32462494  -0.00034664  1
  Cu  Cu96  1  0.67280528  -0.00254737  0.50065697  1
  Cu  Cu97  1  0.31788125  0.67402842  0.00015669  1
  Cu  Cu98  1  0.50225747  0.16823187  0.25373411  1
  Cu  Cu99  1  0.50388578  0.16662732  0.74949388  1
  Cu  Cu100  1  0.83481619  0.84249436  0.74713237  1
  Cu  Cu101  1  0.82915943  0.16284643  0.25548284  1
  Cu  Cu102  1  0.32502455  -0.00941033  -0.00807791  1
  Cu  Cu103  1  0.84081506  0.49657281  0.25796983  1
  Cu  Cu104  1  0.32092289  0.33747877  0.49809970  1
  Cu  Cu105  1  0.16648852  0.50179534  0.25522240  1
  Cu  Cu106  1  0.83537817  0.83018368  0.24816211  1
  Cu  Cu107  1  0.16424386  0.82894564  0.74414604  1
  Cu  Cu108  1  0.16331906  0.49685468  0.74424873  1
  Cu  Cu109  1  0.83979374  0.16240847  0.74578902  1
  Cu  Cu110  1  0.33588521  0.33862778  0.01564446  1
  Cu  Cu111  1  -0.00697229  -0.00380998  -0.00494860  1
  Cu  Cu112  1  0.32872333  0.00628545  0.50746858  1
  Cu  Cu113  1  0.50286581  0.83126162  0.24624023  1
  Cu  Cu114  1  0.00282519  0.66805722  -0.00666601  1
  Se  Se115  1  0.07037327  0.07469364  0.06052467  1
  Se  Se116  1  0.09591654  0.09057968  0.55168559  1
  Se  Se117  1  0.07782033  0.40453554  0.05724696  1
  Se  Se118  1  0.07884557  0.42257878  0.55218714  1
  Se  Se119  1  0.08260487  0.74599137  0.05431889  1
  Se  Se120  1  0.07406643  0.74652986  0.56060365  1
  Se  Se121  1  0.40422627  0.07407897  0.05100805  1
  Se  Se122  1  0.41814222  0.07856571  0.56530200  1
  Se  Se123  1  0.42006712  0.42034083  0.06764191  1
  Se  Se124  1  0.40713531  0.41035271  0.55911810  1
  Se  Se125  1  0.41092602  0.74614736  0.05528575  1
  Se  Se126  1  0.40678954  0.73964596  0.55340922  1
  Se  Se127  1  0.74770767  0.08767394  0.05581982  1
  Se  Se128  1  0.75212538  0.08586566  0.55149913  1
  Se  Se129  1  0.74826242  0.41470604  0.06198989  1
  Se  Se130  1  0.75446113  0.41771120  0.56141492  1
  Se  Se131  1  0.75830470  0.74843541  0.04708711  1
  Se  Se132  1  0.75519869  0.75788514  0.55652633  1
  Se  Se133  1  0.25114963  0.25403301  0.06585026  1
  Se  Se134  1  0.24433898  0.24824344  0.55097501  1
  Se  Se135  1  0.24716228  0.59109732  0.06304533  1
  Se  Se136  1  0.24278018  0.57878626  0.54903731  1
  Se  Se137  1  0.24108882  0.91239462  0.04669325  1
  Se  Se138  1  0.25448460  0.92081951  0.56659629  1
  Se  Se139  1  0.59326601  0.26316318  0.06151426  1
  Se  Se140  1  0.59584534  0.25077085  0.56221382  1
  Se  Se141  1  0.59556120  0.59520018  0.05009311  1
  Se  Se142  1  0.59442006  0.58290241  0.56995093  1
  Se  Se143  1  0.59081443  0.92639048  0.05644028  1
  Se  Se144  1  0.59344202  0.91746655  0.56124566  1
  Se  Se145  1  0.90852559  0.24515264  0.05283118  1
  Se  Se146  1  0.91757916  0.24979668  0.55264514  1
  Se  Se147  1  0.92748681  0.58524086  0.05694650  1
  Se  Se148  1  0.91088572  0.58393423  0.55189267  1
  Se  Se149  1  0.91413993  0.91218983  0.05298874  1
  Se  Se150  1  0.92537977  0.92901590  0.54634133  1
  Se  Se151  1  0.07869089  0.25299697  0.44555292  1
  Se  Se152  1  0.07573364  0.24938568  0.93740294  1
  Se  Se153  1  0.07547009  0.59484074  0.44878940  1
  Se  Se154  1  0.06616908  0.58091032  0.92767419  1
  Se  Se155  1  0.07857129  0.92189079  0.43896156  1
  Se  Se156  1  0.07998991  0.91296550  0.94637296  1
  Se  Se157  1  0.41108136  0.26030034  0.44418843  1
  Se  Se158  1  0.41112855  0.26118702  0.94982706  1
  Se  Se159  1  0.41269771  0.58599750  0.43662545  1
  Se  Se160  1  0.39895071  0.59136578  0.94288047  1
  Se  Se161  1  0.40654616  0.92426577  0.44695783  1
  Se  Se162  1  0.41201590  0.92054002  0.93131969  1
  Se  Se163  1  0.75539464  0.24840322  0.44773157  1
  Se  Se164  1  0.75014495  0.26117173  0.94331539  1
  Se  Se165  1  0.74794475  0.57519640  0.45536216  1
  Se  Se166  1  0.75127476  0.58977351  0.92927973  1
  Se  Se167  1  0.74879077  0.91128518  0.44560039  1
  Se  Se168  1  0.75125199  0.91570832  0.94956404  1
  Se  Se169  1  0.25011409  0.08894171  0.45163904  1
  Se  Se170  1  0.24897241  0.07745210  0.93379740  1
  Se  Se171  1  0.23810803  0.42169515  0.44744626  1
  Se  Se172  1  0.25648025  0.41163665  0.95055554  1
  Se  Se173  1  0.25193759  0.74778288  0.43619071  1
  Se  Se174  1  0.23474860  0.74992752  0.94315845  1
  Se  Se175  1  0.59005954  0.07425549  0.43923570  1
  Se  Se176  1  0.59537684  0.07933923  0.94017307  1
  Se  Se177  1  0.58957803  0.40848907  0.44754444  1
  Se  Se178  1  0.60044192  0.41002259  0.94308693  1
  Se  Se179  1  0.60010511  0.73814498  0.44382093  1
  Se  Se180  1  0.58980271  0.74935661  0.93182277  1
  Se  Se181  1  0.92276417  0.07540990  0.45637606  1
  Se  Se182  1  0.91254800  0.08542846  0.94673769  1
  Se  Se183  1  0.91272892  0.42003380  0.44599051  1
  Se  Se184  1  0.92535293  0.41138462  0.93696181  1
  Se  Se185  1  0.90196892  0.76888306  0.45260823  1
  Se  Se186  1  0.91397348  0.74593486  0.94085421  1
  Se  Se187  1  0.25482537  0.26340025  0.30571402  1
  Se  Se188  1  0.24172203  0.24247391  0.81281747  1
  Se  Se189  1  0.25034804  0.58891738  0.30534358  1
  Se  Se190  1  0.24700756  0.58121953  0.79676135  1
  Se  Se191  1  0.23853241  0.90986136  0.30418064  1
  Se  Se192  1  0.24747896  0.91294160  0.79933606  1
  Se  Se193  1  0.58617508  0.25228504  0.30581955  1
  Se  Se194  1  0.58853042  0.24881206  0.80241247  1
  Se  Se195  1  0.58134934  0.57829983  0.31265698  1
  Se  Se196  1  0.58320543  0.58231493  0.80336137  1
  Se  Se197  1  0.58747762  0.91546786  0.29645850  1
  Se  Se198  1  0.58110536  0.91954522  0.80224561  1
  Se  Se199  1  0.91656990  0.24377416  0.30667693  1
  Se  Se200  1  0.92277162  0.24890763  0.79876601  1
  Se  Se201  1  0.91574324  0.58547602  0.31293632  1
  Se  Se202  1  0.91205418  0.58661462  0.78480385  1
  Se  Se203  1  0.90897769  0.91062951  0.31411641  1
  Se  Se204  1  0.91658407  0.92028266  0.80688573  1
  Se  Se205  1  0.09095989  0.09352387  0.31357565  1
  Se  Se206  1  0.08230540  0.07889566  0.79936642  1
  Se  Se207  1  0.07955988  0.42001384  0.30620706  1
  Se  Se208  1  0.08500956  0.40967779  0.79755225  1
  Se  Se209  1  0.08423902  0.75985211  0.29954843  1
  Se  Se210  1  0.07870869  0.75081788  0.80077948  1
  Se  Se211  1  0.42462292  0.08799622  0.31655371  1
  Se  Se212  1  0.41374639  0.08634538  0.79880615  1
  Se  Se213  1  0.41535028  0.41815204  0.30500945  1
  Se  Se214  1  0.42666180  0.42258792  0.81482908  1
  Se  Se215  1  0.41806508  0.75246523  0.30047927  1
  Se  Se216  1  0.40904730  0.74366925  0.80341094  1
  Se  Se217  1  0.74993524  0.07567428  0.30869245  1
  Se  Se218  1  0.75602349  0.08302210  0.80340577  1
  Se  Se219  1  0.75300512  0.41273650  0.30535722  1
  Se  Se220  1  0.76667556  0.42677323  0.79487047  1
  Se  Se221  1  0.76272110  0.74609308  0.31191526  1
  Se  Se222  1  0.74793832  0.75670751  0.79755616  1
  Se  Se223  1  0.23898419  0.09330124  0.19476554  1
  Se  Se224  1  0.25416030  0.08326777  0.69957605  1
  Se  Se225  1  0.24987427  0.41854210  0.20096623  1
  Se  Se226  1  0.24641954  0.41373660  0.68728337  1
  Se  Se227  1  0.26371828  0.74346533  0.19464751  1
  Se  Se228  1  0.24925848  0.74328851  0.69463702  1
  Se  Se229  1  0.58420330  0.08658690  0.19804382  1
  Se  Se230  1  0.58601082  0.07913616  0.69937656  1
  Se  Se231  1  0.58722272  0.41914909  0.20164131  1
  Se  Se232  1  0.58847993  0.41130530  0.70314675  1
  Se  Se233  1  0.58182859  0.75422914  0.18331906  1
  Se  Se234  1  0.57333515  0.75778087  0.69734200  1
  Se  Se235  1  0.90828483  0.08372844  0.19237679  1
  Se  Se236  1  0.92102957  0.08166092  0.68894488  1
  Se  Se237  1  0.91917710  0.41393463  0.19874785  1
  Se  Se238  1  0.91495669  0.42225304  0.69662272  1
  Se  Se239  1  0.92041634  0.74751066  0.19647990  1
  Se  Se240  1  0.91459404  0.75679067  0.69300426  1
  Se  Se241  1  0.07638022  0.24502024  0.20254129  1
  Se  Se242  1  0.08110639  0.24842280  0.69413868  1
  Se  Se243  1  0.07984857  0.58179670  0.20091723  1
  Se  Se244  1  0.08165506  0.58104425  0.69161677  1
  Se  Se245  1  0.08702457  0.91394444  0.19102632  1
  Se  Se246  1  0.08077249  0.91569993  0.69438291  1
  Se  Se247  1  0.41393395  0.24935256  0.20265389  1
  Se  Se248  1  0.42599289  0.24761455  0.68722121  1
  Se  Se249  1  0.41742608  0.58864887  0.20097897  1
  Se  Se250  1  0.41516196  0.58087835  0.69598640  1
  Se  Se251  1  0.42371596  0.91511465  0.18671608  1
  Se  Se252  1  0.41091674  0.91720190  0.70079063  1
  Se  Se253  1  0.75054394  0.25188181  0.20137667  1
  Se  Se254  1  0.75522532  0.24963094  0.69646996  1
  Se  Se255  1  0.76384139  0.57248163  0.18983593  1
  Se  Se256  1  0.72858414  0.61286769  0.69124924  1
  Se  Se257  1  0.75180528  0.91424205  0.19580409  1
  Se  Se258  1  0.75098615  0.92773829  0.69457248  1
