# generated using pymatgen
data_In86Cu29Se144
_symmetry_space_group_name_H-M   'P 1'
_cell_length_a   17.58291932
_cell_length_b   17.58167458
_cell_length_c   23.44659303
_cell_angle_alpha   89.98912783
_cell_angle_beta   90.01340546
_cell_angle_gamma   89.99996804
_symmetry_Int_Tables_number   1
_chemical_formula_structural   In86Cu29Se144
_chemical_formula_sum   'In86 Cu29 Se144'
_cell_volume   7248.21298346
_cell_formula_units_Z   1
loop_
 _symmetry_equiv_pos_site_id
 _symmetry_equiv_pos_as_xyz
  1  'x, y, z'
loop_
 _atom_site_type_symbol
 _atom_site_label
 _atom_site_symmetry_multiplicity
 _atom_site_fract_x
 _atom_site_fract_y
 _atom_site_fract_z
 _atom_site_occupancy
  In  In0  1  -0.00263936  0.16654074  0.13915254  1
  In  In1  1  0.00713873  0.16787012  0.61719927  1
  In  In2  1  -0.00915004  0.50027414  0.12480765  1
  In  In3  1  0.00603529  0.51862203  0.62584999  1
  In  In4  1  0.00316703  0.83818516  0.12124248  1
  In  In5  1  -0.01018823  0.82378416  0.61849061  1
  In  In6  1  0.34901696  0.16532763  0.12441146  1
  In  In7  1  0.32711179  0.15566177  0.61791210  1
  In  In8  1  0.32518839  0.49832044  0.12877730  1
  In  In9  1  0.33854287  0.49681681  0.62495088  1
  In  In10  1  0.32917030  0.84338470  0.12061245  1
  In  In11  1  0.33525031  0.83682062  0.62466961  1
  In  In12  1  0.66369007  0.16860381  0.13163505  1
  In  In13  1  0.65841982  0.17640544  0.62836732  1
  In  In14  1  0.67351792  0.49397807  0.12617740  1
  In  In15  1  0.66579965  0.50222804  0.62387432  1
  In  In16  1  0.67637022  0.82866460  0.12831996  1
  In  In17  1  0.67002977  0.83532332  0.63150285  1
  In  In18  1  0.16071011  0.00635463  0.38258693  1
  In  In19  1  0.15729300  -0.01362606  0.86756970  1
  In  In20  1  0.15469762  0.31565376  0.37087279  1
  In  In21  1  0.17343883  0.33735356  0.87463753  1
  In  In22  1  0.17467722  0.67282737  0.38113445  1
  In  In23  1  0.17761336  0.67764047  0.86199735  1
  In  In24  1  0.51430923  -0.00991257  0.38368819  1
  In  In25  1  0.50420106  0.00395262  0.86737290  1
  In  In26  1  0.50191410  0.33080334  0.37552802  1
  In  In27  1  0.50275311  0.31893571  0.87586073  1
  In  In28  1  0.50141478  0.67130848  0.38769735  1
  In  In29  1  0.49907054  0.66733344  0.86282638  1
  In  In30  1  0.82436317  -0.00503940  0.37274491  1
  In  In31  1  0.81688746  -0.00999156  0.86916803  1
  In  In32  1  0.84005873  0.34105793  0.37112845  1
  In  In33  1  0.83211522  0.34594730  0.87375287  1
  In  In34  1  0.83242179  0.66723676  0.38650786  1
  In  In35  1  0.83366216  0.67111069  0.87242411  1
  In  In36  1  0.01114006  0.17409013  0.37265339  1
  In  In37  1  -0.00032396  0.15229904  0.87375525  1
  In  In38  1  -0.00482387  0.48168399  0.38114320  1
  In  In39  1  -0.01624023  0.50125875  0.87704741  1
  In  In40  1  -0.00762472  0.84164104  0.38294867  1
  In  In41  1  0.00559531  0.82364933  0.88340045  1
  In  In42  1  0.32780787  0.17138652  0.38171747  1
  In  In43  1  0.35058483  0.17573110  0.87268212  1
  In  In44  1  0.34996414  0.49550598  0.38076271  1
  In  In45  1  0.32786053  0.51996946  0.86738040  1
  In  In46  1  0.33608918  0.83267543  0.38564288  1
  In  In47  1  0.31827192  0.82191810  0.86299307  1
  In  In48  1  0.65577389  0.15596059  0.37329034  1
  In  In49  1  0.65618516  0.15578178  0.86538645  1
  In  In50  1  0.67752646  0.49313384  0.38294061  1
  In  In51  1  0.68015110  0.51399392  0.86171979  1
  In  In52  1  0.65823068  0.84797609  0.38492717  1
  In  In53  1  0.67337632  0.83516171  0.86153253  1
  In  In54  1  0.16308168  -0.01353707  0.12324918  1
  In  In55  1  0.18338715  0.01199364  0.62083734  1
  In  In56  1  0.17086052  0.32797079  0.13736270  1
  In  In57  1  0.17213586  0.33244523  0.61997078  1
  In  In58  1  0.15943195  0.67516659  0.11622562  1
  In  In59  1  0.14817725  0.67654932  0.64145148  1
  In  In60  1  0.49289511  0.01024984  0.12706005  1
  In  In61  1  0.50081460  0.00068113  0.62449477  1
  In  In62  1  0.51561616  0.32591751  0.13564674  1
  In  In63  1  0.50701712  0.34515157  0.61306933  1
  In  In64  1  0.51235879  0.67084793  0.12317579  1
  In  In65  1  0.49976296  0.66767519  0.62650766  1
  In  In66  1  0.83774373  -0.00410312  0.13310673  1
  In  In67  1  0.83018803  -0.02035251  0.62766003  1
  In  In68  1  0.82752558  0.33923567  0.13250665  1
  In  In69  1  0.81850539  0.32768792  0.62013034  1
  In  In70  1  0.84900629  0.67278224  0.10251376  1
  In  In71  1  0.83486235  0.67123289  0.63083593  1
  In  In72  1  -0.00098743  0.33863273  0.74623124  1
  In  In73  1  0.50026500  0.49567401  -0.01305749  1
  In  In74  1  0.83457173  0.16586389  0.49456400  1
  In  In75  1  0.00119417  0.66389761  0.24348771  1
  In  In76  1  0.16495618  0.50751930  -0.00533916  1
  In  In77  1  0.33106846  0.00397356  0.25106804  1
  In  In78  1  0.16860736  0.16106823  -0.00261249  1
  In  In79  1  -0.00353721  -0.00384210  0.74774184  1
  In  In80  1  0.16718478  0.50163216  0.50241820  1
  In  In81  1  0.33704710  0.33544858  0.74694406  1
  In  In82  1  0.82612237  0.16787741  0.00622386  1
  In  In83  1  0.66868837  0.66386061  0.24777871  1
  In  In84  1  0.33609180  0.66403345  0.25672605  1
  In  In85  1  0.49480736  0.83276584  -0.00172758  1
  Cu  Cu86  1  0.66990783  -0.00134657  0.50466901  1
  Cu  Cu87  1  0.50171071  0.49614551  0.74221263  1
  Cu  Cu88  1  0.32784062  -0.00488154  -0.00408087  1
  Cu  Cu89  1  0.16734771  0.84131275  0.74398768  1
  Cu  Cu90  1  0.33174245  0.67241922  0.50706592  1
  Cu  Cu91  1  -0.00754280  -0.00735499  0.00178384  1
  Cu  Cu92  1  0.83037494  0.16695717  0.74744791  1
  Cu  Cu93  1  0.34104795  -0.00115056  0.50085608  1
  Cu  Cu94  1  0.66677877  0.66932139  0.50939296  1
  Cu  Cu95  1  0.82759609  0.83690690  0.25394837  1
  Cu  Cu96  1  0.82905694  0.50266690  0.74776232  1
  Cu  Cu97  1  0.83433610  0.49905026  0.25015378  1
  Cu  Cu98  1  0.82983681  0.16596690  0.25688578  1
  Cu  Cu99  1  0.33529116  0.33060957  0.49934218  1
  Cu  Cu100  1  0.49794220  0.83754019  0.74485278  1
  Cu  Cu101  1  0.49927675  0.16787666  0.25369383  1
  Cu  Cu102  1  0.00123594  0.33712961  0.00145436  1
  Cu  Cu103  1  0.16710553  0.16511066  0.25699644  1
  Cu  Cu104  1  0.49978314  0.16722935  0.74415841  1
  Cu  Cu105  1  0.34561657  0.33461456  0.00303445  1
  Cu  Cu106  1  0.16823635  0.48626708  0.25351180  1
  Cu  Cu107  1  0.16134737  0.83648286  0.24830133  1
  Cu  Cu108  1  0.66828318  0.33100164  0.00526148  1
  Cu  Cu109  1  0.65888453  -0.00360496  -0.00771910  1
  Cu  Cu110  1  0.66161434  0.33664578  0.49870258  1
  Cu  Cu111  1  -0.00224682  0.67047894  0.50668174  1
  Cu  Cu112  1  0.00711411  -0.00362461  0.50314596  1
  Cu  Cu113  1  0.50458363  0.49493321  0.25418688  1
  Cu  Cu114  1  0.67230022  0.66428767  -0.00864057  1
  Se  Se115  1  0.07079770  0.07986296  0.05931632  1
  Se  Se116  1  0.08958978  0.08414848  0.55136771  1
  Se  Se117  1  0.08893688  0.40897925  0.06049274  1
  Se  Se118  1  0.07270487  0.41331350  0.55921384  1
  Se  Se119  1  0.06582987  0.74303483  0.05158629  1
  Se  Se120  1  0.08901212  0.74932048  0.55563976  1
  Se  Se121  1  0.41238782  0.07786478  0.04898798  1
  Se  Se122  1  0.42310401  0.08540742  0.55216732  1
  Se  Se123  1  0.42167018  0.41579918  0.06406791  1
  Se  Se124  1  0.41406888  0.42219515  0.54806041  1
  Se  Se125  1  0.40868390  0.74051198  0.06060095  1
  Se  Se126  1  0.42033247  0.75398830  0.55665718  1
  Se  Se127  1  0.73787465  0.07115200  0.05975523  1
  Se  Se128  1  0.74997441  0.08168077  0.56350326  1
  Se  Se129  1  0.75423585  0.41556762  0.05410076  1
  Se  Se130  1  0.74618782  0.41801419  0.55189976  1
  Se  Se131  1  0.74536435  0.75133977  0.05018152  1
  Se  Se132  1  0.75196298  0.75333601  0.56008004  1
  Se  Se133  1  0.25631932  0.25622300  0.05736675  1
  Se  Se134  1  0.25015337  0.24855098  0.55138747  1
  Se  Se135  1  0.25992353  0.59206474  0.05672940  1
  Se  Se136  1  0.24901516  0.59298435  0.56602655  1
  Se  Se137  1  0.24297765  0.91345949  0.04779702  1
  Se  Se138  1  0.25320877  0.91798337  0.55286878  1
  Se  Se139  1  0.58485389  0.24763203  0.05704993  1
  Se  Se140  1  0.58204664  0.24771043  0.54986477  1
  Se  Se141  1  0.59205168  0.58406542  0.05234937  1
  Se  Se142  1  0.57932967  0.58272195  0.55562276  1
  Se  Se143  1  0.58456746  0.91994092  0.06103511  1
  Se  Se144  1  0.58720876  0.91550315  0.55924969  1
  Se  Se145  1  0.92462113  0.25437906  0.06176118  1
  Se  Se146  1  0.92206598  0.25907299  0.55418962  1
  Se  Se147  1  0.93025499  0.57915449  0.04588669  1
  Se  Se148  1  0.91340062  0.58655676  0.55709861  1
  Se  Se149  1  0.90730587  0.91437427  0.05688490  1
  Se  Se150  1  0.91607985  0.91678820  0.55125463  1
  Se  Se151  1  0.08396247  0.24679946  0.45122366  1
  Se  Se152  1  0.07510173  0.25520940  0.93948376  1
  Se  Se153  1  0.07354752  0.59092437  0.44044648  1
  Se  Se154  1  0.08082334  0.59277329  0.93069923  1
  Se  Se155  1  0.08934131  0.91092639  0.44909600  1
  Se  Se156  1  0.08330318  0.91892867  0.94787346  1
  Se  Se157  1  0.42065617  0.24826445  0.44655120  1
  Se  Se158  1  0.42488592  0.24590965  0.95277987  1
  Se  Se159  1  0.41283944  0.58868033  0.45157168  1
  Se  Se160  1  0.41008942  0.59794182  0.94186316  1
  Se  Se161  1  0.42433255  0.91277918  0.45064358  1
  Se  Se162  1  0.40893743  0.91876466  0.93311019  1
  Se  Se163  1  0.74109590  0.25494916  0.43695271  1
  Se  Se164  1  0.74301499  0.25179343  0.93721011  1
  Se  Se165  1  0.74726633  0.58555430  0.45223592  1
  Se  Se166  1  0.75611747  0.57826325  0.94252334  1
  Se  Se167  1  0.75562805  0.91659262  0.45176856  1
  Se  Se168  1  0.74238738  0.91041861  0.94364292  1
  Se  Se169  1  0.25289374  0.08067715  0.44869218  1
  Se  Se170  1  0.25543997  0.07806238  0.93161217  1
  Se  Se171  1  0.25114645  0.40969828  0.43863504  1
  Se  Se172  1  0.26751020  0.41506793  0.94224297  1
  Se  Se173  1  0.24767597  0.75500234  0.45361791  1
  Se  Se174  1  0.24657187  0.75174015  0.94236106  1
  Se  Se175  1  0.58465051  0.08292690  0.45344225  1
  Se  Se176  1  0.57816196  0.08479551  0.94367176  1
  Se  Se177  1  0.57807438  0.42068064  0.44501073  1
  Se  Se178  1  0.59917137  0.40912823  0.93459089  1
  Se  Se179  1  0.58692243  0.75398721  0.45249098  1
  Se  Se180  1  0.58556793  0.74462676  0.93764601  1
  Se  Se181  1  0.92663878  0.07389357  0.43844182  1
  Se  Se182  1  0.91226277  0.07338826  0.94301746  1
  Se  Se183  1  0.89965944  0.42399557  0.45063888  1
  Se  Se184  1  0.91273886  0.41555015  0.95042262  1
  Se  Se185  1  0.91545479  0.75367790  0.45100214  1
  Se  Se186  1  0.90542115  0.75595470  0.94544047  1
  Se  Se187  1  0.25442904  0.24930602  0.30456248  1
  Se  Se188  1  0.24569625  0.24407695  0.80685747  1
  Se  Se189  1  0.24284636  0.57113630  0.31353666  1
  Se  Se190  1  0.24505373  0.58333767  0.79264183  1
  Se  Se191  1  0.24509874  0.90958825  0.31123065  1
  Se  Se192  1  0.25189057  0.92276518  0.79763091  1
  Se  Se193  1  0.58588295  0.25059433  0.30505533  1
  Se  Se194  1  0.58301119  0.25082680  0.79874496  1
  Se  Se195  1  0.57932386  0.58050942  0.31401184  1
  Se  Se196  1  0.58173764  0.58215504  0.79726800  1
  Se  Se197  1  0.58878560  0.92021582  0.30502468  1
  Se  Se198  1  0.58344875  0.91873112  0.79929818  1
  Se  Se199  1  0.91706495  0.24858596  0.30680828  1
  Se  Se200  1  0.91241690  0.24247086  0.80959183  1
  Se  Se201  1  0.91302746  0.58074920  0.31091990  1
  Se  Se202  1  0.91359666  0.58316991  0.80208205  1
  Se  Se203  1  0.91619391  0.91597256  0.30620900  1
  Se  Se204  1  0.91352453  0.90639153  0.81051440  1
  Se  Se205  1  0.08307516  0.07841201  0.30517802  1
  Se  Se206  1  0.09244363  0.09210653  0.80010722  1
  Se  Se207  1  0.07876834  0.41150851  0.30683830  1
  Se  Se208  1  0.08623264  0.42405212  0.81193586  1
  Se  Se209  1  0.08617149  0.75254033  0.30951809  1
  Se  Se210  1  0.08444174  0.76148309  0.80151759  1
  Se  Se211  1  0.42250080  0.08532758  0.31509426  1
  Se  Se212  1  0.41724121  0.08689677  0.80043308  1
  Se  Se213  1  0.41753900  0.41336029  0.30468017  1
  Se  Se214  1  0.42523199  0.42391388  0.81256920  1
  Se  Se215  1  0.42548714  0.75788896  0.31150141  1
  Se  Se216  1  0.41490208  0.75146248  0.79730233  1
  Se  Se217  1  0.74469475  0.08017295  0.30459121  1
  Se  Se218  1  0.74865859  0.08072511  0.79921325  1
  Se  Se219  1  0.74881344  0.41830551  0.30326911  1
  Se  Se220  1  0.74848133  0.41228389  0.79771014  1
  Se  Se221  1  0.75222735  0.75296656  0.31366993  1
  Se  Se222  1  0.73174142  0.72690925  0.80328891  1
  Se  Se223  1  0.24081695  0.09100223  0.18589251  1
  Se  Se224  1  0.25470512  0.08743606  0.69847002  1
  Se  Se225  1  0.25939142  0.41047877  0.20179321  1
  Se  Se226  1  0.23914194  0.42465410  0.69335384  1
  Se  Se227  1  0.24459833  0.75386549  0.19274595  1
  Se  Se228  1  0.25229666  0.75396507  0.69514824  1
  Se  Se229  1  0.57921313  0.08305246  0.19783256  1
  Se  Se230  1  0.58597567  0.08214331  0.69459583  1
  Se  Se231  1  0.59338985  0.41873173  0.19984500  1
  Se  Se232  1  0.58571692  0.41210461  0.69202644  1
  Se  Se233  1  0.57405557  0.76152546  0.19805439  1
  Se  Se234  1  0.58170611  0.75023071  0.69605971  1
  Se  Se235  1  0.91383080  0.08167475  0.20323119  1
  Se  Se236  1  0.91056221  0.09124763  0.68529244  1
  Se  Se237  1  0.92097424  0.41567669  0.19855831  1
  Se  Se238  1  0.90653642  0.42246228  0.68469074  1
  Se  Se239  1  0.90484653  0.75537449  0.19105217  1
  Se  Se240  1  0.92767066  0.74557179  0.69745597  1
  Se  Se241  1  0.08254832  0.25052646  0.20375970  1
  Se  Se242  1  0.09129473  0.24483129  0.69232989  1
  Se  Se243  1  0.09888692  0.57198667  0.18964081  1
  Se  Se244  1  0.08103876  0.57944758  0.70695911  1
  Se  Se245  1  0.07648214  0.91922378  0.19724060  1
  Se  Se246  1  0.08705134  0.91742482  0.68076925  1
  Se  Se247  1  0.41740077  0.25049715  0.19807458  1
  Se  Se248  1  0.42336998  0.24958613  0.68224760  1
  Se  Se249  1  0.42932578  0.57797585  0.19208362  1
  Se  Se250  1  0.41574659  0.58155507  0.69471670  1
  Se  Se251  1  0.42029670  0.90891204  0.19423135  1
  Se  Se252  1  0.41395600  0.92304839  0.69464093  1
  Se  Se253  1  0.75057523  0.24903091  0.19820984  1
  Se  Se254  1  0.74664090  0.25325035  0.69825806  1
  Se  Se255  1  0.76741605  0.58586695  0.18547076  1
  Se  Se256  1  0.74554423  0.58574665  0.69414605  1
  Se  Se257  1  0.74491748  0.91876007  0.19898924  1
  Se  Se258  1  0.75286512  0.91265807  0.70429400  1
