# generated using pymatgen
data_In86Cu29Se144
_symmetry_space_group_name_H-M   'P 1'
_cell_length_a   17.66315815
_cell_length_b   17.66856415
_cell_length_c   23.52039905
_cell_angle_alpha   89.95638240
_cell_angle_beta   89.95553789
_cell_angle_gamma   89.96707775
_symmetry_Int_Tables_number   1
_chemical_formula_structural   In86Cu29Se144
_chemical_formula_sum   'In86 Cu29 Se144'
_cell_volume   7340.30275137
_cell_formula_units_Z   1
loop_
 _symmetry_equiv_pos_site_id
 _symmetry_equiv_pos_as_xyz
  1  'x, y, z'
loop_
 _atom_site_type_symbol
 _atom_site_label
 _atom_site_symmetry_multiplicity
 _atom_site_fract_x
 _atom_site_fract_y
 _atom_site_fract_z
 _atom_site_occupancy
  In  In0  1  0.00489245  0.16652196  0.12686743  1
  In  In1  1  0.00677339  0.15273694  0.63215385  1
  In  In2  1  0.03013324  0.47271047  0.14959641  1
  In  In3  1  -0.00726075  0.50104733  0.62334811  1
  In  In4  1  0.00382944  0.83363066  0.12535896  1
  In  In5  1  0.01946371  0.84797705  0.59673580  1
  In  In6  1  0.32992136  0.15690005  0.13128805  1
  In  In7  1  0.31820005  0.15730596  0.61208552  1
  In  In8  1  0.33198656  0.48475017  0.13778934  1
  In  In9  1  0.33044434  0.49040804  0.61814009  1
  In  In10  1  0.32238688  0.83617576  0.13551226  1
  In  In11  1  0.32978656  0.84886686  0.62517867  1
  In  In12  1  0.65732058  0.15337077  0.11801975  1
  In  In13  1  0.66566375  0.17842295  0.62446894  1
  In  In14  1  0.66572684  0.50154711  0.12374316  1
  In  In15  1  0.67170440  0.51135124  0.62328223  1
  In  In16  1  0.68455784  0.82944878  0.12378531  1
  In  In17  1  0.66124987  0.82079174  0.62674165  1
  In  In18  1  0.16765058  0.00603466  0.36703758  1
  In  In19  1  0.16928596  0.00184938  0.87908235  1
  In  In20  1  0.15692394  0.32800674  0.36285188  1
  In  In21  1  0.15396769  0.33534310  0.87641333  1
  In  In22  1  0.16539396  0.68645303  0.38459364  1
  In  In23  1  0.16842355  0.67827890  0.87716860  1
  In  In24  1  0.50314141  0.00651986  0.36713180  1
  In  In25  1  0.49561808  0.01259667  0.87509703  1
  In  In26  1  0.48602009  0.34786794  0.37774153  1
  In  In27  1  0.49369174  0.33470530  0.88720581  1
  In  In28  1  0.48180353  0.66592309  0.37798648  1
  In  In29  1  0.49383527  0.65257655  0.87217127  1
  In  In30  1  0.82839435  -0.00632599  0.37095437  1
  In  In31  1  0.84426255  -0.00672192  0.88612527  1
  In  In32  1  0.84985793  0.33898181  0.36732706  1
  In  In33  1  0.84091000  0.31826049  0.88181955  1
  In  In34  1  0.88561123  0.66510895  0.36544646  1
  In  In35  1  0.83991876  0.68018577  0.87539218  1
  In  In36  1  0.01977330  0.17166859  0.35908198  1
  In  In37  1  0.00539701  0.16253102  0.87938555  1
  In  In38  1  0.07014859  0.53257966  0.31211883  1
  In  In39  1  0.00841294  0.49141070  0.87529187  1
  In  In40  1  -0.00195539  0.84391174  0.37604561  1
  In  In41  1  -0.00160092  0.84129432  0.88261181  1
  In  In42  1  0.32589159  0.17429800  0.36544097  1
  In  In43  1  0.33802637  0.15697899  0.88292024  1
  In  In44  1  0.32770756  0.51010577  0.36736451  1
  In  In45  1  0.33707748  0.51469448  0.88473300  1
  In  In46  1  0.32182949  0.82218032  0.36690886  1
  In  In47  1  0.30670007  0.84034678  0.88759393  1
  In  In48  1  0.66896455  0.15681536  0.37375302  1
  In  In49  1  0.66099183  0.17273045  0.88320870  1
  In  In50  1  0.66384853  0.49820220  0.38073048  1
  In  In51  1  0.65740763  0.49926543  0.87603490  1
  In  In52  1  0.66972109  0.84294154  0.37202871  1
  In  In53  1  0.68146352  0.83292019  0.87454399  1
  In  In54  1  0.16635603  -0.00013998  0.12825953  1
  In  In55  1  0.16320515  0.00042830  0.62071054  1
  In  In56  1  0.19874529  0.29687021  0.17753603  1
  In  In57  1  0.16897551  0.31677969  0.62234888  1
  In  In58  1  0.16377334  0.66992246  0.12893936  1
  In  In59  1  0.16395239  0.68613202  0.61689024  1
  In  In60  1  0.49056864  0.00189020  0.13206904  1
  In  In61  1  0.48230621  0.00133378  0.62271754  1
  In  In62  1  0.49240136  0.31871770  0.11915731  1
  In  In63  1  0.49541544  0.33020260  0.61590008  1
  In  In64  1  0.49570653  0.65032964  0.12350585  1
  In  In65  1  0.51136321  0.66842605  0.62533733  1
  In  In66  1  0.83678271  -0.00242841  0.12341848  1
  In  In67  1  0.85177198  0.00021962  0.62320403  1
  In  In68  1  0.86121498  0.32168080  0.13710176  1
  In  In69  1  0.84029756  0.34163456  0.62504170  1
  In  In70  1  0.84191345  0.67290861  0.12597251  1
  In  In71  1  0.82565915  0.66657682  0.62436184  1
  In  In72  1  0.33217691  0.32691094  0.75877634  1
  In  In73  1  0.50352738  0.83065980  0.00402111  1
  In  In74  1  0.17190040  0.49920173  0.00884414  1
  In  In75  1  0.67059549  0.33342225  0.75729558  1
  In  In76  1  0.66982515  0.00053624  0.75551318  1
  In  In77  1  0.16246790  0.50542427  0.48972541  1
  In  In78  1  -0.00001056  0.67458922  0.74484217  1
  In  In79  1  0.83289120  0.16593946  0.49619906  1
  In  In80  1  0.66206504  0.68105405  0.25312339  1
  In  In81  1  0.83506717  0.50361132  0.01442009  1
  In  In82  1  0.33433731  0.67236358  0.74674853  1
  In  In83  1  0.66816702  0.32957349  0.25326408  1
  In  In84  1  0.49268911  0.83399752  0.50171356  1
  In  In85  1  0.83217277  0.50076246  0.49386566  1
  Cu  Cu86  1  0.65615529  0.32765742  0.49536666  1
  Cu  Cu87  1  0.00381836  0.67134496  0.00644589  1
  Cu  Cu88  1  0.49043582  0.16302400  0.74790115  1
  Cu  Cu89  1  0.33070212  0.00169702  0.00736563  1
  Cu  Cu90  1  0.50729329  0.50028425  0.74978836  1
  Cu  Cu91  1  0.66507396  0.66484365  0.50001226  1
  Cu  Cu92  1  0.84485754  0.16397052  0.75764998  1
  Cu  Cu93  1  0.49359482  0.83554095  0.24966652  1
  Cu  Cu94  1  0.32987938  0.00278910  0.49292065  1
  Cu  Cu95  1  0.83545037  0.83206232  0.74996381  1
  Cu  Cu96  1  0.32521658  0.32722759  0.01272964  1
  Cu  Cu97  1  0.83963811  0.84080607  0.24908560  1
  Cu  Cu98  1  0.00443575  0.00106401  0.00517416  1
  Cu  Cu99  1  0.66964104  0.66610530  0.00290244  1
  Cu  Cu100  1  0.15968737  0.15812234  0.74806402  1
  Cu  Cu101  1  0.49618399  0.16755840  0.24838996  1
  Cu  Cu102  1  0.83787697  0.50018413  0.74649531  1
  Cu  Cu103  1  0.00433790  0.32340844  0.00461512  1
  Cu  Cu104  1  0.49602468  0.83185020  0.74771811  1
  Cu  Cu105  1  0.49763087  0.49744777  0.25038672  1
  Cu  Cu106  1  0.66254191  0.00295316  0.49500158  1
  Cu  Cu107  1  0.00294352  0.32949645  0.49450213  1
  Cu  Cu108  1  0.16153768  0.49798092  0.75087832  1
  Cu  Cu109  1  0.33230534  0.32938346  0.49453224  1
  Cu  Cu110  1  0.66918668  0.00183894  -0.00144231  1
  Cu  Cu111  1  0.00609908  0.00963494  0.49389909  1
  Cu  Cu112  1  0.66859036  0.33092866  0.00115440  1
  Cu  Cu113  1  0.82639670  0.15011116  0.24639983  1
  Cu  Cu114  1  0.16406258  0.83530915  0.25090095  1
  Se  Se115  1  0.08726555  0.08485361  0.05754741  1
  Se  Se116  1  0.08525297  0.09028023  0.55206309  1
  Se  Se117  1  0.08670880  0.40293267  0.06227749  1
  Se  Se118  1  0.07999811  0.41078621  0.55753165  1
  Se  Se119  1  0.09043343  0.75388968  0.05546722  1
  Se  Se120  1  0.07413839  0.73618045  0.54063783  1
  Se  Se121  1  0.41621672  0.08381873  0.05880299  1
  Se  Se122  1  0.41475498  0.08413561  0.54776002  1
  Se  Se123  1  0.41057253  0.41359074  0.05985135  1
  Se  Se124  1  0.41332122  0.41319449  0.54862027  1
  Se  Se125  1  0.41195404  0.74930907  0.06578809  1
  Se  Se126  1  0.40888722  0.74420965  0.56544537  1
  Se  Se127  1  0.75337510  0.08130365  0.05391724  1
  Se  Se128  1  0.74381886  0.07745934  0.56062275  1
  Se  Se129  1  0.74914327  0.40169718  0.06602984  1
  Se  Se130  1  0.74014166  0.40657938  0.55534175  1
  Se  Se131  1  0.75799333  0.74607408  0.05167023  1
  Se  Se132  1  0.74525879  0.74909669  0.55419883  1
  Se  Se133  1  0.24327142  0.25405761  0.07470681  1
  Se  Se134  1  0.24448042  0.24796660  0.54427241  1
  Se  Se135  1  0.26046934  0.58669421  0.06708312  1
  Se  Se136  1  0.25052159  0.58735930  0.55796598  1
  Se  Se137  1  0.25001241  0.91561275  0.05942039  1
  Se  Se138  1  0.24964445  0.92049036  0.55034947  1
  Se  Se139  1  0.58301348  0.24598288  0.05149313  1
  Se  Se140  1  0.57880242  0.24337368  0.55114003  1
  Se  Se141  1  0.58628162  0.58135788  0.05274101  1
  Se  Se142  1  0.58259352  0.58159909  0.55291646  1
  Se  Se143  1  0.59229175  0.92228356  0.06276167  1
  Se  Se144  1  0.58715640  0.92397694  0.56124670  1
  Se  Se145  1  0.91622091  0.24286722  0.05458519  1
  Se  Se146  1  0.92340886  0.25353649  0.55825247  1
  Se  Se147  1  0.93649058  0.58376957  0.06769179  1
  Se  Se148  1  0.92127507  0.59289158  0.55448232  1
  Se  Se149  1  0.92013435  0.91476634  0.05518931  1
  Se  Se150  1  0.91668655  0.92597017  0.54239747  1
  Se  Se151  1  0.08615220  0.24750359  0.44012119  1
  Se  Se152  1  0.08928137  0.24624606  0.94846426  1
  Se  Se153  1  0.06977652  0.58072908  0.42545321  1
  Se  Se154  1  0.07874755  0.58839007  0.94347526  1
  Se  Se155  1  0.08838293  0.92557153  0.43997342  1
  Se  Se156  1  0.08667413  0.91834106  0.94902308  1
  Se  Se157  1  0.41392745  0.24800856  0.43842358  1
  Se  Se158  1  0.40875341  0.25090910  0.95090400  1
  Se  Se159  1  0.41399944  0.57265488  0.44375097  1
  Se  Se160  1  0.42862958  0.58015438  0.95266769  1
  Se  Se161  1  0.41161948  0.92145947  0.43511203  1
  Se  Se162  1  0.41205798  0.92261770  0.94481447  1
  Se  Se163  1  0.74647180  0.26054728  0.43574679  1
  Se  Se164  1  0.75198937  0.24643309  0.95005260  1
  Se  Se165  1  0.74926042  0.59729185  0.43474597  1
  Se  Se166  1  0.75118979  0.58617889  0.94119779  1
  Se  Se167  1  0.74773390  0.91924160  0.44644749  1
  Se  Se168  1  0.75102929  0.91411156  0.94910233  1
  Se  Se169  1  0.25068553  0.08737248  0.43728846  1
  Se  Se170  1  0.24861943  0.08425369  0.95157343  1
  Se  Se171  1  0.24988279  0.40860125  0.43439321  1
  Se  Se172  1  0.25827183  0.40741729  0.94152134  1
  Se  Se173  1  0.26315789  0.74908234  0.45049296  1
  Se  Se174  1  0.26915482  0.72448036  0.94672882  1
  Se  Se175  1  0.57972384  0.08468273  0.44353030  1
  Se  Se176  1  0.58121163  0.08254347  0.94740694  1
  Se  Se177  1  0.57821553  0.41896794  0.44685900  1
  Se  Se178  1  0.58626719  0.41512450  0.94842199  1
  Se  Se179  1  0.58520057  0.74709122  0.43910563  1
  Se  Se180  1  0.59111658  0.74379930  0.93915295  1
  Se  Se181  1  0.92373502  0.08563816  0.43211675  1
  Se  Se182  1  0.92079504  0.08414683  0.95037595  1
  Se  Se183  1  0.93022725  0.41816735  0.43827177  1
  Se  Se184  1  0.92467757  0.41223097  0.94956503  1
  Se  Se185  1  0.90492227  0.76498615  0.44012544  1
  Se  Se186  1  0.92034243  0.75069883  0.94980774  1
  Se  Se187  1  0.25669337  0.26815822  0.29375051  1
  Se  Se188  1  0.23780198  0.23703594  0.81244562  1
  Se  Se189  1  0.21801197  0.57917502  0.31246917  1
  Se  Se190  1  0.24348956  0.57770978  0.80758365  1
  Se  Se191  1  0.25117373  0.91677340  0.30195322  1
  Se  Se192  1  0.25488271  0.92361652  0.80910949  1
  Se  Se193  1  0.57367769  0.24588901  0.31272894  1
  Se  Se194  1  0.56788561  0.24530634  0.80850529  1
  Se  Se195  1  0.57716638  0.57933251  0.30876972  1
  Se  Se196  1  0.58771929  0.58475107  0.80252353  1
  Se  Se197  1  0.58133553  0.91407857  0.30206570  1
  Se  Se198  1  0.57565804  0.90964733  0.81232010  1
  Se  Se199  1  0.90405660  0.23133013  0.30570796  1
  Se  Se200  1  0.92572080  0.25041278  0.80873059  1
  Se  Se201  1  0.92066053  0.55994943  0.29843248  1
  Se  Se202  1  0.91739760  0.57875018  0.80970448  1
  Se  Se203  1  0.92163292  0.92638049  0.30157108  1
  Se  Se204  1  0.91264945  0.91304154  0.80885557  1
  Se  Se205  1  0.10805949  0.09729264  0.29017820  1
  Se  Se206  1  0.08152391  0.07798786  0.80811316  1
  Se  Se207  1  0.05768893  0.38629366  0.29324216  1
  Se  Se208  1  0.07935326  0.41190238  0.79982898  1
  Se  Se209  1  0.08232159  0.75805118  0.30985229  1
  Se  Se210  1  0.08714198  0.76153149  0.80803208  1
  Se  Se211  1  0.41292698  0.08547076  0.30243953  1
  Se  Se212  1  0.40874625  0.08209759  0.80275333  1
  Se  Se213  1  0.40794382  0.41973442  0.30140396  1
  Se  Se214  1  0.42274604  0.42667027  0.81087794  1
  Se  Se215  1  0.41525887  0.74624085  0.30082015  1
  Se  Se216  1  0.41791604  0.75785677  0.81377916  1
  Se  Se217  1  0.74140690  0.07300402  0.30193561  1
  Se  Se218  1  0.75581371  0.09170568  0.81648684  1
  Se  Se219  1  0.75407626  0.42672475  0.30798860  1
  Se  Se220  1  0.76347746  0.42300411  0.81440418  1
  Se  Se221  1  0.76476418  0.75584449  0.31186195  1
  Se  Se222  1  0.75294944  0.74765728  0.80146298  1
  Se  Se223  1  0.23144747  0.09299697  0.20087991  1
  Se  Se224  1  0.24648306  0.08406982  0.69047667  1
  Se  Se225  1  0.21665959  0.44084406  0.19639880  1
  Se  Se226  1  0.24453819  0.41713919  0.69394346  1
  Se  Se227  1  0.24677133  0.74563843  0.20223689  1
  Se  Se228  1  0.23977093  0.76383156  0.69423240  1
  Se  Se229  1  0.58030725  0.08380117  0.19654964  1
  Se  Se230  1  0.57994467  0.08849307  0.69158929  1
  Se  Se231  1  0.57704247  0.41654215  0.19091090  1
  Se  Se232  1  0.58129456  0.41570230  0.68910770  1
  Se  Se233  1  0.57263175  0.75965311  0.18464476  1
  Se  Se234  1  0.58254523  0.74676542  0.70201945  1
  Se  Se235  1  0.91917774  0.07965279  0.19227234  1
  Se  Se236  1  0.91920819  0.07744440  0.70154879  1
  Se  Se237  1  0.89559966  0.44294104  0.18966609  1
  Se  Se238  1  0.92182484  0.41630919  0.69712403  1
  Se  Se239  1  0.91981679  0.75357809  0.19725033  1
  Se  Se240  1  0.91317123  0.76137049  0.68276224  1
  Se  Se241  1  0.05389824  0.27369586  0.19597000  1
  Se  Se242  1  0.08309861  0.24831558  0.69521628  1
  Se  Se243  1  0.07180842  0.59838322  0.19654533  1
  Se  Se244  1  0.09267213  0.58152319  0.68622249  1
  Se  Se245  1  0.08163552  0.91709256  0.19591854  1
  Se  Se246  1  0.07418856  0.91636222  0.68281607  1
  Se  Se247  1  0.41326363  0.24993453  0.19561814  1
  Se  Se248  1  0.41339849  0.24398660  0.68729197  1
  Se  Se249  1  0.41392449  0.58077998  0.19862653  1
  Se  Se250  1  0.42007537  0.57219226  0.68931675  1
  Se  Se251  1  0.40840155  0.92031691  0.20031207  1
  Se  Se252  1  0.41523374  0.91927169  0.69856818  1
  Se  Se253  1  0.75145970  0.23938477  0.18867355  1
  Se  Se254  1  0.76418543  0.24329594  0.69636020  1
  Se  Se255  1  0.74703148  0.58916717  0.19107222  1
  Se  Se256  1  0.75155678  0.58290740  0.69778164  1
  Se  Se257  1  0.75145872  0.91773417  0.19529785  1
  Se  Se258  1  0.75436241  0.91354520  0.68887608  1
