# generated using pymatgen
data_In86Cu29Se144
_symmetry_space_group_name_H-M   'P 1'
_cell_length_a   17.58861497
_cell_length_b   17.58541566
_cell_length_c   23.45333716
_cell_angle_alpha   89.99449582
_cell_angle_beta   90.02177142
_cell_angle_gamma   89.99432028
_symmetry_Int_Tables_number   1
_chemical_formula_structural   In86Cu29Se144
_chemical_formula_sum   'In86 Cu29 Se144'
_cell_volume   7254.18941744
_cell_formula_units_Z   1
loop_
 _symmetry_equiv_pos_site_id
 _symmetry_equiv_pos_as_xyz
  1  'x, y, z'
loop_
 _atom_site_type_symbol
 _atom_site_label
 _atom_site_symmetry_multiplicity
 _atom_site_fract_x
 _atom_site_fract_y
 _atom_site_fract_z
 _atom_site_occupancy
  In  In0  1  0.00270845  0.17420529  0.11342766  1
  In  In1  1  -0.00143563  0.17249154  0.63271040  1
  In  In2  1  -0.01040776  0.48936020  0.12181443  1
  In  In3  1  -0.00759499  0.48579469  0.62673763  1
  In  In4  1  -0.00096753  0.83600876  0.11773820  1
  In  In5  1  0.01266604  0.84677732  0.62013076  1
  In  In6  1  0.32629877  0.17119486  0.13108805  1
  In  In7  1  0.33492142  0.12688613  0.62784172  1
  In  In8  1  0.34496162  0.49678149  0.13938227  1
  In  In9  1  0.35069794  0.50790648  0.62877974  1
  In  In10  1  0.33361520  0.83557785  0.12820797  1
  In  In11  1  0.33054515  0.84199469  0.62363550  1
  In  In12  1  0.67794094  0.15297940  0.13600497  1
  In  In13  1  0.66714510  0.16101515  0.62371799  1
  In  In14  1  0.65914472  0.48964026  0.13009178  1
  In  In15  1  0.65195145  0.48117222  0.62717104  1
  In  In16  1  0.67702156  0.85560731  0.11913350  1
  In  In17  1  0.67625367  0.84897748  0.61789035  1
  In  In18  1  0.17347400  -0.01298573  0.37855283  1
  In  In19  1  0.16491028  0.00285302  0.87738063  1
  In  In20  1  0.16904254  0.32626585  0.36459945  1
  In  In21  1  0.15002744  0.32449634  0.86998221  1
  In  In22  1  0.17868937  0.67231655  0.37284631  1
  In  In23  1  0.18423452  0.66612185  0.87388102  1
  In  In24  1  0.49944666  -0.00600674  0.37601669  1
  In  In25  1  0.48862546  -0.00937847  0.86494276  1
  In  In26  1  0.48751427  0.32196933  0.36652813  1
  In  In27  1  0.50626923  0.32080780  0.87238700  1
  In  In28  1  0.49787079  0.68483932  0.37808920  1
  In  In29  1  0.50439896  0.68596251  0.87325570  1
  In  In30  1  0.82636021  0.00976587  0.37679172  1
  In  In31  1  0.83348796  0.00622742  0.87251343  1
  In  In32  1  0.80803080  0.29210978  0.34806277  1
  In  In33  1  0.83147142  0.31940573  0.87634420  1
  In  In34  1  0.83876177  0.67738761  0.37456286  1
  In  In35  1  0.84137035  0.67448322  0.87434658  1
  In  In36  1  -0.01229908  0.16447975  0.37410294  1
  In  In37  1  0.00302389  0.16190241  0.87564369  1
  In  In38  1  0.00739471  0.48832135  0.37246466  1
  In  In39  1  0.00668609  0.49113231  0.87288951  1
  In  In40  1  -0.00510703  0.84670800  0.38365167  1
  In  In41  1  -0.00831201  0.85114082  0.88282726  1
  In  In42  1  0.33748423  0.16429918  0.37252094  1
  In  In43  1  0.33577607  0.15047354  0.87449736  1
  In  In44  1  0.34080935  0.50306410  0.36144634  1
  In  In45  1  0.32275616  0.50569307  0.87213923  1
  In  In46  1  0.33690546  0.83576666  0.37344647  1
  In  In47  1  0.33349589  0.83674407  0.87628666  1
  In  In48  1  0.66485185  0.15914581  0.37574697  1
  In  In49  1  0.67431767  0.17243895  0.86788024  1
  In  In50  1  0.67525825  0.49037743  0.37456486  1
  In  In51  1  0.67216149  0.49235003  0.87457559  1
  In  In52  1  0.66185010  0.84040478  0.37784046  1
  In  In53  1  0.65971523  0.84595224  0.87739865  1
  In  In54  1  0.16964143  0.00774021  0.11899361  1
  In  In55  1  0.17869817  -0.01053654  0.64733347  1
  In  In56  1  0.16814603  0.32752269  0.12487867  1
  In  In57  1  0.16108719  0.31511044  0.62669684  1
  In  In58  1  0.17373439  0.68010258  0.12088275  1
  In  In59  1  0.16695009  0.68800677  0.62734159  1
  In  In60  1  0.50749719  -0.00787089  0.13112537  1
  In  In61  1  0.50117209  0.00162861  0.62032294  1
  In  In62  1  0.51037883  0.32746531  0.14035616  1
  In  In63  1  0.51425843  0.33072237  0.62617019  1
  In  In64  1  0.48666757  0.67026571  0.13163494  1
  In  In65  1  0.48336563  0.66946696  0.62852337  1
  In  In66  1  0.82953026  0.00120768  0.12093088  1
  In  In67  1  0.83292809  0.00302219  0.62582635  1
  In  In68  1  0.84688280  0.30943196  0.14278835  1
  In  In69  1  0.83895213  0.31458471  0.62784822  1
  In  In70  1  0.82313111  0.68103414  0.12455415  1
  In  In71  1  0.82389181  0.67217879  0.62693051  1
  In  In72  1  0.33715988  0.33422160  0.74831457  1
  In  In73  1  0.17131558  0.15449952  0.50292508  1
  In  In74  1  0.00354383  0.66640040  0.23931260  1
  In  In75  1  0.00423170  0.66592435  0.75456817  1
  In  In76  1  0.65758883  0.66499359  0.25410878  1
  In  In77  1  -0.00182220  0.00544707  0.24801414  1
  In  In78  1  0.17015716  0.50491465  0.49346038  1
  In  In79  1  0.49702469  0.50396781  0.01079249  1
  In  In80  1  0.82987516  0.50541791  -0.00372770  1
  In  In81  1  0.65950924  0.66095755  0.74576538  1
  In  In82  1  0.50461339  0.50332957  0.49650051  1
  In  In83  1  0.83884914  0.49997515  0.49652822  1
  In  In84  1  0.16558022  0.50308496  0.00468764  1
  In  In85  1  0.49907571  0.15865639  0.00075519  1
  Cu  Cu86  1  0.66163007  0.68519222  0.00162499  1
  Cu  Cu87  1  0.49313606  0.83756134  0.74671396  1
  Cu  Cu88  1  -0.00156771  0.67867343  0.50052990  1
  Cu  Cu89  1  0.17131016  0.82981959  0.25125302  1
  Cu  Cu90  1  0.16990773  0.50085560  0.74940121  1
  Cu  Cu91  1  0.17151520  0.83767366  0.75433034  1
  Cu  Cu92  1  0.66657133  0.00064397  0.49925875  1
  Cu  Cu93  1  -0.00578138  0.32867806  0.49757358  1
  Cu  Cu94  1  0.67309457  0.32241346  0.49861835  1
  Cu  Cu95  1  0.33026788  -0.00679733  -0.00043397  1
  Cu  Cu96  1  0.66984207  0.32897037  0.00328021  1
  Cu  Cu97  1  0.50305494  0.16124423  0.74564408  1
  Cu  Cu98  1  0.66865905  0.00492966  -0.00194699  1
  Cu  Cu99  1  0.49859284  0.83643196  0.25239624  1
  Cu  Cu100  1  -0.00128966  0.00211506  -0.00340934  1
  Cu  Cu101  1  0.66678275  0.67736049  0.50297728  1
  Cu  Cu102  1  0.17024146  0.16195068  0.24587179  1
  Cu  Cu103  1  0.83083888  0.16397246  0.74994719  1
  Cu  Cu104  1  0.82907287  0.48006749  0.75024630  1
  Cu  Cu105  1  0.33968641  0.67737304  0.00074408  1
  Cu  Cu106  1  0.83295583  0.83696941  0.74895282  1
  Cu  Cu107  1  0.16855737  0.49342910  0.24708869  1
  Cu  Cu108  1  0.32761051  0.68025128  0.50160509  1
  Cu  Cu109  1  0.83534150  0.49430824  0.24998562  1
  Cu  Cu110  1  0.50205853  0.15791292  0.25350416  1
  Cu  Cu111  1  0.33594722  0.32679134  0.49401472  1
  Cu  Cu112  1  0.32400709  0.33024280  0.00489643  1
  Cu  Cu113  1  -0.00136041  0.00254056  0.50450304  1
  Cu  Cu114  1  -0.00078884  0.67871493  -0.00211321  1
  Se  Se115  1  0.08378380  0.08426035  0.04996800  1
  Se  Se116  1  0.07991940  0.07550665  0.56778037  1
  Se  Se117  1  0.07317557  0.40589998  0.05298225  1
  Se  Se118  1  0.08037611  0.40938666  0.55250610  1
  Se  Se119  1  0.08709195  0.75504245  0.05172724  1
  Se  Se120  1  0.08791456  0.75738498  0.55096278  1
  Se  Se121  1  0.40852732  0.07373880  0.06277173  1
  Se  Se122  1  0.42768298  0.09151219  0.55021296  1
  Se  Se123  1  0.41155665  0.40202605  0.06349187  1
  Se  Se124  1  0.41304964  0.41051930  0.55516788  1
  Se  Se125  1  0.42136932  0.75706237  0.05713980  1
  Se  Se126  1  0.41564441  0.75613024  0.55593734  1
  Se  Se127  1  0.74945107  0.08881138  0.05220048  1
  Se  Se128  1  0.75172069  0.08298491  0.55301781  1
  Se  Se129  1  0.74783398  0.41410072  0.06016731  1
  Se  Se130  1  0.74789268  0.41005543  0.55777492  1
  Se  Se131  1  0.75294133  0.76343542  0.05084714  1
  Se  Se132  1  0.75630020  0.75636953  0.55322596  1
  Se  Se133  1  0.24479043  0.24120625  0.05421241  1
  Se  Se134  1  0.26153975  0.25006760  0.55973363  1
  Se  Se135  1  0.26682318  0.58658593  0.06009807  1
  Se  Se136  1  0.25584947  0.59079544  0.56081097  1
  Se  Se137  1  0.24800339  0.91255591  0.05676925  1
  Se  Se138  1  0.24225054  0.92703801  0.56157603  1
  Se  Se139  1  0.58642391  0.24936173  0.06139966  1
  Se  Se140  1  0.58525866  0.24661031  0.55350715  1
  Se  Se141  1  0.59333608  0.59704620  0.06332275  1
  Se  Se142  1  0.59139645  0.59175057  0.56243092  1
  Se  Se143  1  0.58188166  0.92322672  0.05010851  1
  Se  Se144  1  0.58156510  0.91612548  0.55024648  1
  Se  Se145  1  0.90543221  0.25213454  0.05339494  1
  Se  Se146  1  0.91847536  0.24185657  0.55279379  1
  Se  Se147  1  0.92135865  0.59714668  0.05879031  1
  Se  Se148  1  0.92591249  0.59233836  0.56108810  1
  Se  Se149  1  0.91544230  0.92068301  0.05269813  1
  Se  Se150  1  0.91453424  0.91680967  0.55635709  1
  Se  Se151  1  0.08445325  0.25124840  0.44214304  1
  Se  Se152  1  0.08178113  0.24789132  0.94595000  1
  Se  Se153  1  0.07252920  0.59524260  0.43844194  1
  Se  Se154  1  0.07657826  0.59363387  0.93949979  1
  Se  Se155  1  0.08454219  0.92045123  0.45156915  1
  Se  Se156  1  0.08807020  0.91695507  0.95020636  1
  Se  Se157  1  0.42080289  0.24258752  0.44500922  1
  Se  Se158  1  0.40787619  0.25485998  0.94335817  1
  Se  Se159  1  0.40433258  0.59233038  0.44308844  1
  Se  Se160  1  0.41348161  0.58973721  0.94114392  1
  Se  Se161  1  0.43067095  0.89952530  0.44398328  1
  Se  Se162  1  0.41956434  0.91712460  0.94587552  1
  Se  Se163  1  0.75569330  0.24186744  0.44350178  1
  Se  Se164  1  0.74744204  0.24356969  0.94835196  1
  Se  Se165  1  0.74268268  0.59411741  0.44234488  1
  Se  Se166  1  0.73620112  0.60042264  0.94041348  1
  Se  Se167  1  0.75142137  0.91886170  0.44460785  1
  Se  Se168  1  0.75166406  0.92098285  0.94290370  1
  Se  Se169  1  0.26533168  0.06881104  0.44471677  1
  Se  Se170  1  0.25104178  0.08235941  0.94853562  1
  Se  Se171  1  0.25850723  0.41015137  0.43626390  1
  Se  Se172  1  0.25091043  0.41070745  0.94108106  1
  Se  Se173  1  0.24574880  0.75973157  0.44496046  1
  Se  Se174  1  0.25050772  0.75316931  0.94725239  1
  Se  Se175  1  0.58084657  0.08053550  0.44517178  1
  Se  Se176  1  0.58570362  0.07721865  0.93318520  1
  Se  Se177  1  0.59005333  0.40350065  0.44121177  1
  Se  Se178  1  0.58524937  0.41029449  0.94770548  1
  Se  Se179  1  0.58211216  0.75737681  0.44957845  1
  Se  Se180  1  0.57680602  0.76460437  0.94794180  1
  Se  Se181  1  0.91647592  0.08331292  0.44841487  1
  Se  Se182  1  0.91300675  0.08527842  0.94559848  1
  Se  Se183  1  0.91568708  0.40404566  0.43435671  1
  Se  Se184  1  0.92085233  0.41171394  0.94227517  1
  Se  Se185  1  0.91163711  0.75812546  0.44827181  1
  Se  Se186  1  0.91092517  0.75860123  0.94708593  1
  Se  Se187  1  0.25525091  0.24397803  0.30054538  1
  Se  Se188  1  0.25129155  0.24507927  0.81042556  1
  Se  Se189  1  0.24440134  0.58206897  0.30144518  1
  Se  Se190  1  0.25393919  0.58806132  0.79589762  1
  Se  Se191  1  0.25290583  0.91645052  0.30228218  1
  Se  Se192  1  0.25317600  0.92257082  0.80811425  1
  Se  Se193  1  0.58367708  0.24485746  0.30575936  1
  Se  Se194  1  0.58429742  0.24755656  0.79792452  1
  Se  Se195  1  0.57454829  0.57698193  0.31986580  1
  Se  Se196  1  0.57595475  0.57651832  0.81412101  1
  Se  Se197  1  0.58633070  0.91855435  0.30292634  1
  Se  Se198  1  0.58294935  0.91635588  0.79889106  1
  Se  Se199  1  0.93411720  0.25699782  0.29962450  1
  Se  Se200  1  0.91598803  0.24414739  0.80571202  1
  Se  Se201  1  0.91457101  0.57846477  0.30719713  1
  Se  Se202  1  0.90597836  0.56969948  0.80666974  1
  Se  Se203  1  0.90937707  0.91504181  0.30764821  1
  Se  Se204  1  0.91542115  0.91899527  0.80367737  1
  Se  Se205  1  0.09330318  0.08637165  0.31290082  1
  Se  Se206  1  0.07055457  0.06712074  0.80734437  1
  Se  Se207  1  0.08411984  0.41112635  0.29911300  1
  Se  Se208  1  0.08430016  0.41676775  0.79793310  1
  Se  Se209  1  0.08159986  0.75702076  0.30944543  1
  Se  Se210  1  0.08896952  0.75811593  0.81558104  1
  Se  Se211  1  0.41639191  0.07618954  0.30541355  1
  Se  Se212  1  0.41397028  0.08144410  0.79667983  1
  Se  Se213  1  0.41432079  0.41059463  0.29867571  1
  Se  Se214  1  0.42237442  0.42128379  0.81483957  1
  Se  Se215  1  0.41455438  0.74936816  0.30127620  1
  Se  Se216  1  0.41411809  0.75391997  0.80324797  1
  Se  Se217  1  0.76912829  0.10682465  0.30589512  1
  Se  Se218  1  0.74540864  0.07923002  0.80035934  1
  Se  Se219  1  0.74755878  0.41199199  0.29943584  1
  Se  Se220  1  0.74609414  0.40332507  0.80778799  1
  Se  Se221  1  0.75311189  0.75735522  0.30569270  1
  Se  Se222  1  0.75166926  0.75266049  0.80529839  1
  Se  Se223  1  0.25218847  0.07486263  0.19620860  1
  Se  Se224  1  0.22429285  0.11235255  0.69675727  1
  Se  Se225  1  0.25141480  0.40937121  0.19411550  1
  Se  Se226  1  0.24588223  0.42208700  0.68376944  1
  Se  Se227  1  0.25445687  0.74622189  0.19812788  1
  Se  Se228  1  0.25418197  0.75632115  0.69850658  1
  Se  Se229  1  0.58730325  0.07578651  0.20074178  1
  Se  Se230  1  0.58638719  0.07692388  0.69323840  1
  Se  Se231  1  0.56216840  0.43849650  0.20116741  1
  Se  Se232  1  0.57180954  0.41729664  0.70368464  1
  Se  Se233  1  0.58248713  0.76174556  0.18887904  1
  Se  Se234  1  0.57982172  0.76106618  0.68689354  1
  Se  Se235  1  0.91338830  0.09498783  0.18667593  1
  Se  Se236  1  0.91620315  0.08260273  0.69634412  1
  Se  Se237  1  0.92255851  0.41217406  0.20012562  1
  Se  Se238  1  0.91742036  0.40305923  0.69702291  1
  Se  Se239  1  0.90844782  0.76427209  0.19402120  1
  Se  Se240  1  0.91544414  0.75459433  0.69189882  1
  Se  Se241  1  0.08528331  0.24251527  0.19189349  1
  Se  Se242  1  0.07635572  0.25755310  0.70276687  1
  Se  Se243  1  0.09382729  0.57246497  0.18129154  1
  Se  Se244  1  0.08831777  0.57776091  0.68596516  1
  Se  Se245  1  0.08965403  0.90991720  0.19174161  1
  Se  Se246  1  0.07693117  0.91420920  0.70565542  1
  Se  Se247  1  0.41952149  0.24223445  0.19910546  1
  Se  Se248  1  0.41896980  0.23958478  0.68535934  1
  Se  Se249  1  0.41958209  0.58636627  0.20478839  1
  Se  Se250  1  0.42436156  0.58238897  0.70399042  1
  Se  Se251  1  0.41453180  0.91922133  0.19824514  1
  Se  Se252  1  0.41448731  0.92423713  0.69223982  1
  Se  Se253  1  0.72042433  0.27435658  0.18975010  1
  Se  Se254  1  0.74535883  0.24668211  0.69599384  1
  Se  Se255  1  0.75685124  0.57837826  0.19234691  1
  Se  Se256  1  0.75525012  0.56610978  0.69002525  1
  Se  Se257  1  0.74869639  0.92846178  0.19624107  1
  Se  Se258  1  0.74925618  0.92049361  0.69684100  1
