# generated using pymatgen
data_In86Cu29Se144
_symmetry_space_group_name_H-M   'P 1'
_cell_length_a   17.57094489
_cell_length_b   17.57031226
_cell_length_c   23.42393791
_cell_angle_alpha   89.99619108
_cell_angle_beta   89.99462328
_cell_angle_gamma   90.00616960
_symmetry_Int_Tables_number   1
_chemical_formula_structural   In86Cu29Se144
_chemical_formula_sum   'In86 Cu29 Se144'
_cell_volume   7231.60171929
_cell_formula_units_Z   1
loop_
 _symmetry_equiv_pos_site_id
 _symmetry_equiv_pos_as_xyz
  1  'x, y, z'
loop_
 _atom_site_type_symbol
 _atom_site_label
 _atom_site_symmetry_multiplicity
 _atom_site_fract_x
 _atom_site_fract_y
 _atom_site_fract_z
 _atom_site_occupancy
  In  In0  1  -0.00898462  0.17241968  0.12886571  1
  In  In1  1  -0.02031219  0.15611058  0.61266419  1
  In  In2  1  -0.00746554  0.50204003  0.13756473  1
  In  In3  1  0.00556060  0.48737823  0.62069379  1
  In  In4  1  -0.01034610  0.83933964  0.13084566  1
  In  In5  1  -0.00457641  0.85023658  0.62156347  1
  In  In6  1  0.34201702  0.16159868  0.13713366  1
  In  In7  1  0.33651933  0.16875274  0.61397845  1
  In  In8  1  0.35393438  0.48879872  0.14776037  1
  In  In9  1  0.35387393  0.50878708  0.61056285  1
  In  In10  1  0.34654479  0.82063645  0.13804266  1
  In  In11  1  0.34649369  0.82718101  0.61361666  1
  In  In12  1  0.65987310  0.15927646  0.12116566  1
  In  In13  1  0.65663635  0.15099599  0.61979074  1
  In  In14  1  0.67062499  0.50516204  0.12534918  1
  In  In15  1  0.66122216  0.51063680  0.62951818  1
  In  In16  1  0.66808912  0.83633639  0.12687220  1
  In  In17  1  0.66783629  0.83152126  0.61871307  1
  In  In18  1  0.15829488  -0.00774519  0.36666746  1
  In  In19  1  0.15784795  0.01671538  0.87618301  1
  In  In20  1  0.17525385  0.34881003  0.35280313  1
  In  In21  1  0.16272888  0.32122660  0.87930021  1
  In  In22  1  0.17666388  0.66420925  0.36003831  1
  In  In23  1  0.17578313  0.66271355  0.88250812  1
  In  In24  1  0.50447371  -0.00073424  0.37294717  1
  In  In25  1  0.51438563  -0.01239311  0.88559839  1
  In  In26  1  0.48397071  0.34438414  0.39153472  1
  In  In27  1  0.49568894  0.33705292  0.88653512  1
  In  In28  1  0.50251316  0.66838782  0.36660665  1
  In  In29  1  0.52044067  0.65359540  0.88661182  1
  In  In30  1  0.83380087  0.00167932  0.37402611  1
  In  In31  1  0.82843343  -0.00211213  0.87367790  1
  In  In32  1  0.83701958  0.32194224  0.37203849  1
  In  In33  1  0.83357384  0.33461241  0.89394924  1
  In  In34  1  0.84034533  0.67743443  0.36942608  1
  In  In35  1  0.81643247  0.68401761  0.89090131  1
  In  In36  1  -0.00997408  0.15757124  0.36536792  1
  In  In37  1  0.00182612  0.16227132  0.87828850  1
  In  In38  1  0.01111227  0.50651693  0.35259509  1
  In  In39  1  -0.00575862  0.48637230  0.88313606  1
  In  In40  1  -0.00505253  0.83198546  0.37378308  1
  In  In41  1  -0.02105917  0.83528550  0.87839178  1
  In  In42  1  0.34506042  0.17601901  0.36616169  1
  In  In43  1  0.33194777  0.17841634  0.88003640  1
  In  In44  1  0.36058274  0.51431644  0.34694236  1
  In  In45  1  0.34353891  0.50373583  0.88024666  1
  In  In46  1  0.33838866  0.84051698  0.36810292  1
  In  In47  1  0.34409963  0.84539106  0.87687554  1
  In  In48  1  0.67754217  0.16106622  0.37852646  1
  In  In49  1  0.67405955  0.15953448  0.88208885  1
  In  In50  1  0.63889601  0.50405395  0.36960258  1
  In  In51  1  0.65842184  0.51170930  0.88509282  1
  In  In52  1  0.66754067  0.83478515  0.37143260  1
  In  In53  1  0.66681822  0.83352824  0.87665907  1
  In  In54  1  0.16395926  0.00417815  0.13485334  1
  In  In55  1  0.15431048  -0.00860331  0.62198617  1
  In  In56  1  0.16558170  0.34619209  0.14148191  1
  In  In57  1  0.16988691  0.32666563  0.61878414  1
  In  In58  1  0.17239700  0.64789101  0.14235052  1
  In  In59  1  0.16726547  0.65644637  0.62276884  1
  In  In60  1  0.50534546  0.00127382  0.13044694  1
  In  In61  1  0.51255103  0.00125471  0.61767764  1
  In  In62  1  0.50107020  0.33231901  0.12589683  1
  In  In63  1  0.50414013  0.33457444  0.61188992  1
  In  In64  1  0.50342430  0.66820316  0.12941912  1
  In  In65  1  0.50646292  0.67677386  0.61129777  1
  In  In66  1  0.83231192  -0.00155183  0.12420873  1
  In  In67  1  0.82984201  -0.00499342  0.62083486  1
  In  In68  1  0.84131647  0.33491474  0.11395331  1
  In  In69  1  0.84838359  0.33044174  0.62133948  1
  In  In70  1  0.82931117  0.66982246  0.13092470  1
  In  In71  1  0.81127089  0.66119661  0.62302144  1
  In  In72  1  0.18338874  0.50459145  0.47897276  1
  In  In73  1  0.16617986  0.83222197  0.01604247  1
  In  In74  1  0.16650040  0.17163573  0.00264449  1
  In  In75  1  0.16773110  0.50006317  0.01767779  1
  In  In76  1  0.16860628  0.83266421  0.48563277  1
  In  In77  1  0.83024901  0.49809101  0.49842152  1
  In  In78  1  0.66527183  0.33067386  0.24920724  1
  In  In79  1  0.66590978  0.32856577  0.74999893  1
  In  In80  1  0.34200940  0.67691826  0.73418627  1
  In  In81  1  0.33435223  0.00432026  0.74782881  1
  In  In82  1  0.17404802  0.17060949  0.49133297  1
  In  In83  1  -0.00760909  0.33101261  0.76053172  1
  In  In84  1  -0.01488998  0.68025071  0.75973650  1
  In  In85  1  0.33782914  0.33916363  0.75184958  1
  Cu  Cu86  1  -0.00264275  0.67295125  0.49651830  1
  Cu  Cu87  1  0.50564696  0.16880774  0.25422187  1
  Cu  Cu88  1  0.00495528  0.33122426  0.48453054  1
  Cu  Cu89  1  0.49963797  0.16204309  0.75158775  1
  Cu  Cu90  1  0.33213043  0.33788846  0.01129508  1
  Cu  Cu91  1  0.34909074  0.67154490  0.00696848  1
  Cu  Cu92  1  -0.00634443  0.66011771  0.01214650  1
  Cu  Cu93  1  0.16899074  0.16119101  0.25229067  1
  Cu  Cu94  1  0.34729508  -0.00041551  0.00974370  1
  Cu  Cu95  1  0.83321359  0.16009076  0.24830691  1
  Cu  Cu96  1  0.17332091  0.50581231  0.74503540  1
  Cu  Cu97  1  0.66696976  0.67141193  0.00870999  1
  Cu  Cu98  1  0.14874109  0.16042208  0.74296062  1
  Cu  Cu99  1  0.66934940  -0.00561318  0.49599584  1
  Cu  Cu100  1  0.66384578  0.66625610  0.49348157  1
  Cu  Cu101  1  0.15555095  0.84070028  0.74866971  1
  Cu  Cu102  1  -0.00705361  -0.00542710  -0.00044254  1
  Cu  Cu103  1  0.50788377  0.82778946  0.74845224  1
  Cu  Cu104  1  0.33930501  0.00037797  0.49294464  1
  Cu  Cu105  1  0.16162765  0.83306026  0.24922791  1
  Cu  Cu106  1  0.83118045  0.83647482  0.25001122  1
  Cu  Cu107  1  0.82730789  0.50004839  0.24870215  1
  Cu  Cu108  1  0.82360019  0.50607124  0.76086358  1
  Cu  Cu109  1  0.66652254  -0.00155703  0.00263246  1
  Cu  Cu110  1  0.66182812  0.33284091  0.00632762  1
  Cu  Cu111  1  0.50389987  0.83512631  0.25031761  1
  Cu  Cu112  1  0.82547410  0.15560505  0.74633177  1
  Cu  Cu113  1  0.82358484  0.83992961  0.75075822  1
  Cu  Cu114  1  0.66954527  0.32796457  0.49490596  1
  Se  Se115  1  0.07808663  0.07400480  0.05699081  1
  Se  Se116  1  0.08093105  0.07970908  0.55009067  1
  Se  Se117  1  0.07139218  0.40718223  0.06537371  1
  Se  Se118  1  0.08819595  0.41185497  0.54417664  1
  Se  Se119  1  0.08053614  0.73456652  0.07137776  1
  Se  Se120  1  0.08232427  0.74692197  0.55754744  1
  Se  Se121  1  0.42352993  0.08965625  0.06163050  1
  Se  Se122  1  0.41881390  0.07944700  0.55299568  1
  Se  Se123  1  0.41698045  0.42251737  0.06113694  1
  Se  Se124  1  0.41154529  0.40713047  0.54696221  1
  Se  Se125  1  0.42805592  0.75973773  0.05797278  1
  Se  Se126  1  0.41196644  0.74158600  0.54181105  1
  Se  Se127  1  0.75101514  0.08257134  0.05443544  1
  Se  Se128  1  0.74905716  0.08123804  0.55133636  1
  Se  Se129  1  0.74626433  0.41773235  0.05562692  1
  Se  Se130  1  0.74352670  0.40834178  0.56261622  1
  Se  Se131  1  0.75382052  0.75445089  0.05793041  1
  Se  Se132  1  0.74926509  0.74733191  0.54746683  1
  Se  Se133  1  0.25176078  0.25726532  0.06977183  1
  Se  Se134  1  0.26552153  0.26797575  0.54499349  1
  Se  Se135  1  0.26803606  0.58875904  0.06580438  1
  Se  Se136  1  0.26119616  0.59812149  0.54851992  1
  Se  Se137  1  0.26098603  0.92372121  0.06887237  1
  Se  Se138  1  0.25597036  0.92408416  0.55442497  1
  Se  Se139  1  0.57770847  0.24747167  0.05573648  1
  Se  Se140  1  0.58776540  0.24518508  0.55108341  1
  Se  Se141  1  0.58223409  0.58483545  0.05761969  1
  Se  Se142  1  0.58669838  0.57990645  0.55006527  1
  Se  Se143  1  0.58284398  0.91795764  0.05791249  1
  Se  Se144  1  0.58317151  0.91104883  0.54809619  1
  Se  Se145  1  0.91053903  0.23565213  0.05079674  1
  Se  Se146  1  0.91997419  0.25534957  0.54309197  1
  Se  Se147  1  0.91012713  0.57819003  0.06459527  1
  Se  Se148  1  0.92485944  0.58700747  0.55953447  1
  Se  Se149  1  0.91179325  0.91094498  0.05359066  1
  Se  Se150  1  0.91270165  0.91724777  0.54863200  1
  Se  Se151  1  0.08752267  0.25497829  0.42518650  1
  Se  Se152  1  0.06546057  0.26164085  0.95127921  1
  Se  Se153  1  0.07601985  0.59295635  0.43542537  1
  Se  Se154  1  0.07855389  0.58800205  0.94904154  1
  Se  Se155  1  0.06938960  0.92915396  0.44456487  1
  Se  Se156  1  0.08294306  0.91811248  0.94332177  1
  Se  Se157  1  0.42666816  0.23180048  0.44749356  1
  Se  Se158  1  0.41143648  0.25274482  0.95359081  1
  Se  Se159  1  0.42146895  0.57903820  0.43261549  1
  Se  Se160  1  0.42280093  0.58139251  0.95189506  1
  Se  Se161  1  0.42092325  0.91418824  0.44207321  1
  Se  Se162  1  0.42332453  0.91263288  0.95401118  1
  Se  Se163  1  0.75840712  0.24758292  0.44728086  1
  Se  Se164  1  0.74496300  0.24804665  0.95323956  1
  Se  Se165  1  0.74509986  0.58509022  0.43401463  1
  Se  Se166  1  0.74902717  0.58375815  0.95468400  1
  Se  Se167  1  0.75310871  0.91341753  0.44179658  1
  Se  Se168  1  0.74930596  0.91660765  0.94581502  1
  Se  Se169  1  0.25668604  0.07387188  0.43123135  1
  Se  Se170  1  0.26120330  0.07430639  0.94840728  1
  Se  Se171  1  0.27071774  0.41329524  0.42438498  1
  Se  Se172  1  0.25246800  0.41097295  0.94422287  1
  Se  Se173  1  0.26100313  0.73876772  0.43493800  1
  Se  Se174  1  0.26161430  0.74884770  0.94920706  1
  Se  Se175  1  0.58724367  0.08100840  0.44404478  1
  Se  Se176  1  0.58246485  0.08554165  0.95053192  1
  Se  Se177  1  0.58614484  0.41871519  0.45069713  1
  Se  Se178  1  0.58192624  0.41911234  0.95121908  1
  Se  Se179  1  0.58324103  0.75016049  0.43902595  1
  Se  Se180  1  0.58603826  0.75406239  0.95038699  1
  Se  Se181  1  0.90544276  0.09615976  0.44177390  1
  Se  Se182  1  0.91589511  0.07944494  0.94249018  1
  Se  Se183  1  0.92519257  0.42103699  0.43260363  1
  Se  Se184  1  0.91575814  0.41906345  0.95907051  1
  Se  Se185  1  0.91182694  0.75527255  0.44753706  1
  Se  Se186  1  0.91887333  0.74918226  0.95542511  1
  Se  Se187  1  0.25609440  0.24934083  0.29666024  1
  Se  Se188  1  0.23703797  0.23900658  0.80061005  1
  Se  Se189  1  0.23110085  0.55245484  0.30093555  1
  Se  Se190  1  0.25448529  0.58380466  0.80479523  1
  Se  Se191  1  0.24820369  0.91625820  0.30016211  1
  Se  Se192  1  0.24066701  0.91641655  0.81029146  1
  Se  Se193  1  0.58118907  0.24934148  0.31815183  1
  Se  Se194  1  0.57382284  0.24477187  0.81426504  1
  Se  Se195  1  0.58659250  0.59233102  0.29294266  1
  Se  Se196  1  0.58515284  0.58155189  0.80532441  1
  Se  Se197  1  0.58782488  0.92010285  0.30163038  1
  Se  Se198  1  0.58339331  0.91511259  0.80475436  1
  Se  Se199  1  0.91616541  0.24920840  0.29613602  1
  Se  Se200  1  0.89673181  0.23962295  0.81236706  1
  Se  Se201  1  0.91147849  0.58726729  0.29850764  1
  Se  Se202  1  0.90724401  0.58167892  0.82161516  1
  Se  Se203  1  0.91669873  0.91757794  0.30418923  1
  Se  Se204  1  0.91389652  0.91793616  0.80197065  1
  Se  Se205  1  0.07900211  0.07828925  0.29897090  1
  Se  Se206  1  0.07009810  0.07982867  0.80085054  1
  Se  Se207  1  0.05956914  0.39354846  0.29412471  1
  Se  Se208  1  0.09664946  0.42457095  0.80924538  1
  Se  Se209  1  0.08113394  0.75010950  0.30545157  1
  Se  Se210  1  0.09221028  0.75720996  0.81702742  1
  Se  Se211  1  0.42030355  0.08035612  0.30265751  1
  Se  Se212  1  0.41865898  0.08779222  0.81627522  1
  Se  Se213  1  0.42754323  0.39947523  0.29941013  1
  Se  Se214  1  0.43127470  0.42830667  0.80707145  1
  Se  Se215  1  0.41539147  0.75269586  0.29946753  1
  Se  Se216  1  0.42269331  0.75311594  0.81021368  1
  Se  Se217  1  0.74781499  0.08029779  0.30164097  1
  Se  Se218  1  0.74173692  0.07911689  0.80421181  1
  Se  Se219  1  0.75154877  0.42263895  0.31436714  1
  Se  Se220  1  0.75200940  0.41474359  0.81689219  1
  Se  Se221  1  0.74859219  0.74994204  0.30155855  1
  Se  Se222  1  0.74940255  0.75028046  0.80606127  1
  Se  Se223  1  0.25588632  0.07729739  0.20184711  1
  Se  Se224  1  0.24003122  0.09135609  0.68453192  1
  Se  Se225  1  0.24570011  0.43004953  0.20835589  1
  Se  Se226  1  0.24988934  0.42612880  0.68303153  1
  Se  Se227  1  0.24857734  0.74801179  0.20104076  1
  Se  Se228  1  0.23657962  0.76647787  0.68498176  1
  Se  Se229  1  0.58778291  0.08523138  0.20070011  1
  Se  Se230  1  0.58100385  0.07822160  0.69793959  1
  Se  Se231  1  0.57691433  0.42705421  0.19493514  1
  Se  Se232  1  0.57411098  0.41749836  0.69182638  1
  Se  Se233  1  0.58786345  0.75239276  0.19712787  1
  Se  Se234  1  0.58550657  0.74652908  0.68883473  1
  Se  Se235  1  0.91865937  0.07747144  0.19435047  1
  Se  Se236  1  0.91357255  0.07934893  0.69201346  1
  Se  Se237  1  0.90511067  0.40979401  0.19702667  1
  Se  Se238  1  0.90682146  0.42934402  0.69842537  1
  Se  Se239  1  0.91583800  0.74999665  0.19976427  1
  Se  Se240  1  0.90200667  0.75754563  0.68641751  1
  Se  Se241  1  0.08764572  0.24245014  0.19516817  1
  Se  Se242  1  0.07373257  0.24801693  0.68515521  1
  Se  Se243  1  0.07576635  0.58027119  0.20664774  1
  Se  Se244  1  0.07632354  0.58160767  0.69575821  1
  Se  Se245  1  0.07819352  0.91801198  0.19768184  1
  Se  Se246  1  0.07207179  0.92508495  0.69890221  1
  Se  Se247  1  0.42276205  0.25343643  0.20039943  1
  Se  Se248  1  0.42323722  0.24409559  0.69047356  1
  Se  Se249  1  0.40622548  0.60571043  0.19966861  1
  Se  Se250  1  0.43434174  0.57891224  0.68839704  1
  Se  Se251  1  0.41861074  0.92080896  0.19924134  1
  Se  Se252  1  0.42244572  0.90920223  0.69096099  1
  Se  Se253  1  0.75525085  0.24375462  0.18688760  1
  Se  Se254  1  0.75643660  0.24423757  0.68547063  1
  Se  Se255  1  0.74460003  0.58657750  0.19951898  1
  Se  Se256  1  0.74293047  0.58557343  0.70325445  1
  Se  Se257  1  0.74946105  0.92054560  0.19636516  1
  Se  Se258  1  0.74262435  0.91791192  0.69086417  1
