# generated using pymatgen
data_In86Cu29Se144
_symmetry_space_group_name_H-M   'P 1'
_cell_length_a   17.56516412
_cell_length_b   17.56793454
_cell_length_c   23.42599678
_cell_angle_alpha   89.97596411
_cell_angle_beta   90.00043019
_cell_angle_gamma   90.00718083
_symmetry_Int_Tables_number   1
_chemical_formula_structural   In86Cu29Se144
_chemical_formula_sum   'In86 Cu29 Se144'
_cell_volume   7228.87898125
_cell_formula_units_Z   1
loop_
 _symmetry_equiv_pos_site_id
 _symmetry_equiv_pos_as_xyz
  1  'x, y, z'
loop_
 _atom_site_type_symbol
 _atom_site_label
 _atom_site_symmetry_multiplicity
 _atom_site_fract_x
 _atom_site_fract_y
 _atom_site_fract_z
 _atom_site_occupancy
  In  In0  1  0.00072012  0.16367568  0.12715924  1
  In  In1  1  0.00410950  0.16957399  0.62247202  1
  In  In2  1  0.03420503  0.47033426  0.16559093  1
  In  In3  1  0.00190637  0.48408795  0.62400307  1
  In  In4  1  0.00724439  0.82041919  0.13547983  1
  In  In5  1  0.00729643  0.84145249  0.61883080  1
  In  In6  1  0.32655352  0.18589666  0.12825793  1
  In  In7  1  0.31444084  0.16236901  0.61886400  1
  In  In8  1  0.32077363  0.48647206  0.11961977  1
  In  In9  1  0.33051471  0.51689193  0.62259429  1
  In  In10  1  0.33291543  0.83008007  0.11852892  1
  In  In11  1  0.31036849  0.81476899  0.60330976  1
  In  In12  1  0.67708025  0.16259175  0.12558937  1
  In  In13  1  0.67351070  0.15556706  0.62014082  1
  In  In14  1  0.66170024  0.50911847  0.13168025  1
  In  In15  1  0.67897026  0.50696206  0.62544967  1
  In  In16  1  0.65684333  0.82639545  0.12430515  1
  In  In17  1  0.65899086  0.82424092  0.61698257  1
  In  In18  1  0.16367202  0.01133226  0.38538523  1
  In  In19  1  0.15560566  0.00497199  0.88285164  1
  In  In20  1  0.16000095  0.33554743  0.36758784  1
  In  In21  1  0.15824123  0.33644619  0.87930570  1
  In  In22  1  0.16500875  0.67201934  0.38165152  1
  In  In23  1  0.17746881  0.65811786  0.88205819  1
  In  In24  1  0.48983121  -0.00404383  0.37874812  1
  In  In25  1  0.48406569  -0.00179721  0.87716923  1
  In  In26  1  0.50909517  0.33731205  0.35734949  1
  In  In27  1  0.51217582  0.34149972  0.88268143  1
  In  In28  1  0.49951678  0.66694656  0.37644249  1
  In  In29  1  0.50067562  0.66746136  0.87712075  1
  In  In30  1  0.84385061  -0.00914508  0.38045940  1
  In  In31  1  0.86437216  0.00149844  0.86939571  1
  In  In32  1  0.83415530  0.33468804  0.36348329  1
  In  In33  1  0.84067290  0.31850857  0.88177249  1
  In  In34  1  0.84132858  0.66854685  0.36511614  1
  In  In35  1  0.82306333  0.68169240  0.86960292  1
  In  In36  1  0.00175490  0.16630228  0.37120520  1
  In  In37  1  0.00209716  0.16706795  0.87820545  1
  In  In38  1  0.01449302  0.51582919  0.35101623  1
  In  In39  1  0.01818456  0.50227701  0.87880490  1
  In  In40  1  0.00052213  0.83463030  0.37686233  1
  In  In41  1  -0.00272109  0.85403414  0.87020865  1
  In  In42  1  0.32443326  0.16753657  0.37375098  1
  In  In43  1  0.31756987  0.15903552  0.87522144  1
  In  In44  1  0.33207063  0.49583753  0.37356522  1
  In  In45  1  0.32712700  0.51006394  0.88021535  1
  In  In46  1  0.32213951  0.84285355  0.40249111  1
  In  In47  1  0.34155515  0.82766286  0.88147543  1
  In  In48  1  0.67277550  0.18684881  0.36995055  1
  In  In49  1  0.67402458  0.18015537  0.87953530  1
  In  In50  1  0.67620666  0.50610200  0.35334775  1
  In  In51  1  0.65670767  0.50501548  0.88125451  1
  In  In52  1  0.67234696  0.82855036  0.38106002  1
  In  In53  1  0.67260768  0.81924916  0.87300078  1
  In  In54  1  0.15615247  -0.01114603  0.12146947  1
  In  In55  1  0.15643721  -0.00900662  0.62052524  1
  In  In56  1  0.17005733  0.32964283  0.12680482  1
  In  In57  1  0.15700678  0.32338763  0.61066266  1
  In  In58  1  0.16119942  0.65801179  0.12111437  1
  In  In59  1  0.17094783  0.67011840  0.61432457  1
  In  In60  1  0.50863880  -0.00809368  0.12002594  1
  In  In61  1  0.51093473  -0.01362040  0.62420287  1
  In  In62  1  0.48075138  0.34026995  0.13433233  1
  In  In63  1  0.49786467  0.32658028  0.62348061  1
  In  In64  1  0.50512407  0.66826585  0.12302059  1
  In  In65  1  0.48582946  0.68035243  0.63510961  1
  In  In66  1  0.83723948  0.01292250  0.12278159  1
  In  In67  1  0.84616885  0.01187855  0.61396322  1
  In  In68  1  0.85483653  0.33004323  0.14210949  1
  In  In69  1  0.85412366  0.33431839  0.62314772  1
  In  In70  1  0.84132765  0.65532767  0.14091537  1
  In  In71  1  0.82053207  0.66631356  0.62774738  1
  In  In72  1  0.32050839  0.34005696  0.76151633  1
  In  In73  1  0.49772340  0.50297137  0.49214039  1
  In  In74  1  0.66820731  0.00072654  0.24265333  1
  In  In75  1  0.32911731  0.00550496  0.26105414  1
  In  In76  1  0.67430697  -0.00556552  0.74915370  1
  In  In77  1  0.00289270  0.66903912  0.75026384  1
  In  In78  1  0.31991740  -0.01055289  0.73565714  1
  In  In79  1  0.83305184  0.83552540  -0.00540402  1
  In  In80  1  0.50203305  0.16374583  0.49388787  1
  In  In81  1  0.33058374  0.66788999  0.25925112  1
  In  In82  1  0.49495318  0.16737938  0.00213173  1
  In  In83  1  0.84070011  0.49970715  0.01559355  1
  In  In84  1  0.84363166  0.49967457  0.49051109  1
  In  In85  1  0.67187903  0.34082011  0.75182983  1
  Cu  Cu86  1  0.32855786  0.33913794  0.00111364  1
  Cu  Cu87  1  0.49335177  0.50403759  0.24818196  1
  Cu  Cu88  1  0.48920012  0.17008491  0.74718307  1
  Cu  Cu89  1  0.83572836  0.50243376  0.75041845  1
  Cu  Cu90  1  0.66688275  0.66797078  0.00255784  1
  Cu  Cu91  1  0.16964539  0.83120105  0.74625039  1
  Cu  Cu92  1  0.16957376  0.49770949  0.75184354  1
  Cu  Cu93  1  0.84393650  0.16721527  0.74845710  1
  Cu  Cu94  1  0.00593065  0.66923961  0.00457116  1
  Cu  Cu95  1  0.83518654  0.83383821  0.25601643  1
  Cu  Cu96  1  0.32575017  -0.00239741  0.00052214  1
  Cu  Cu97  1  -0.00205999  0.66685178  0.49377958  1
  Cu  Cu98  1  0.32757156  0.33543129  0.49339685  1
  Cu  Cu99  1  0.67513694  -0.00201031  0.49814220  1
  Cu  Cu100  1  0.16374075  0.16672518  0.25183193  1
  Cu  Cu101  1  0.50057063  0.82364610  0.75165729  1
  Cu  Cu102  1  0.00472600  0.33408174  0.01122799  1
  Cu  Cu103  1  0.67594282  0.33441465  0.48848851  1
  Cu  Cu104  1  0.00099288  0.00218804  0.49757823  1
  Cu  Cu105  1  0.00336679  0.32772336  0.49335235  1
  Cu  Cu106  1  0.50314926  0.51168880  0.75209542  1
  Cu  Cu107  1  0.49608220  0.83213062  0.24999943  1
  Cu  Cu108  1  0.84031604  0.16193026  0.25109925  1
  Cu  Cu109  1  0.34096667  0.66635788  0.00151944  1
  Cu  Cu110  1  0.66246230  0.66599039  0.49924645  1
  Cu  Cu111  1  0.67008969  -0.00197743  0.00103894  1
  Cu  Cu112  1  0.66867554  0.33552861  0.00691984  1
  Cu  Cu113  1  0.15946917  0.83068282  0.25481894  1
  Cu  Cu114  1  0.00061999  0.00299356  0.00091205  1
  Se  Se115  1  0.08446542  0.08489231  0.05559091  1
  Se  Se116  1  0.08411751  0.08443619  0.55265106  1
  Se  Se117  1  0.08153520  0.42136997  0.06667028  1
  Se  Se118  1  0.08198196  0.41853954  0.54540716  1
  Se  Se119  1  0.08810163  0.75595487  0.05606262  1
  Se  Se120  1  0.08012063  0.75019685  0.55018104  1
  Se  Se121  1  0.40548551  0.07742535  0.06356714  1
  Se  Se122  1  0.42101728  0.08137084  0.56473796  1
  Se  Se123  1  0.41844133  0.41743940  0.05201659  1
  Se  Se124  1  0.41095345  0.40927507  0.55625194  1
  Se  Se125  1  0.42373389  0.75206075  0.05371753  1
  Se  Se126  1  0.42318290  0.74983564  0.55205972  1
  Se  Se127  1  0.75257276  0.08512786  0.04953728  1
  Se  Se128  1  0.75596371  0.08923540  0.54497303  1
  Se  Se129  1  0.74845595  0.40864115  0.07135965  1
  Se  Se130  1  0.75046685  0.41180346  0.55560675  1
  Se  Se131  1  0.75448791  0.74247994  0.06132991  1
  Se  Se132  1  0.75139830  0.74603889  0.55053014  1
  Se  Se133  1  0.24639975  0.25066233  0.04968906  1
  Se  Se134  1  0.24732777  0.24605403  0.54346640  1
  Se  Se135  1  0.25317408  0.58483574  0.05362061  1
  Se  Se136  1  0.23845452  0.57169344  0.54920380  1
  Se  Se137  1  0.24493768  0.91134047  0.05363389  1
  Se  Se138  1  0.25980285  0.93403820  0.55418432  1
  Se  Se139  1  0.58381327  0.25427954  0.06421958  1
  Se  Se140  1  0.59583981  0.25851186  0.55329220  1
  Se  Se141  1  0.58384006  0.58201129  0.05342250  1
  Se  Se142  1  0.58434862  0.58665605  0.56135168  1
  Se  Se143  1  0.58671643  0.91098838  0.04867752  1
  Se  Se144  1  0.58684053  0.91528020  0.54673097  1
  Se  Se145  1  0.91680899  0.25170577  0.06038456  1
  Se  Se146  1  0.91875748  0.24816784  0.54901894  1
  Se  Se147  1  0.93485871  0.58836615  0.06888600  1
  Se  Se148  1  0.92267584  0.58853596  0.56115939  1
  Se  Se149  1  0.92313334  0.91721191  0.06073884  1
  Se  Se150  1  0.91784403  0.91529279  0.54863187  1
  Se  Se151  1  0.08922606  0.24552170  0.44010568  1
  Se  Se152  1  0.08101258  0.25141056  0.94977449  1
  Se  Se153  1  0.07522082  0.57922182  0.43993093  1
  Se  Se154  1  0.08987204  0.58283573  0.95319400  1
  Se  Se155  1  0.08466362  0.91556434  0.44665514  1
  Se  Se156  1  0.08038083  0.91214218  0.95038498  1
  Se  Se157  1  0.41955839  0.26314615  0.43588195  1
  Se  Se158  1  0.40603489  0.25709893  0.93726339  1
  Se  Se159  1  0.39981413  0.59523248  0.44387147  1
  Se  Se160  1  0.42209477  0.58099528  0.94685679  1
  Se  Se161  1  0.42631766  0.91651920  0.45600909  1
  Se  Se162  1  0.41662468  0.91660354  0.95278179  1
  Se  Se163  1  0.76426427  0.25184343  0.44200088  1
  Se  Se164  1  0.75271816  0.25127447  0.95579463  1
  Se  Se165  1  0.74184371  0.58597382  0.43782747  1
  Se  Se166  1  0.75424194  0.58873489  0.94621048  1
  Se  Se167  1  0.75739890  0.91045182  0.44783740  1
  Se  Se168  1  0.74810648  0.92829420  0.93181152  1
  Se  Se169  1  0.27265080  0.07060723  0.44526144  1
  Se  Se170  1  0.24290639  0.08486638  0.95141762  1
  Se  Se171  1  0.24375970  0.41645979  0.43961540  1
  Se  Se172  1  0.24590625  0.41994042  0.94416734  1
  Se  Se173  1  0.24395625  0.74444678  0.45712725  1
  Se  Se174  1  0.25380651  0.74867197  0.94916494  1
  Se  Se175  1  0.59838244  0.07858316  0.43385495  1
  Se  Se176  1  0.58787750  0.07902239  0.93887770  1
  Se  Se177  1  0.59300141  0.41646536  0.43392146  1
  Se  Se178  1  0.58618747  0.42136920  0.95637719  1
  Se  Se179  1  0.58005238  0.74986553  0.44575122  1
  Se  Se180  1  0.58622446  0.75107683  0.94625914  1
  Se  Se181  1  0.91870377  0.08667272  0.44362121  1
  Se  Se182  1  0.91501633  0.08701968  0.94964284  1
  Se  Se183  1  0.93239195  0.41281363  0.43002135  1
  Se  Se184  1  0.92608344  0.41348547  0.94631403  1
  Se  Se185  1  0.91224781  0.74822111  0.44184390  1
  Se  Se186  1  0.92746880  0.74275819  0.93851456  1
  Se  Se187  1  0.24908687  0.25058973  0.30235428  1
  Se  Se188  1  0.22960380  0.23775495  0.80617884  1
  Se  Se189  1  0.23523610  0.57487469  0.30831211  1
  Se  Se190  1  0.25134243  0.58467555  0.80262717  1
  Se  Se191  1  0.24303042  0.90699986  0.31572333  1
  Se  Se192  1  0.24474412  0.91035245  0.81335909  1
  Se  Se193  1  0.58712064  0.24656196  0.29406923  1
  Se  Se194  1  0.57444845  0.24510485  0.80614933  1
  Se  Se195  1  0.57476150  0.58937365  0.30135821  1
  Se  Se196  1  0.58957854  0.58958693  0.80651851  1
  Se  Se197  1  0.57928558  0.91387300  0.30792990  1
  Se  Se198  1  0.57336253  0.91327970  0.80989530  1
  Se  Se199  1  0.92323845  0.25077597  0.29984063  1
  Se  Se200  1  0.92212625  0.25174997  0.80542768  1
  Se  Se201  1  0.88716159  0.55465564  0.30378233  1
  Se  Se202  1  0.91376994  0.57988364  0.81503514  1
  Se  Se203  1  0.92143424  0.91825931  0.30384391  1
  Se  Se204  1  0.89669988  0.89773396  0.79700031  1
  Se  Se205  1  0.08622167  0.07795996  0.30528232  1
  Se  Se206  1  0.06189158  0.06364911  0.81157679  1
  Se  Se207  1  0.07811253  0.40962249  0.29164066  1
  Se  Se208  1  0.08309623  0.41672322  0.80323247  1
  Se  Se209  1  0.07947346  0.74532181  0.30854926  1
  Se  Se210  1  0.09223510  0.75570267  0.81371189  1
  Se  Se211  1  0.43001250  0.09637614  0.30834612  1
  Se  Se212  1  0.41031721  0.08451020  0.80169351  1
  Se  Se213  1  0.41160585  0.41866212  0.30045412  1
  Se  Se214  1  0.42798274  0.42424701  0.81119743  1
  Se  Se215  1  0.41243918  0.76733848  0.31745859  1
  Se  Se216  1  0.41364500  0.74571459  0.80661265  1
  Se  Se217  1  0.75645504  0.08253291  0.31000236  1
  Se  Se218  1  0.75756256  0.09351785  0.80936863  1
  Se  Se219  1  0.72531448  0.38977883  0.30005329  1
  Se  Se220  1  0.76031044  0.42422030  0.81827176  1
  Se  Se221  1  0.74672039  0.75142114  0.30469713  1
  Se  Se222  1  0.75279650  0.75907797  0.79368924  1
  Se  Se223  1  0.24265335  0.08430691  0.18998633  1
  Se  Se224  1  0.22784894  0.09230215  0.69377014  1
  Se  Se225  1  0.25223803  0.41120819  0.19698682  1
  Se  Se226  1  0.24497752  0.41975385  0.68551337  1
  Se  Se227  1  0.24555052  0.75754446  0.19373393  1
  Se  Se228  1  0.24861955  0.74762693  0.69037720  1
  Se  Se229  1  0.57157025  0.09115025  0.18928327  1
  Se  Se230  1  0.57702333  0.09053597  0.69416619  1
  Se  Se231  1  0.57632362  0.42009259  0.19479242  1
  Se  Se232  1  0.57536277  0.42575656  0.68962696  1
  Se  Se233  1  0.58018117  0.74860666  0.19909329  1
  Se  Se234  1  0.58964796  0.74691876  0.69716516  1
  Se  Se235  1  0.92234073  0.07664619  0.19866895  1
  Se  Se236  1  0.92209929  0.08311998  0.69232563  1
  Se  Se237  1  0.89554260  0.44855206  0.20035855  1
  Se  Se238  1  0.91865026  0.41634009  0.70109656  1
  Se  Se239  1  0.91953788  0.74696063  0.20555943  1
  Se  Se240  1  0.91599495  0.75392391  0.68614774  1
  Se  Se241  1  0.08224744  0.24867906  0.19533414  1
  Se  Se242  1  0.07444816  0.26563390  0.68934308  1
  Se  Se243  1  0.08045422  0.60080142  0.20188525  1
  Se  Se244  1  0.08909734  0.57673509  0.68912839  1
  Se  Se245  1  0.08069819  0.91733869  0.20039808  1
  Se  Se246  1  0.08237821  0.91469758  0.69792752  1
  Se  Se247  1  0.41365702  0.24620990  0.20243110  1
  Se  Se248  1  0.40582256  0.24864352  0.69115036  1
  Se  Se249  1  0.41116552  0.58288263  0.18806600  1
  Se  Se250  1  0.41133190  0.58569546  0.69994210  1
  Se  Se251  1  0.41648909  0.91566445  0.19313051  1
  Se  Se252  1  0.42224853  0.90102776  0.68822386  1
  Se  Se253  1  0.75681622  0.24367650  0.19639723  1
  Se  Se254  1  0.75650466  0.24517064  0.69020669  1
  Se  Se255  1  0.73087422  0.60135033  0.19999322  1
  Se  Se256  1  0.74750234  0.58487495  0.70344376  1
  Se  Se257  1  0.75987193  0.90683673  0.18611543  1
  Se  Se258  1  0.75351772  0.91774937  0.67606997  1
