# generated using pymatgen
data_In86Cu29Se144
_symmetry_space_group_name_H-M   'P 1'
_cell_length_a   17.53703051
_cell_length_b   17.53775020
_cell_length_c   23.39363701
_cell_angle_alpha   90.01737528
_cell_angle_beta   90.00366873
_cell_angle_gamma   90.00879344
_symmetry_Int_Tables_number   1
_chemical_formula_structural   In86Cu29Se144
_chemical_formula_sum   'In86 Cu29 Se144'
_cell_volume   7194.94798155
_cell_formula_units_Z   1
loop_
 _symmetry_equiv_pos_site_id
 _symmetry_equiv_pos_as_xyz
  1  'x, y, z'
loop_
 _atom_site_type_symbol
 _atom_site_label
 _atom_site_symmetry_multiplicity
 _atom_site_fract_x
 _atom_site_fract_y
 _atom_site_fract_z
 _atom_site_occupancy
  In  In0  1  -0.00476696  0.17960531  0.13489516  1
  In  In1  1  -0.00987831  0.14708232  0.61363413  1
  In  In2  1  -0.00766475  0.50693182  0.14074934  1
  In  In3  1  -0.00399799  0.51314329  0.62090048  1
  In  In4  1  -0.01407519  0.83749990  0.12820585  1
  In  In5  1  -0.00526025  0.83750645  0.61976538  1
  In  In6  1  0.33524333  0.15325797  0.12455100  1
  In  In7  1  0.31851733  0.16732859  0.63983931  1
  In  In8  1  0.34715955  0.50774291  0.12423366  1
  In  In9  1  0.32499536  0.50641270  0.63079039  1
  In  In10  1  0.33923505  0.82048400  0.12533118  1
  In  In11  1  0.30861968  0.85493063  0.65069468  1
  In  In12  1  0.66398072  0.15511639  0.12950870  1
  In  In13  1  0.67674554  0.15424897  0.62373943  1
  In  In14  1  0.66881117  0.49757984  0.13324892  1
  In  In15  1  0.68289710  0.50370240  0.61701082  1
  In  In16  1  0.67014602  0.83401163  0.12315586  1
  In  In17  1  0.66612755  0.83798362  0.62326384  1
  In  In18  1  0.14643554  0.01047345  0.40543808  1
  In  In19  1  0.16331478  -0.00120594  0.84386770  1
  In  In20  1  0.14038012  0.33563833  0.37464134  1
  In  In21  1  0.17302640  0.31307133  0.86763755  1
  In  In22  1  0.16655567  0.67016326  0.36825486  1
  In  In23  1  0.17009213  0.68790891  0.85362032  1
  In  In24  1  0.50926815  -0.00132876  0.37084933  1
  In  In25  1  0.50528180  -0.00288877  0.87554137  1
  In  In26  1  0.52010326  0.31419810  0.36248597  1
  In  In27  1  0.48507237  0.32923666  0.87589330  1
  In  In28  1  0.49157287  0.66905140  0.36844816  1
  In  In29  1  0.51581898  0.67596540  0.86823778  1
  In  In30  1  0.81869719  0.01073276  0.40966074  1
  In  In31  1  0.82757862  0.00116189  0.87202436  1
  In  In32  1  0.83897983  0.33128603  0.37164569  1
  In  In33  1  0.81611538  0.32878564  0.87669814  1
  In  In34  1  0.83379542  0.66419650  0.37816512  1
  In  In35  1  0.84709677  0.68949234  0.86512846  1
  In  In36  1  -0.02131119  0.17058143  0.38948469  1
  In  In37  1  0.00032674  0.14881022  0.87012642  1
  In  In38  1  -0.00391726  0.48587286  0.36562055  1
  In  In39  1  -0.00773337  0.51662946  0.87434675  1
  In  In40  1  0.00355181  0.83619166  0.38895333  1
  In  In41  1  -0.00206408  0.83283110  0.86447159  1
  In  In42  1  0.33533501  0.15297826  0.37909265  1
  In  In43  1  0.33122362  0.17061908  0.86448637  1
  In  In44  1  0.31700232  0.50906999  0.37403760  1
  In  In45  1  0.33159870  0.49583675  0.86733223  1
  In  In46  1  0.32911135  0.82840376  0.37952101  1
  In  In47  1  0.34423368  0.84608326  0.86057992  1
  In  In48  1  0.68669978  0.17062099  0.35573161  1
  In  In49  1  0.67814241  0.15137413  0.88270139  1
  In  In50  1  0.67736974  0.51387117  0.36821838  1
  In  In51  1  0.65566982  0.50582334  0.87683615  1
  In  In52  1  0.68565617  0.84683388  0.36638277  1
  In  In53  1  0.67011303  0.83443599  0.87393993  1
  In  In54  1  0.16726555  0.00514138  0.12418330  1
  In  In55  1  0.16094591  -0.00638912  0.62431042  1
  In  In56  1  0.15811402  0.33003998  0.13461665  1
  In  In57  1  0.17829387  0.33001257  0.62330246  1
  In  In58  1  0.16692805  0.66671694  0.14230167  1
  In  In59  1  0.14339195  0.69451943  0.65042774  1
  In  In60  1  0.52159216  0.01506833  0.10947538  1
  In  In61  1  0.50505775  -0.00453359  0.63320392  1
  In  In62  1  0.51055991  0.32420059  0.13029010  1
  In  In63  1  0.49273492  0.31631243  0.62713039  1
  In  In64  1  0.49803284  0.66858203  0.12684903  1
  In  In65  1  0.48934382  0.68037774  0.63179221  1
  In  In66  1  0.82890896  -0.00838046  0.12228997  1
  In  In67  1  0.83414679  -0.00156285  0.61882336  1
  In  In68  1  0.83047675  0.31726206  0.13950305  1
  In  In69  1  0.83818653  0.32912599  0.61357007  1
  In  In70  1  0.82970680  0.67321890  0.13325235  1
  In  In71  1  0.83181993  0.67318864  0.61979727  1
  In  In72  1  0.16497537  0.83761835  -0.01082242  1
  In  In73  1  0.50861440  0.16383111  0.49777345  1
  In  In74  1  0.50414391  0.49608492  0.00577836  1
  In  In75  1  0.33313324  0.34429803  0.24913291  1
  In  In76  1  0.50506318  0.83606256  0.50523718  1
  In  In77  1  0.34052597  -0.01214541  0.25916759  1
  In  In78  1  0.16542035  0.15639255  -0.00897213  1
  In  In79  1  -0.01321969  0.00064153  0.25955946  1
  In  In80  1  0.16299492  0.50399655  0.00402027  1
  In  In81  1  0.50295933  0.50284640  0.49181641  1
  In  In82  1  0.65843579  0.33920275  0.75340628  1
  In  In83  1  0.15796673  0.49978774  0.49832544  1
  In  In84  1  0.83065034  0.50302616  0.00642935  1
  In  In85  1  0.00503060  0.33232299  0.74426863  1
  Cu  Cu86  1  0.50191073  0.50142263  0.75023895  1
  Cu  Cu87  1  0.16354731  0.17174273  0.26094838  1
  Cu  Cu88  1  0.33221301  -0.00094413  0.51159504  1
  Cu  Cu89  1  0.33449491  0.32834142  0.50559470  1
  Cu  Cu90  1  0.83517910  0.82637192  0.25534816  1
  Cu  Cu91  1  -0.00609450  0.66742708  0.50338735  1
  Cu  Cu92  1  -0.01372245  0.00074005  -0.00518438  1
  Cu  Cu93  1  0.66608996  0.31332303  0.00549492  1
  Cu  Cu94  1  0.68261887  0.33053404  0.49047376  1
  Cu  Cu95  1  0.31351871  0.67786592  0.50688914  1
  Cu  Cu96  1  0.83461180  0.51994332  0.74523844  1
  Cu  Cu97  1  -0.00343146  0.32259749  0.49679232  1
  Cu  Cu98  1  0.66714742  -0.00585957  -0.00081472  1
  Cu  Cu99  1  0.33064341  0.31834041  -0.00512068  1
  Cu  Cu100  1  0.67947314  0.67609928  -0.00238640  1
  Cu  Cu101  1  -0.01340202  0.32829014  0.00692558  1
  Cu  Cu102  1  0.49674608  0.50737397  0.25216170  1
  Cu  Cu103  1  0.34161294  -0.00366317  -0.00790877  1
  Cu  Cu104  1  0.16366868  0.83734522  0.25887108  1
  Cu  Cu105  1  0.16421506  0.49498596  0.74630229  1
  Cu  Cu106  1  0.34548444  0.67040205  -0.00515780  1
  Cu  Cu107  1  0.50809241  0.83054339  0.75331466  1
  Cu  Cu108  1  0.49803198  0.15962234  0.75042385  1
  Cu  Cu109  1  0.50558996  0.83362244  0.24662521  1
  Cu  Cu110  1  0.83114529  0.49502936  0.25325110  1
  Cu  Cu111  1  0.66839239  0.67094551  0.49581424  1
  Cu  Cu112  1  0.00325592  0.68072527  -0.00206124  1
  Cu  Cu113  1  0.83782303  0.16223597  0.74524036  1
  Cu  Cu114  1  0.82962114  0.84233597  0.74448368  1
  Se  Se115  1  0.06905645  0.07823470  0.05795243  1
  Se  Se116  1  0.09427497  0.08378969  0.55190298  1
  Se  Se117  1  0.06937648  0.41159502  0.06199879  1
  Se  Se118  1  0.07184822  0.40542104  0.56058912  1
  Se  Se119  1  0.08630574  0.75153276  0.06323283  1
  Se  Se120  1  0.08147627  0.74444856  0.55768351  1
  Se  Se121  1  0.41640699  0.08408439  0.04895398  1
  Se  Se122  1  0.41732134  0.08300998  0.56451985  1
  Se  Se123  1  0.40861903  0.40031585  0.05752701  1
  Se  Se124  1  0.41455614  0.41426660  0.55914732  1
  Se  Se125  1  0.42588382  0.75162488  0.05114946  1
  Se  Se126  1  0.40133434  0.75789660  0.56088774  1
  Se  Se127  1  0.74717595  0.07888130  0.05596453  1
  Se  Se128  1  0.76289800  0.09350131  0.54920478  1
  Se  Se129  1  0.74270378  0.40439538  0.06085239  1
  Se  Se130  1  0.75772765  0.41763736  0.54728768  1
  Se  Se131  1  0.76196108  0.75403868  0.05552287  1
  Se  Se132  1  0.74691968  0.75668686  0.55172873  1
  Se  Se133  1  0.24619555  0.24940355  0.06031974  1
  Se  Se134  1  0.25402382  0.24102438  0.55508847  1
  Se  Se135  1  0.25995289  0.59789081  0.05740847  1
  Se  Se136  1  0.23798667  0.59046909  0.56409556  1
  Se  Se137  1  0.25693387  0.92290308  0.05608442  1
  Se  Se138  1  0.25099297  0.90741494  0.55755917  1
  Se  Se139  1  0.57725111  0.23667696  0.05754066  1
  Se  Se140  1  0.59793517  0.26047409  0.55675504  1
  Se  Se141  1  0.60023374  0.59074785  0.05621457  1
  Se  Se142  1  0.58236514  0.59654057  0.55799087  1
  Se  Se143  1  0.58324272  0.90709964  0.04939670  1
  Se  Se144  1  0.59459902  0.93745602  0.55245442  1
  Se  Se145  1  0.90703950  0.24422109  0.05999475  1
  Se  Se146  1  0.91159136  0.23775373  0.54689806  1
  Se  Se147  1  0.92831795  0.59425989  0.05838779  1
  Se  Se148  1  0.90705798  0.58104577  0.54963885  1
  Se  Se149  1  0.91298856  0.91230335  0.05049423  1
  Se  Se150  1  0.91971725  0.92129488  0.54763077  1
  Se  Se151  1  0.08624064  0.24169217  0.44815335  1
  Se  Se152  1  0.07089587  0.25626361  0.94110804  1
  Se  Se153  1  0.07032325  0.58865973  0.43728450  1
  Se  Se154  1  0.08604574  0.60224962  0.93856216  1
  Se  Se155  1  0.08732237  0.90427383  0.46545360  1
  Se  Se156  1  0.07757305  0.93372660  0.93242797  1
  Se  Se157  1  0.41840482  0.25910320  0.43901156  1
  Se  Se158  1  0.41472436  0.23604688  0.94413483  1
  Se  Se159  1  0.39980738  0.59854008  0.44730241  1
  Se  Se160  1  0.41927492  0.58135054  0.93731231  1
  Se  Se161  1  0.41254926  0.92865653  0.44336163  1
  Se  Se162  1  0.42250326  0.90774567  0.94254301  1
  Se  Se163  1  0.75838818  0.24025633  0.43881442  1
  Se  Se164  1  0.75666760  0.23953554  0.95165363  1
  Se  Se165  1  0.75118909  0.58004790  0.44983558  1
  Se  Se166  1  0.75292045  0.59227925  0.93561070  1
  Se  Se167  1  0.74380758  0.90163379  0.45797588  1
  Se  Se168  1  0.75385013  0.91459432  0.94441639  1
  Se  Se169  1  0.25461519  0.08691803  0.45624019  1
  Se  Se170  1  0.25191082  0.06487535  0.92964375  1
  Se  Se171  1  0.25243402  0.40618562  0.44301977  1
  Se  Se172  1  0.24990960  0.40639882  0.94175568  1
  Se  Se173  1  0.23569722  0.75473223  0.44523278  1
  Se  Se174  1  0.26027057  0.74615291  0.93547051  1
  Se  Se175  1  0.59912967  0.08331315  0.43426205  1
  Se  Se176  1  0.58220027  0.08110993  0.94863877  1
  Se  Se177  1  0.59319635  0.40709315  0.43531263  1
  Se  Se178  1  0.59189162  0.40040389  0.94417978  1
  Se  Se179  1  0.58527586  0.74855435  0.43577600  1
  Se  Se180  1  0.58718388  0.75186854  0.94579593  1
  Se  Se181  1  0.94896251  0.05115783  0.45090768  1
  Se  Se182  1  0.90760360  0.08978356  0.94301640  1
  Se  Se183  1  0.91958610  0.41370639  0.44409456  1
  Se  Se184  1  0.91819528  0.41324113  0.94044737  1
  Se  Se185  1  0.91060743  0.75016560  0.44889702  1
  Se  Se186  1  0.91984337  0.76254139  0.94437716  1
  Se  Se187  1  0.25077508  0.25124904  0.31657982  1
  Se  Se188  1  0.24671928  0.24245037  0.79084614  1
  Se  Se189  1  0.25844143  0.59754172  0.30007929  1
  Se  Se190  1  0.24567471  0.57968408  0.80227916  1
  Se  Se191  1  0.23522045  0.92366843  0.32090721  1
  Se  Se192  1  0.23337192  0.88845657  0.79516786  1
  Se  Se193  1  0.59439278  0.24112481  0.28568732  1
  Se  Se194  1  0.57873058  0.23970157  0.81339236  1
  Se  Se195  1  0.58337531  0.59041306  0.30364329  1
  Se  Se196  1  0.58979678  0.58494588  0.79846939  1
  Se  Se197  1  0.58814283  0.91679421  0.30059111  1
  Se  Se198  1  0.59001167  0.91941480  0.80427845  1
  Se  Se199  1  0.92605079  0.24874581  0.30608876  1
  Se  Se200  1  0.90854157  0.24967739  0.80756909  1
  Se  Se201  1  0.91370147  0.58061431  0.30633034  1
  Se  Se202  1  0.92372366  0.59744214  0.79783547  1
  Se  Se203  1  0.90307083  0.91010662  0.32175936  1
  Se  Se204  1  0.91402910  0.92323329  0.80206162  1
  Se  Se205  1  0.08577200  0.08550017  0.31718769  1
  Se  Se206  1  0.09043151  0.10511390  0.79163521  1
  Se  Se207  1  0.10322698  0.43349524  0.29993129  1
  Se  Se208  1  0.08627427  0.42229034  0.81531188  1
  Se  Se209  1  0.07444357  0.75746389  0.30959681  1
  Se  Se210  1  0.07862045  0.76059313  0.78777548  1
  Se  Se211  1  0.43049820  0.09444172  0.30368057  1
  Se  Se212  1  0.41672602  0.07696976  0.80645504  1
  Se  Se213  1  0.42579822  0.42408234  0.31739433  1
  Se  Se214  1  0.41777012  0.41366214  0.80020684  1
  Se  Se215  1  0.41354271  0.76123143  0.30305610  1
  Se  Se216  1  0.42009640  0.74454419  0.80147328  1
  Se  Se217  1  0.77009117  0.06334076  0.31376862  1
  Se  Se218  1  0.74835081  0.08495429  0.79948180  1
  Se  Se219  1  0.74677417  0.41246857  0.30625563  1
  Se  Se220  1  0.75767111  0.43390103  0.80591729  1
  Se  Se221  1  0.74808196  0.74073533  0.30511305  1
  Se  Se222  1  0.74870953  0.75410751  0.79888125  1
  Se  Se223  1  0.24207965  0.08780993  0.20176002  1
  Se  Se224  1  0.26495092  0.05290201  0.69343128  1
  Se  Se225  1  0.24353516  0.43335771  0.18761214  1
  Se  Se226  1  0.25117208  0.41250607  0.69733775  1
  Se  Se227  1  0.25083174  0.76009366  0.20212455  1
  Se  Se228  1  0.27720187  0.72123741  0.68969591  1
  Se  Se229  1  0.58474551  0.06837524  0.19864037  1
  Se  Se230  1  0.58877158  0.08588547  0.69645374  1
  Se  Se231  1  0.57573342  0.42092806  0.19792109  1
  Se  Se232  1  0.57657880  0.42453067  0.68196068  1
  Se  Se233  1  0.58726763  0.74823862  0.19255288  1
  Se  Se234  1  0.58891608  0.75145007  0.69397802  1
  Se  Se235  1  0.90331041  0.08899832  0.19354240  1
  Se  Se236  1  0.91864194  0.07556374  0.69400581  1
  Se  Se237  1  0.91458309  0.40957225  0.20071041  1
  Se  Se238  1  0.90654831  0.42415702  0.69014473  1
  Se  Se239  1  0.92273536  0.74724567  0.20150767  1
  Se  Se240  1  0.91076782  0.75574231  0.69099544  1
  Se  Se241  1  0.07873658  0.25362773  0.20832875  1
  Se  Se242  1  0.08222226  0.24086697  0.67955608  1
  Se  Se243  1  0.07681482  0.58948357  0.20535644  1
  Se  Se244  1  0.07579750  0.57905665  0.69909588  1
  Se  Se245  1  0.08703588  0.91773103  0.19496593  1
  Se  Se246  1  0.08786419  0.90143924  0.69304621  1
  Se  Se247  1  0.41558374  0.24105420  0.19525073  1
  Se  Se248  1  0.41278401  0.24805641  0.70356386  1
  Se  Se249  1  0.41350606  0.59176065  0.19989040  1
  Se  Se250  1  0.41752273  0.58260666  0.69603868  1
  Se  Se251  1  0.42688569  0.91608426  0.18507970  1
  Se  Se252  1  0.42270261  0.91674748  0.70406182  1
  Se  Se253  1  0.72554025  0.25467921  0.20073257  1
  Se  Se254  1  0.75558637  0.25224015  0.69343319  1
  Se  Se255  1  0.75157008  0.58269154  0.19907167  1
  Se  Se256  1  0.74471100  0.59333215  0.69102741  1
  Se  Se257  1  0.75473497  0.90987348  0.19657951  1
  Se  Se258  1  0.74573452  0.92540126  0.69112879  1
