# generated using pymatgen
data_In86Cu29Se144
_symmetry_space_group_name_H-M   'P 1'
_cell_length_a   17.58869958
_cell_length_b   17.58361185
_cell_length_c   23.44677138
_cell_angle_alpha   89.98780502
_cell_angle_beta   89.98086683
_cell_angle_gamma   90.02776811
_symmetry_Int_Tables_number   1
_chemical_formula_structural   In86Cu29Se144
_chemical_formula_sum   'In86 Cu29 Se144'
_cell_volume   7251.44877116
_cell_formula_units_Z   1
loop_
 _symmetry_equiv_pos_site_id
 _symmetry_equiv_pos_as_xyz
  1  'x, y, z'
loop_
 _atom_site_type_symbol
 _atom_site_label
 _atom_site_symmetry_multiplicity
 _atom_site_fract_x
 _atom_site_fract_y
 _atom_site_fract_z
 _atom_site_occupancy
  In  In0  1  0.00543582  0.16817623  0.12914699  1
  In  In1  1  -0.00827413  0.17971185  0.62058616  1
  In  In2  1  0.02119283  0.47740854  0.16482848  1
  In  In3  1  0.00534579  0.52851278  0.60902744  1
  In  In4  1  0.01418870  0.82518355  0.13518903  1
  In  In5  1  0.00966718  0.81288294  0.61642074  1
  In  In6  1  0.33077121  0.16930272  0.12554856  1
  In  In7  1  0.34143400  0.16768548  0.62719260  1
  In  In8  1  0.34215357  0.49252610  0.13612933  1
  In  In9  1  0.34053942  0.49106518  0.64090637  1
  In  In10  1  0.33714761  0.82718624  0.12991598  1
  In  In11  1  0.32626322  0.83064684  0.61805188  1
  In  In12  1  0.66374946  0.16900842  0.10915391  1
  In  In13  1  0.66557288  0.17326890  0.62502302  1
  In  In14  1  0.66140690  0.50226828  0.11955231  1
  In  In15  1  0.65420587  0.48406566  0.61851582  1
  In  In16  1  0.65808049  0.84037430  0.12367144  1
  In  In17  1  0.65739105  0.84823944  0.62398266  1
  In  In18  1  0.16243701  -0.00940405  0.37252169  1
  In  In19  1  0.18093282  0.00184735  0.87357482  1
  In  In20  1  0.17095875  0.34313050  0.36275901  1
  In  In21  1  0.16525630  0.31924488  0.87717369  1
  In  In22  1  0.17996378  0.66232201  0.36453259  1
  In  In23  1  0.17002138  0.66325146  0.86131032  1
  In  In24  1  0.48074925  0.01596143  0.38714360  1
  In  In25  1  0.49095326  0.01077403  0.87866727  1
  In  In26  1  0.48221342  0.33516121  0.39150276  1
  In  In27  1  0.49892350  0.33425292  0.87540053  1
  In  In28  1  0.49034763  0.67769406  0.38512743  1
  In  In29  1  0.48582944  0.67407198  0.88048356  1
  In  In30  1  0.85165586  -0.00020856  0.37624156  1
  In  In31  1  0.83527425  0.01253121  0.87450347  1
  In  In32  1  0.83648611  0.33204583  0.37440078  1
  In  In33  1  0.82581544  0.33287194  0.87481558  1
  In  In34  1  0.84198221  0.64913323  0.38237625  1
  In  In35  1  0.84464659  0.65086749  0.87283890  1
  In  In36  1  0.00011748  0.16195218  0.37168327  1
  In  In37  1  -0.00368988  0.17396739  0.88919079  1
  In  In38  1  -0.00263869  0.49756447  0.36311080  1
  In  In39  1  -0.00634642  0.50266640  0.87076609  1
  In  In40  1  0.01174927  0.83610691  0.37413913  1
  In  In41  1  0.01378734  0.82279284  0.87580214  1
  In  In42  1  0.33597919  0.17061996  0.37176097  1
  In  In43  1  0.33569947  0.16764937  0.87415122  1
  In  In44  1  0.33565214  0.50384615  0.37084024  1
  In  In45  1  0.34041506  0.50933380  0.86648643  1
  In  In46  1  0.33536416  0.83308232  0.37666168  1
  In  In47  1  0.33339039  0.84094138  0.86599608  1
  In  In48  1  0.66347547  0.17115285  0.37726126  1
  In  In49  1  0.64407032  0.19501923  0.89698679  1
  In  In50  1  0.66171333  0.49272864  0.38520247  1
  In  In51  1  0.66597791  0.47856140  0.87123211  1
  In  In52  1  0.65530798  0.82865894  0.37759891  1
  In  In53  1  0.65363516  0.82078011  0.87083079  1
  In  In54  1  0.16090060  0.00877092  0.13393838  1
  In  In55  1  0.19207114  -0.00237943  0.61789044  1
  In  In56  1  0.18225756  0.33126316  0.13955262  1
  In  In57  1  0.17969180  0.35015204  0.62682619  1
  In  In58  1  0.17143626  0.65507293  0.14158998  1
  In  In59  1  0.16120772  0.66678029  0.62752953  1
  In  In60  1  0.49109712  -0.00139744  0.11907009  1
  In  In61  1  0.47371678  -0.00380037  0.60479163  1
  In  In62  1  0.49153350  0.32202186  0.11484886  1
  In  In63  1  0.49847526  0.33639754  0.63002687  1
  In  In64  1  0.49068896  0.66052014  0.11848069  1
  In  In65  1  0.48598867  0.65120687  0.61781827  1
  In  In66  1  0.83565997  0.01068348  0.12879700  1
  In  In67  1  0.82428187  0.00863821  0.62168246  1
  In  In68  1  0.84341190  0.33423597  0.12532041  1
  In  In69  1  0.82646870  0.32771943  0.61734264  1
  In  In70  1  0.84117733  0.65915415  0.12787929  1
  In  In71  1  0.85266495  0.66121126  0.61974566  1
  In  In72  1  0.00749607  -0.00395622  0.75233938  1
  In  In73  1  0.17085623  0.50128649  0.49158545  1
  In  In74  1  0.66709833  0.33160998  0.25105150  1
  In  In75  1  0.17388093  0.83857070  -0.00219763  1
  In  In76  1  0.83049630  0.49758305  0.00362806  1
  In  In77  1  0.66330365  0.00928866  0.74737233  1
  In  In78  1  0.66467709  0.66225792  0.74384763  1
  In  In79  1  0.00922910  0.34354369  0.74327211  1
  In  In80  1  0.16862008  0.49485260  0.00632138  1
  In  In81  1  0.82620395  0.83704407  0.49960789  1
  In  In82  1  0.82568123  0.83940569  0.00697264  1
  In  In83  1  0.67012856  0.66394106  0.25183886  1
  In  In84  1  0.66076249  0.00143774  0.24572356  1
  In  In85  1  0.16686168  0.16778437  0.50277234  1
  Cu  Cu86  1  0.66206957  0.01008072  0.50279848  1
  Cu  Cu87  1  0.83910178  0.16503710  0.25074573  1
  Cu  Cu88  1  0.17626122  0.16472470  0.75028787  1
  Cu  Cu89  1  0.84081098  0.83314757  0.25795611  1
  Cu  Cu90  1  0.48883675  0.17208610  0.24829264  1
  Cu  Cu91  1  0.84295422  0.82462496  0.74756344  1
  Cu  Cu92  1  0.84072303  0.50037727  0.74379649  1
  Cu  Cu93  1  0.33072740  0.66291135  0.49884224  1
  Cu  Cu94  1  0.00218374  0.66507567  0.00377539  1
  Cu  Cu95  1  0.00150501  0.00874048  0.00828886  1
  Cu  Cu96  1  0.49689188  0.16702547  0.75148992  1
  Cu  Cu97  1  0.33426446  0.33178454  0.00099924  1
  Cu  Cu98  1  0.66088529  -0.00573045  -0.00035880  1
  Cu  Cu99  1  0.33992961  0.66599431  -0.00044852  1
  Cu  Cu100  1  0.65451093  0.66546575  -0.00236433  1
  Cu  Cu101  1  0.83059203  0.17479073  0.75001894  1
  Cu  Cu102  1  0.66404677  0.66665130  0.50242114  1
  Cu  Cu103  1  -0.00479881  0.33680323  0.49349238  1
  Cu  Cu104  1  0.33542313  0.00766469  -0.00095848  1
  Cu  Cu105  1  0.00206767  0.32665762  0.00844611  1
  Cu  Cu106  1  0.17071533  0.16408923  0.25310434  1
  Cu  Cu107  1  0.16879342  0.82919819  0.74461890  1
  Cu  Cu108  1  0.66387003  0.33191610  0.50053401  1
  Cu  Cu109  1  0.48943340  0.83595082  0.74374477  1
  Cu  Cu110  1  0.17584674  0.83533170  0.25338582  1
  Cu  Cu111  1  0.00016088  0.00214642  0.49637775  1
  Cu  Cu112  1  0.49120135  0.83271033  0.25274412  1
  Cu  Cu113  1  0.50005854  0.49851902  0.25402659  1
  Cu  Cu114  1  0.50439067  0.49693225  0.75053606  1
  Se  Se115  1  0.09022538  0.08878860  0.05750335  1
  Se  Se116  1  0.07596783  0.07683738  0.56477144  1
  Se  Se117  1  0.07624909  0.41134327  0.06990828  1
  Se  Se118  1  0.07792940  0.41159850  0.55541004  1
  Se  Se119  1  0.09104626  0.74146275  0.05873817  1
  Se  Se120  1  0.09369248  0.74153911  0.54638249  1
  Se  Se121  1  0.41673712  0.09181330  0.05356549  1
  Se  Se122  1  0.41498093  0.10375308  0.54337345  1
  Se  Se123  1  0.41215420  0.42010548  0.05532468  1
  Se  Se124  1  0.42118054  0.42697634  0.56360747  1
  Se  Se125  1  0.41690721  0.75553660  0.05274615  1
  Se  Se126  1  0.41538385  0.74655230  0.55220662  1
  Se  Se127  1  0.74830795  0.07241529  0.05338422  1
  Se  Se128  1  0.74881422  0.09269907  0.55261114  1
  Se  Se129  1  0.74094475  0.40239682  0.05780232  1
  Se  Se130  1  0.75032329  0.41784195  0.54980513  1
  Se  Se131  1  0.73872171  0.73759165  0.06142769  1
  Se  Se132  1  0.74168316  0.74644044  0.56545056  1
  Se  Se133  1  0.24761991  0.25604439  0.05796568  1
  Se  Se134  1  0.25677560  0.26137597  0.55834481  1
  Se  Se135  1  0.25851200  0.58975193  0.06187578  1
  Se  Se136  1  0.25704093  0.58035316  0.56215934  1
  Se  Se137  1  0.25737760  0.92700914  0.06196157  1
  Se  Se138  1  0.25535870  0.91485229  0.54305978  1
  Se  Se139  1  0.58295332  0.25444821  0.04547413  1
  Se  Se140  1  0.58039200  0.25425820  0.55813362  1
  Se  Se141  1  0.57567143  0.57843767  0.05082412  1
  Se  Se142  1  0.58172882  0.57956221  0.55340292  1
  Se  Se143  1  0.57532165  0.91319836  0.05171192  1
  Se  Se144  1  0.57902942  0.92093387  0.54951296  1
  Se  Se145  1  0.91572202  0.24292517  0.05805665  1
  Se  Se146  1  0.91245402  0.25040827  0.54542825  1
  Se  Se147  1  0.92998954  0.57747300  0.06186892  1
  Se  Se148  1  0.90910337  0.58343689  0.53774892  1
  Se  Se149  1  0.92849305  0.91797627  0.06419836  1
  Se  Se150  1  0.92129692  0.92311165  0.56173325  1
  Se  Se151  1  0.08304425  0.25939836  0.43757069  1
  Se  Se152  1  0.08920027  0.24753924  0.95541175  1
  Se  Se153  1  0.08005168  0.58800470  0.43264710  1
  Se  Se154  1  0.08202551  0.58722209  0.94114314  1
  Se  Se155  1  0.08508973  0.91613848  0.44995278  1
  Se  Se156  1  0.07530684  0.92888634  0.94220691  1
  Se  Se157  1  0.42104026  0.22770953  0.45264802  1
  Se  Se158  1  0.41614126  0.24970959  0.94492299  1
  Se  Se159  1  0.41480742  0.57916632  0.44584121  1
  Se  Se160  1  0.41757210  0.57646283  0.94698329  1
  Se  Se161  1  0.43017948  0.90262793  0.44415721  1
  Se  Se162  1  0.40917492  0.91862149  0.94170441  1
  Se  Se163  1  0.74829239  0.25408278  0.44282820  1
  Se  Se164  1  0.76854717  0.23731803  0.94472403  1
  Se  Se165  1  0.74445145  0.58303222  0.44835759  1
  Se  Se166  1  0.74125706  0.58839183  0.93959828  1
  Se  Se167  1  0.73944095  0.93090080  0.43776914  1
  Se  Se168  1  0.73983784  0.91956952  0.93428729  1
  Se  Se169  1  0.24987394  0.07927930  0.43852745  1
  Se  Se170  1  0.24921669  0.08814334  0.94580771  1
  Se  Se171  1  0.26173020  0.40429522  0.44066804  1
  Se  Se172  1  0.25543394  0.41235328  0.93950121  1
  Se  Se173  1  0.25048638  0.74356132  0.44097659  1
  Se  Se174  1  0.25559118  0.74097937  0.93801328  1
  Se  Se175  1  0.58089543  0.09098208  0.44627111  1
  Se  Se176  1  0.57932994  0.08194811  0.94914716  1
  Se  Se177  1  0.57473911  0.41602008  0.45315694  1
  Se  Se178  1  0.58856542  0.40814246  0.94568891  1
  Se  Se179  1  0.58060798  0.75331742  0.45352965  1
  Se  Se180  1  0.57415070  0.75463020  0.94818271  1
  Se  Se181  1  0.91742779  0.08951592  0.44862312  1
  Se  Se182  1  0.91391256  0.08262930  0.95124337  1
  Se  Se183  1  0.91665338  0.42249006  0.43942810  1
  Se  Se184  1  0.92744264  0.40794767  0.94414274  1
  Se  Se185  1  0.92028680  0.75154990  0.44236082  1
  Se  Se186  1  0.91858930  0.74564379  0.94707979  1
  Se  Se187  1  0.25445947  0.25189730  0.30158654  1
  Se  Se188  1  0.25331301  0.25194877  0.80443375  1
  Se  Se189  1  0.24044707  0.56068762  0.29719709  1
  Se  Se190  1  0.25389338  0.58243588  0.79689275  1
  Se  Se191  1  0.25800485  0.91986596  0.30574471  1
  Se  Se192  1  0.24618085  0.91882507  0.79715189  1
  Se  Se193  1  0.56944078  0.24901003  0.31008116  1
  Se  Se194  1  0.58227661  0.24817928  0.80566504  1
  Se  Se195  1  0.57738353  0.58029396  0.31458720  1
  Se  Se196  1  0.58027924  0.58084555  0.81360183  1
  Se  Se197  1  0.57275379  0.91557192  0.30953783  1
  Se  Se198  1  0.57384424  0.91238093  0.80412506  1
  Se  Se199  1  0.91845332  0.24925683  0.30526014  1
  Se  Se200  1  0.92156946  0.24958592  0.80568813  1
  Se  Se201  1  0.91507792  0.58897871  0.30013492  1
  Se  Se202  1  0.92424796  0.58523354  0.79468100  1
  Se  Se203  1  0.92674255  0.91864903  0.30466215  1
  Se  Se204  1  0.91254534  0.90694752  0.81304819  1
  Se  Se205  1  0.08524341  0.08046850  0.30492715  1
  Se  Se206  1  0.08632365  0.09613926  0.81188312  1
  Se  Se207  1  0.07364773  0.40785922  0.29629561  1
  Se  Se208  1  0.09478777  0.42436819  0.81258708  1
  Se  Se209  1  0.09013630  0.75177865  0.30458046  1
  Se  Se210  1  0.08182550  0.74765602  0.79728631  1
  Se  Se211  1  0.41382288  0.08158582  0.30184809  1
  Se  Se212  1  0.41254489  0.08101746  0.80188208  1
  Se  Se213  1  0.42038545  0.41213495  0.30833687  1
  Se  Se214  1  0.41871716  0.41505416  0.80390932  1
  Se  Se215  1  0.41277793  0.74409679  0.30524718  1
  Se  Se216  1  0.41432715  0.75005677  0.80189032  1
  Se  Se217  1  0.75515293  0.08531633  0.30898547  1
  Se  Se218  1  0.74809045  0.09856661  0.81072989  1
  Se  Se219  1  0.75148849  0.42665352  0.30913816  1
  Se  Se220  1  0.75949288  0.41739651  0.79870191  1
  Se  Se221  1  0.75754462  0.75524604  0.31505918  1
  Se  Se222  1  0.75936286  0.74888583  0.80794233  1
  Se  Se223  1  0.25564490  0.08348744  0.19789447  1
  Se  Se224  1  0.25602721  0.08247396  0.69423167  1
  Se  Se225  1  0.23142670  0.44568646  0.19987061  1
  Se  Se226  1  0.24682706  0.41928434  0.70765672  1
  Se  Se227  1  0.25574498  0.74718899  0.20039952  1
  Se  Se228  1  0.25298079  0.74651840  0.69198616  1
  Se  Se229  1  0.57496102  0.09691655  0.18787432  1
  Se  Se230  1  0.56723753  0.08492945  0.68421723  1
  Se  Se231  1  0.57558268  0.41927321  0.19002659  1
  Se  Se232  1  0.58910376  0.41195000  0.70131334  1
  Se  Se233  1  0.57675043  0.75452683  0.19386164  1
  Se  Se234  1  0.57370708  0.75560526  0.68711489  1
  Se  Se235  1  0.92374631  0.08126606  0.19880923  1
  Se  Se236  1  0.91201132  0.08971657  0.69499887  1
  Se  Se237  1  0.90462948  0.40981810  0.20551858  1
  Se  Se238  1  0.91751528  0.42307579  0.67835134  1
  Se  Se239  1  0.91263298  0.75232084  0.19449482  1
  Se  Se240  1  0.92541943  0.74580188  0.69275882  1
  Se  Se241  1  0.08803762  0.24906190  0.19938921  1
  Se  Se242  1  0.09601158  0.24209088  0.68762857  1
  Se  Se243  1  0.05579129  0.61063412  0.19906225  1
  Se  Se244  1  0.08706046  0.57206084  0.69220072  1
  Se  Se245  1  0.08769094  0.91657635  0.20131528  1
  Se  Se246  1  0.09027873  0.91191781  0.68374864  1
  Se  Se247  1  0.41029630  0.25889692  0.19436730  1
  Se  Se248  1  0.41435561  0.25350693  0.69944595  1
  Se  Se249  1  0.42185468  0.58634191  0.19913680  1
  Se  Se250  1  0.42095622  0.58633366  0.70362899  1
  Se  Se251  1  0.41702143  0.91925889  0.19457825  1
  Se  Se252  1  0.41078659  0.91807189  0.68620380  1
  Se  Se253  1  0.75132861  0.23624519  0.19014403  1
  Se  Se254  1  0.74806460  0.25525452  0.69492458  1
  Se  Se255  1  0.75541147  0.56836031  0.19297854  1
  Se  Se256  1  0.75568606  0.57567945  0.68296448  1
  Se  Se257  1  0.75825524  0.90652126  0.19407263  1
  Se  Se258  1  0.76023328  0.91025172  0.69559739  1
