# generated using pymatgen
data_In86Cu29Se144
_symmetry_space_group_name_H-M   'P 1'
_cell_length_a   17.59290824
_cell_length_b   17.58975172
_cell_length_c   23.45838312
_cell_angle_alpha   89.99724973
_cell_angle_beta   90.03479718
_cell_angle_gamma   89.99009837
_symmetry_Int_Tables_number   1
_chemical_formula_structural   In86Cu29Se144
_chemical_formula_sum   'In86 Cu29 Se144'
_cell_volume   7259.30986577
_cell_formula_units_Z   1
loop_
 _symmetry_equiv_pos_site_id
 _symmetry_equiv_pos_as_xyz
  1  'x, y, z'
loop_
 _atom_site_type_symbol
 _atom_site_label
 _atom_site_symmetry_multiplicity
 _atom_site_fract_x
 _atom_site_fract_y
 _atom_site_fract_z
 _atom_site_occupancy
  In  In0  1  0.00283481  0.16909989  0.12993623  1
  In  In1  1  0.00497361  0.15736072  0.62054102  1
  In  In2  1  -0.00931416  0.48534231  0.12255123  1
  In  In3  1  0.00721316  0.50703696  0.61531880  1
  In  In4  1  0.01856055  0.84475307  0.13459246  1
  In  In5  1  0.00044590  0.81538100  0.62197921  1
  In  In6  1  0.31774630  0.17389487  0.12033993  1
  In  In7  1  0.32696574  0.16991424  0.63541411  1
  In  In8  1  0.34294740  0.50600903  0.11281018  1
  In  In9  1  0.31565497  0.50488039  0.62882197  1
  In  In10  1  0.33796478  0.82427287  0.13495702  1
  In  In11  1  0.33822044  0.83993129  0.62441854  1
  In  In12  1  0.68042979  0.15675542  0.12635564  1
  In  In13  1  0.65629353  0.16265917  0.62704202  1
  In  In14  1  0.66504153  0.50125505  0.12538737  1
  In  In15  1  0.67812976  0.49771043  0.62572320  1
  In  In16  1  0.66240995  0.83203025  0.12268075  1
  In  In17  1  0.65872958  0.83276661  0.63980150  1
  In  In18  1  0.17285871  0.00209123  0.37610275  1
  In  In19  1  0.17663692  0.00056980  0.87671838  1
  In  In20  1  0.15202718  0.34031030  0.38737002  1
  In  In21  1  0.17901357  0.32951630  0.88683936  1
  In  In22  1  0.17580988  0.66060224  0.37980763  1
  In  In23  1  0.15376672  0.66162330  0.86862891  1
  In  In24  1  0.49279156  -0.00806801  0.36321739  1
  In  In25  1  0.49244987  -0.01385138  0.87194266  1
  In  In26  1  0.50021931  0.32307943  0.36532775  1
  In  In27  1  0.49535187  0.35087972  0.87426999  1
  In  In28  1  0.49824494  0.66886598  0.36725067  1
  In  In29  1  0.50862614  0.66260510  0.88272616  1
  In  In30  1  0.83255894  -0.00279432  0.36439557  1
  In  In31  1  0.82819230  0.01411345  0.88132545  1
  In  In32  1  0.84611531  0.34602837  0.36479255  1
  In  In33  1  0.82759943  0.33890220  0.88801708  1
  In  In34  1  0.82208678  0.66787857  0.37163982  1
  In  In35  1  0.82413654  0.65416011  0.87215444  1
  In  In36  1  0.01401359  0.17849418  0.36896420  1
  In  In37  1  -0.00342087  0.17631093  0.88576608  1
  In  In38  1  0.00503480  0.48741681  0.38138985  1
  In  In39  1  -0.00533262  0.50271270  0.88071079  1
  In  In40  1  0.00885052  0.84863315  0.36657781  1
  In  In41  1  0.01189922  0.82855876  0.87170093  1
  In  In42  1  0.32974213  0.15454254  0.37103587  1
  In  In43  1  0.32654374  0.15968275  0.87407841  1
  In  In44  1  0.32034367  0.50361781  0.37553239  1
  In  In45  1  0.34962588  0.48867762  0.88837405  1
  In  In46  1  0.31380814  0.82008406  0.35377962  1
  In  In47  1  0.33255516  0.84479516  0.87292605  1
  In  In48  1  0.66375445  0.16502355  0.36158606  1
  In  In49  1  0.67608234  0.17078980  0.88076123  1
  In  In50  1  0.67619837  0.50888607  0.36779195  1
  In  In51  1  0.64935997  0.52512697  0.90274166  1
  In  In52  1  0.66444139  0.83090677  0.36286348  1
  In  In53  1  0.64673213  0.81402662  0.86320375  1
  In  In54  1  0.16029316  0.00558843  0.13968186  1
  In  In55  1  0.17972704  0.00700831  0.61738622  1
  In  In56  1  0.16703786  0.32521586  0.11982688  1
  In  In57  1  0.17078193  0.34456188  0.61407401  1
  In  In58  1  0.18088755  0.67136021  0.13042247  1
  In  In59  1  0.16172506  0.64964559  0.61453147  1
  In  In60  1  0.50962709  -0.00950120  0.12620681  1
  In  In61  1  0.49522586  -0.01043006  0.63962841  1
  In  In62  1  0.49805547  0.36330522  0.11772305  1
  In  In63  1  0.49977091  0.32140059  0.63227251  1
  In  In64  1  0.50079258  0.66364778  0.12003397  1
  In  In65  1  0.49990141  0.67833840  0.63338387  1
  In  In66  1  0.83087771  0.00635268  0.12758038  1
  In  In67  1  0.83105391  -0.00995728  0.62516445  1
  In  In68  1  0.83787304  0.33038027  0.12821326  1
  In  In69  1  0.82538681  0.34257886  0.61850158  1
  In  In70  1  0.82724882  0.64996426  0.11950426  1
  In  In71  1  0.83711614  0.66245840  0.63305928  1
  In  In72  1  0.49362384  0.50105279  0.50102854  1
  In  In73  1  0.49572424  0.83373726  0.50762903  1
  In  In74  1  0.84216548  0.17598303  0.49205684  1
  In  In75  1  0.17414642  0.83385793  0.00445386  1
  In  In76  1  0.83754020  0.82795725  0.50049829  1
  In  In77  1  0.66233006  0.33980479  0.75950536  1
  In  In78  1  0.33494269  0.33467172  0.24370164  1
  In  In79  1  0.00195672  0.33560846  0.74456107  1
  In  In80  1  -0.00570506  0.66576759  0.24606956  1
  In  In81  1  0.49554681  0.16348041  0.50347300  1
  In  In82  1  0.50173874  0.17273194  0.00128040  1
  In  In83  1  -0.00088263  -0.00416435  0.74835166  1
  In  In84  1  0.82891090  0.83043445  0.00503856  1
  In  In85  1  0.33344170  0.66335634  0.74949723  1
  Cu  Cu86  1  0.16638623  0.82890176  0.74728842  1
  Cu  Cu87  1  0.82932433  0.49477774  0.24631595  1
  Cu  Cu88  1  0.67597339  0.33320319  0.00654884  1
  Cu  Cu89  1  0.82972057  0.83307979  0.24400817  1
  Cu  Cu90  1  0.82556445  0.17010597  0.75575579  1
  Cu  Cu91  1  -0.00215095  0.66402425  -0.00040294  1
  Cu  Cu92  1  0.67160837  0.34405574  0.49159545  1
  Cu  Cu93  1  0.16958715  0.16330332  0.75303942  1
  Cu  Cu94  1  0.16275824  0.49668212  0.74558127  1
  Cu  Cu95  1  0.83264088  0.50944584  0.75409846  1
  Cu  Cu96  1  0.16613341  0.17008369  0.25110708  1
  Cu  Cu97  1  0.66905028  0.00473098  0.49670446  1
  Cu  Cu98  1  0.33326001  0.00160883  -0.00078783  1
  Cu  Cu99  1  0.66613777  -0.00540805  0.00237701  1
  Cu  Cu100  1  0.49372811  0.15699293  0.75424562  1
  Cu  Cu101  1  0.16588816  0.49978950  0.25406442  1
  Cu  Cu102  1  0.83606725  0.16194866  0.24760719  1
  Cu  Cu103  1  0.50663990  0.16955523  0.23960175  1
  Cu  Cu104  1  0.82723220  0.83468354  0.75180468  1
  Cu  Cu105  1  0.01262756  0.00233453  0.49320628  1
  Cu  Cu106  1  0.00257787  0.66341174  0.49601783  1
  Cu  Cu107  1  0.50308447  0.83379859  0.24386692  1
  Cu  Cu108  1  0.66849252  0.66525002  0.49909491  1
  Cu  Cu109  1  0.32684014  0.33227895  0.50357435  1
  Cu  Cu110  1  0.00438864  0.01044930  0.00746565  1
  Cu  Cu111  1  0.32843202  -0.00241967  0.49860093  1
  Cu  Cu112  1  0.00604105  0.32992425  0.00500267  1
  Cu  Cu113  1  0.50177173  0.50885542  0.24415345  1
  Cu  Cu114  1  0.33521944  0.67122639  0.00209455  1
  Se  Se115  1  0.09115300  0.08639656  0.06244639  1
  Se  Se116  1  0.09070558  0.08537863  0.55006181  1
  Se  Se117  1  0.08698875  0.41778161  0.05578294  1
  Se  Se118  1  0.07571893  0.41298617  0.54941468  1
  Se  Se119  1  0.07664001  0.74478295  0.06053753  1
  Se  Se120  1  0.08567089  0.74616067  0.54969656  1
  Se  Se121  1  0.41417812  0.07974216  0.06137373  1
  Se  Se122  1  0.41060134  0.07108321  0.56408551  1
  Se  Se123  1  0.39637991  0.40152240  0.04586593  1
  Se  Se124  1  0.41218430  0.40606955  0.56387231  1
  Se  Se125  1  0.41573770  0.75496856  0.05671890  1
  Se  Se126  1  0.40490587  0.73525998  0.55742079  1
  Se  Se127  1  0.75381144  0.07872994  0.04933943  1
  Se  Se128  1  0.74978326  0.08393308  0.55605364  1
  Se  Se129  1  0.75578320  0.41747025  0.06136695  1
  Se  Se130  1  0.75223208  0.42648627  0.54599444  1
  Se  Se131  1  0.73647106  0.73345758  0.05384505  1
  Se  Se132  1  0.74082562  0.74907862  0.56277918  1
  Se  Se133  1  0.25684391  0.26047953  0.04609245  1
  Se  Se134  1  0.25115475  0.24349921  0.55814930  1
  Se  Se135  1  0.24813677  0.59056930  0.05352650  1
  Se  Se136  1  0.25103675  0.57479730  0.54721154  1
  Se  Se137  1  0.25611958  0.92590927  0.06619921  1
  Se  Se138  1  0.24988072  0.90968727  0.55222266  1
  Se  Se139  1  0.59105509  0.25657203  0.06619950  1
  Se  Se140  1  0.59428283  0.26129620  0.55259695  1
  Se  Se141  1  0.56728000  0.56266723  0.05601154  1
  Se  Se142  1  0.58627781  0.59047624  0.56130540  1
  Se  Se143  1  0.58049530  0.91035051  0.04983115  1
  Se  Se144  1  0.59240227  0.92701588  0.56105647  1
  Se  Se145  1  0.92011109  0.24756809  0.05793778  1
  Se  Se146  1  0.92511529  0.25967454  0.56076392  1
  Se  Se147  1  0.91917629  0.57808943  0.05332123  1
  Se  Se148  1  0.91424098  0.59163366  0.55466155  1
  Se  Se149  1  0.92804628  0.91943334  0.06110673  1
  Se  Se150  1  0.93027796  0.92518518  0.55492263  1
  Se  Se151  1  0.08118730  0.24500493  0.45184433  1
  Se  Se152  1  0.09028918  0.24720210  0.95145909  1
  Se  Se153  1  0.08578814  0.57964428  0.44350008  1
  Se  Se154  1  0.08430627  0.58417627  0.94692718  1
  Se  Se155  1  0.09180499  0.91315063  0.44371990  1
  Se  Se156  1  0.07758257  0.92451439  0.94566422  1
  Se  Se157  1  0.40906104  0.25611857  0.44155562  1
  Se  Se158  1  0.41237306  0.25443735  0.93707031  1
  Se  Se159  1  0.40961414  0.59355538  0.44021749  1
  Se  Se160  1  0.42072594  0.58573721  0.95223584  1
  Se  Se161  1  0.41259203  0.91976326  0.44097638  1
  Se  Se162  1  0.41419870  0.91374447  0.94963564  1
  Se  Se163  1  0.74283912  0.25533332  0.43278521  1
  Se  Se164  1  0.75596348  0.24491037  0.95513440  1
  Se  Se165  1  0.75162053  0.58375865  0.44595604  1
  Se  Se166  1  0.76837298  0.57416364  0.95356281  1
  Se  Se167  1  0.74448737  0.91777386  0.43977073  1
  Se  Se168  1  0.74406299  0.91580476  0.93867799  1
  Se  Se169  1  0.24982603  0.08876586  0.44916751  1
  Se  Se170  1  0.24654894  0.08460488  0.95044634  1
  Se  Se171  1  0.24996503  0.41784364  0.44777945  1
  Se  Se172  1  0.23107982  0.44376346  0.94298357  1
  Se  Se173  1  0.25267200  0.75760199  0.44064733  1
  Se  Se174  1  0.25280836  0.74283614  0.93660278  1
  Se  Se175  1  0.58413416  0.07824134  0.43730885  1
  Se  Se176  1  0.58622620  0.07712765  0.94155283  1
  Se  Se177  1  0.58100635  0.41504558  0.43441847  1
  Se  Se178  1  0.58748934  0.40702723  0.95005458  1
  Se  Se179  1  0.58880240  0.74805418  0.44190649  1
  Se  Se180  1  0.58270327  0.75427724  0.95010510  1
  Se  Se181  1  0.92285919  0.07482153  0.43556122  1
  Se  Se182  1  0.91768273  0.08583087  0.95084028  1
  Se  Se183  1  0.90929761  0.41745964  0.44689361  1
  Se  Se184  1  0.92253829  0.41351508  0.95097838  1
  Se  Se185  1  0.92613888  0.74600717  0.43344883  1
  Se  Se186  1  0.92259853  0.74798422  0.93976408  1
  Se  Se187  1  0.24601614  0.25354085  0.31126800  1
  Se  Se188  1  0.24721509  0.25025092  0.80777711  1
  Se  Se189  1  0.25131246  0.58635737  0.30026361  1
  Se  Se190  1  0.24468828  0.57257755  0.80877179  1
  Se  Se191  1  0.27915142  0.94842586  0.31006784  1
  Se  Se192  1  0.24344005  0.91532027  0.80170374  1
  Se  Se193  1  0.58730166  0.25441805  0.29360418  1
  Se  Se194  1  0.57289545  0.24067629  0.81372832  1
  Se  Se195  1  0.58553689  0.58752534  0.30244506  1
  Se  Se196  1  0.58490431  0.57661182  0.81308904  1
  Se  Se197  1  0.58621569  0.91925256  0.29709851  1
  Se  Se198  1  0.59619273  0.92912537  0.80727867  1
  Se  Se199  1  0.91668753  0.24613963  0.30271893  1
  Se  Se200  1  0.90861338  0.25180809  0.80997003  1
  Se  Se201  1  0.91046003  0.57436659  0.30918798  1
  Se  Se202  1  0.92359260  0.58645125  0.80557960  1
  Se  Se203  1  0.91508287  0.91417534  0.29691401  1
  Se  Se204  1  0.90844019  0.91269333  0.81379564  1
  Se  Se205  1  0.08694445  0.08236020  0.30549018  1
  Se  Se206  1  0.08141317  0.09004277  0.81171363  1
  Se  Se207  1  0.08434652  0.41396259  0.30524386  1
  Se  Se208  1  0.08702945  0.41841115  0.81130541  1
  Se  Se209  1  0.08664313  0.74644184  0.30905087  1
  Se  Se210  1  0.07940218  0.74617954  0.79577121  1
  Se  Se211  1  0.42510193  0.09390071  0.30043543  1
  Se  Se212  1  0.40939122  0.07506116  0.80766098  1
  Se  Se213  1  0.42205592  0.42840164  0.30722548  1
  Se  Se214  1  0.41144208  0.42178776  0.80246629  1
  Se  Se215  1  0.41880026  0.74980980  0.29655857  1
  Se  Se216  1  0.41889504  0.74996122  0.81397857  1
  Se  Se217  1  0.74780493  0.07877843  0.29778424  1
  Se  Se218  1  0.74436662  0.08414887  0.80588938  1
  Se  Se219  1  0.74467090  0.41256897  0.30083691  1
  Se  Se220  1  0.75599981  0.42758408  0.81516141  1
  Se  Se221  1  0.74861251  0.74720417  0.29661221  1
  Se  Se222  1  0.75033483  0.74457591  0.80401370  1
  Se  Se223  1  0.25411253  0.09163998  0.19844722  1
  Se  Se224  1  0.24975993  0.07608296  0.70019923  1
  Se  Se225  1  0.24560793  0.42694972  0.18694724  1
  Se  Se226  1  0.24625639  0.40972205  0.69621072  1
  Se  Se227  1  0.23742559  0.76472354  0.20212301  1
  Se  Se228  1  0.24231942  0.74770596  0.68521938  1
  Se  Se229  1  0.58885730  0.07993885  0.19210773  1
  Se  Se230  1  0.58184000  0.08149520  0.69868949  1
  Se  Se231  1  0.58311380  0.41808665  0.19745508  1
  Se  Se232  1  0.57758677  0.42368275  0.69132677  1
  Se  Se233  1  0.58303890  0.74623318  0.19140224  1
  Se  Se234  1  0.58058238  0.74878004  0.70685806  1
  Se  Se235  1  0.92208494  0.07881603  0.19603252  1
  Se  Se236  1  0.90562231  0.09247370  0.69308688  1
  Se  Se237  1  0.91964515  0.41095259  0.20140244  1
  Se  Se238  1  0.90692209  0.42730193  0.69028925  1
  Se  Se239  1  0.90876924  0.75584554  0.18124264  1
  Se  Se240  1  0.91419701  0.75474092  0.69858809  1
  Se  Se241  1  0.08650660  0.25584829  0.19694467  1
  Se  Se242  1  0.09155407  0.24063382  0.68937844  1
  Se  Se243  1  0.08670244  0.57572183  0.18819472  1
  Se  Se244  1  0.08084454  0.58267135  0.69324681  1
  Se  Se245  1  0.09487442  0.91329951  0.21092914  1
  Se  Se246  1  0.08794399  0.91070691  0.68491646  1
  Se  Se247  1  0.42623743  0.24965900  0.18037357  1
  Se  Se248  1  0.41555693  0.24716146  0.70310362  1
  Se  Se249  1  0.41257752  0.58532625  0.19077930  1
  Se  Se250  1  0.42338362  0.57153406  0.69043514  1
  Se  Se251  1  0.41785717  0.92029335  0.19560707  1
  Se  Se252  1  0.41589767  0.90230620  0.70388136  1
  Se  Se253  1  0.75269257  0.24697501  0.19571787  1
  Se  Se254  1  0.75041454  0.24989888  0.69148643  1
  Se  Se255  1  0.74768112  0.58302816  0.19746626  1
  Se  Se256  1  0.74467516  0.58620060  0.69889304  1
  Se  Se257  1  0.74697583  0.91619549  0.18961818  1
  Se  Se258  1  0.74807600  0.92195283  0.69906180  1
