# generated using pymatgen
data_In86Cu29Se144
_symmetry_space_group_name_H-M   'P 1'
_cell_length_a   17.58239151
_cell_length_b   17.58520035
_cell_length_c   23.43565748
_cell_angle_alpha   89.98862527
_cell_angle_beta   89.99174815
_cell_angle_gamma   89.97624436
_symmetry_Int_Tables_number   1
_chemical_formula_structural   In86Cu29Se144
_chemical_formula_sum   'In86 Cu29 Se144'
_cell_volume   7246.06722233
_cell_formula_units_Z   1
loop_
 _symmetry_equiv_pos_site_id
 _symmetry_equiv_pos_as_xyz
  1  'x, y, z'
loop_
 _atom_site_type_symbol
 _atom_site_label
 _atom_site_symmetry_multiplicity
 _atom_site_fract_x
 _atom_site_fract_y
 _atom_site_fract_z
 _atom_site_occupancy
  In  In0  1  -0.01797811  0.16955807  0.12551454  1
  In  In1  1  -0.00421875  0.17219927  0.61884996  1
  In  In2  1  -0.00205901  0.50315026  0.13222085  1
  In  In3  1  -0.00161297  0.49859057  0.61720950  1
  In  In4  1  0.01208654  0.83986084  0.12092049  1
  In  In5  1  -0.00381611  0.82421982  0.61865917  1
  In  In6  1  0.32395235  0.15905232  0.13136092  1
  In  In7  1  0.32218929  0.16428499  0.62406307  1
  In  In8  1  0.34654404  0.49395827  0.13187322  1
  In  In9  1  0.33133869  0.50281942  0.61697825  1
  In  In10  1  0.33264434  0.83231818  0.12840534  1
  In  In11  1  0.33020784  0.84621034  0.62794268  1
  In  In12  1  0.67779468  0.15344947  0.13551470  1
  In  In13  1  0.70559154  0.19558044  0.58926860  1
  In  In14  1  0.65991878  0.51607785  0.14294538  1
  In  In15  1  0.65569838  0.48038820  0.60421476  1
  In  In16  1  0.66682523  0.83518544  0.12629055  1
  In  In17  1  0.67039457  0.83009145  0.61928284  1
  In  In18  1  0.16243326  0.00104264  0.37662884  1
  In  In19  1  0.16459892  -0.01344863  0.87493822  1
  In  In20  1  0.15416357  0.33912706  0.39243542  1
  In  In21  1  0.15987238  0.34533196  0.86560111  1
  In  In22  1  0.17400000  0.65742495  0.37970765  1
  In  In23  1  0.16767491  0.67227456  0.87261159  1
  In  In24  1  0.49506311  -0.00620181  0.36103667  1
  In  In25  1  0.49137668  -0.00298579  0.87638849  1
  In  In26  1  0.52362984  0.33835216  0.37831583  1
  In  In27  1  0.51500623  0.33402961  0.87248145  1
  In  In28  1  0.49745880  0.65748919  0.36829013  1
  In  In29  1  0.50377799  0.66550520  0.88594191  1
  In  In30  1  0.83027724  -0.00322888  0.37603448  1
  In  In31  1  0.83093255  0.00414523  0.88318546  1
  In  In32  1  0.79634113  0.35845951  0.43158583  1
  In  In33  1  0.82622226  0.32666346  0.86136530  1
  In  In34  1  0.82890883  0.67313408  0.37431436  1
  In  In35  1  0.84140719  0.66756653  0.87297219  1
  In  In36  1  -0.00035390  0.16466017  0.38618113  1
  In  In37  1  -0.01182912  0.16584369  0.86987877  1
  In  In38  1  -0.01130987  0.48895698  0.39026764  1
  In  In39  1  -0.00499489  0.49964611  0.85633950  1
  In  In40  1  -0.01045869  0.84619682  0.37944547  1
  In  In41  1  0.00686243  0.83205119  0.88074946  1
  In  In42  1  0.32713690  0.15592622  0.37322204  1
  In  In43  1  0.34637104  0.15986485  0.86912525  1
  In  In44  1  0.32732339  0.51213465  0.37831385  1
  In  In45  1  0.33372231  0.51081694  0.87576949  1
  In  In46  1  0.32688665  0.82277024  0.36655819  1
  In  In47  1  0.32374869  0.83657620  0.88430649  1
  In  In48  1  0.67813552  0.17131738  0.37636233  1
  In  In49  1  0.67126197  0.17827572  0.87231799  1
  In  In50  1  0.67031151  0.49748186  0.37799630  1
  In  In51  1  0.66599992  0.49263088  0.87405212  1
  In  In52  1  0.68013549  0.84076698  0.36308146  1
  In  In53  1  0.66910057  0.83196942  0.88873397  1
  In  In54  1  0.17705360  -0.00974021  0.13781798  1
  In  In55  1  0.17079206  0.00507940  0.61925293  1
  In  In56  1  0.16664263  0.33769484  0.12843048  1
  In  In57  1  0.14466463  0.31853790  0.59810431  1
  In  In58  1  0.15772992  0.68184888  0.13171032  1
  In  In59  1  0.15090588  0.65430320  0.61126080  1
  In  In60  1  0.50908263  -0.01069615  0.13439975  1
  In  In61  1  0.50137552  -0.00883353  0.63022039  1
  In  In62  1  0.50862419  0.34860691  0.12286148  1
  In  In63  1  0.50398795  0.35105750  0.62715937  1
  In  In64  1  0.49971229  0.66648793  0.12766097  1
  In  In65  1  0.51139832  0.65395656  0.62678383  1
  In  In66  1  0.83573256  0.00021190  0.12862487  1
  In  In67  1  0.83910756  0.01208597  0.60976669  1
  In  In68  1  0.83421048  0.32160726  0.12540354  1
  In  In69  1  0.83168165  0.33747331  0.61723096  1
  In  In70  1  0.81696186  0.67075482  0.13313553  1
  In  In71  1  0.84259357  0.66853063  0.61837745  1
  In  In72  1  0.82794666  0.50417370  0.00082581  1
  In  In73  1  0.49783374  0.16234526  0.48934611  1
  In  In74  1  0.66634363  0.00935155  0.74700328  1
  In  In75  1  0.67307018  0.66044861  0.75325054  1
  In  In76  1  0.33621602  0.32998293  0.25111270  1
  In  In77  1  0.50080823  0.82464281  0.49849485  1
  In  In78  1  0.33126090  0.66514683  0.74435975  1
  In  In79  1  0.16211627  0.15985405  -0.00125477  1
  In  In80  1  0.16662373  0.51219844  0.00290354  1
  In  In81  1  -0.00358007  0.00664149  0.73684631  1
  In  In82  1  0.32964689  0.33442235  0.74758372  1
  In  In83  1  -0.00999521  0.33053068  0.26705027  1
  In  In84  1  0.50651059  0.16446126  -0.00114821  1
  In  In85  1  -0.00071397  0.66318669  0.26163774  1
  Cu  Cu86  1  0.15781927  0.49451984  0.73356026  1
  Cu  Cu87  1  0.33707331  -0.00909972  0.00492557  1
  Cu  Cu88  1  0.16368060  0.16508631  0.73864754  1
  Cu  Cu89  1  0.49567851  0.83249187  0.75467234  1
  Cu  Cu90  1  0.33771343  0.33607989  0.50109397  1
  Cu  Cu91  1  0.16675101  0.83901214  0.25284518  1
  Cu  Cu92  1  0.67168020  0.66684589  0.49780047  1
  Cu  Cu93  1  0.83075308  0.50216766  0.73962445  1
  Cu  Cu94  1  0.84045646  0.84169732  0.74531809  1
  Cu  Cu95  1  0.83254261  0.16252580  0.25569484  1
  Cu  Cu96  1  -0.00920164  0.33555861  -0.00467928  1
  Cu  Cu97  1  0.65978448  0.67102317  0.01054647  1
  Cu  Cu98  1  0.15513309  0.16617030  0.25680131  1
  Cu  Cu99  1  0.33682286  0.67042362  0.00570266  1
  Cu  Cu100  1  0.50352311  0.17027404  0.25630936  1
  Cu  Cu101  1  0.50708662  0.49799300  0.25272773  1
  Cu  Cu102  1  0.33745543  0.67214681  0.49519063  1
  Cu  Cu103  1  0.16552246  0.82848190  0.75461566  1
  Cu  Cu104  1  0.83453765  0.83470248  0.24967343  1
  Cu  Cu105  1  0.67319936  -0.00083900  0.00872594  1
  Cu  Cu106  1  -0.00296018  -0.00071143  0.00306908  1
  Cu  Cu107  1  0.50021081  0.82688214  0.24587264  1
  Cu  Cu108  1  0.50471974  0.16349366  0.74786984  1
  Cu  Cu109  1  -0.00174766  -0.00691092  0.49843723  1
  Cu  Cu110  1  -0.00484533  0.67399167  -0.00149268  1
  Cu  Cu111  1  0.33837916  0.33996245  0.00421168  1
  Cu  Cu112  1  -0.00223186  0.67135310  0.49374229  1
  Cu  Cu113  1  0.67171310  0.33576908  -0.00206111  1
  Cu  Cu114  1  0.32856484  -0.00403270  0.49708608  1
  Se  Se115  1  0.07841983  0.07699325  0.06664143  1
  Se  Se116  1  0.07628011  0.07918708  0.55568851  1
  Se  Se117  1  0.07260351  0.41270763  0.05630721  1
  Se  Se118  1  0.10357525  0.44229823  0.55060437  1
  Se  Se119  1  0.08615532  0.75021091  0.05051554  1
  Se  Se120  1  0.08434587  0.75383749  0.54605834  1
  Se  Se121  1  0.41337468  0.07856740  0.06158309  1
  Se  Se122  1  0.41197950  0.07349787  0.55710778  1
  Se  Se123  1  0.42262504  0.42415512  0.05247660  1
  Se  Se124  1  0.41969454  0.42029902  0.55272490  1
  Se  Se125  1  0.41913240  0.75309527  0.05950092  1
  Se  Se126  1  0.41202722  0.74199940  0.56704952  1
  Se  Se127  1  0.75651640  0.08646485  0.05663676  1
  Se  Se128  1  0.73428891  0.06543613  0.54487352  1
  Se  Se129  1  0.74336156  0.41600056  0.06474540  1
  Se  Se130  1  0.75980128  0.42222591  0.54176906  1
  Se  Se131  1  0.75128922  0.75243313  0.05589819  1
  Se  Se132  1  0.75329220  0.75025054  0.55192072  1
  Se  Se133  1  0.25573164  0.25632045  0.05736916  1
  Se  Se134  1  0.25529513  0.24564276  0.54767091  1
  Se  Se135  1  0.25764606  0.59133282  0.06849060  1
  Se  Se136  1  0.25323152  0.58814112  0.54870612  1
  Se  Se137  1  0.24738921  0.91513443  0.05850866  1
  Se  Se138  1  0.24693678  0.91255753  0.55181393  1
  Se  Se139  1  0.59481808  0.25234812  0.06072780  1
  Se  Se140  1  0.57446525  0.25604684  0.55460634  1
  Se  Se141  1  0.58390504  0.57883076  0.06056633  1
  Se  Se142  1  0.58237733  0.58464133  0.54668710  1
  Se  Se143  1  0.58284027  0.91736600  0.05537476  1
  Se  Se144  1  0.58774534  0.92237589  0.55368925  1
  Se  Se145  1  0.91197721  0.24895480  0.04801213  1
  Se  Se146  1  0.92694368  0.26505789  0.54889537  1
  Se  Se147  1  0.92106369  0.59282670  0.06143154  1
  Se  Se148  1  0.91666808  0.58320927  0.54663344  1
  Se  Se149  1  0.91618402  0.91555431  0.05803158  1
  Se  Se150  1  0.91405469  0.91079369  0.55242182  1
  Se  Se151  1  0.09768353  0.23201323  0.45227094  1
  Se  Se152  1  0.08029170  0.25949106  0.93957227  1
  Se  Se153  1  0.07910527  0.58255141  0.44428425  1
  Se  Se154  1  0.06902742  0.58680852  0.93744620  1
  Se  Se155  1  0.08647863  0.91337982  0.44710139  1
  Se  Se156  1  0.08468443  0.91773535  0.95123299  1
  Se  Se157  1  0.40930961  0.25928577  0.43219231  1
  Se  Se158  1  0.41202579  0.25739615  0.94099512  1
  Se  Se159  1  0.42093615  0.58511609  0.44642950  1
  Se  Se160  1  0.41385275  0.58301754  0.95002898  1
  Se  Se161  1  0.41130340  0.91659530  0.43922184  1
  Se  Se162  1  0.42018586  0.91116860  0.94843855  1
  Se  Se163  1  0.74059799  0.22896548  0.46733399  1
  Se  Se164  1  0.75484650  0.25455637  0.94346917  1
  Se  Se165  1  0.75547590  0.58452809  0.44478928  1
  Se  Se166  1  0.73744099  0.59681234  0.94127242  1
  Se  Se167  1  0.75392149  0.90557111  0.44340976  1
  Se  Se168  1  0.75546492  0.91667788  0.95191525  1
  Se  Se169  1  0.24600038  0.08367770  0.44784356  1
  Se  Se170  1  0.26233873  0.07480457  0.94173087  1
  Se  Se171  1  0.25482917  0.42005206  0.44678639  1
  Se  Se172  1  0.25199458  0.41280674  0.94263909  1
  Se  Se173  1  0.24975947  0.75278754  0.44523772  1
  Se  Se174  1  0.24678179  0.74341245  0.94891017  1
  Se  Se175  1  0.58440763  0.06965012  0.43173737  1
  Se  Se176  1  0.59701670  0.07370980  0.93874404  1
  Se  Se177  1  0.58431572  0.42471799  0.45259744  1
  Se  Se178  1  0.58387622  0.41781764  0.94812241  1
  Se  Se179  1  0.59208771  0.74453187  0.43416422  1
  Se  Se180  1  0.57866761  0.75434586  0.95379889  1
  Se  Se181  1  0.91204201  0.07718078  0.44855387  1
  Se  Se182  1  0.92047580  0.08617478  0.94775478  1
  Se  Se183  1  0.94047929  0.37998191  0.45705583  1
  Se  Se184  1  0.91702107  0.41974131  0.93512816  1
  Se  Se185  1  0.91094960  0.75479516  0.44412569  1
  Se  Se186  1  0.91128371  0.75515641  0.94456489  1
  Se  Se187  1  0.23706533  0.25116521  0.31231134  1
  Se  Se188  1  0.24108453  0.23851237  0.80851630  1
  Se  Se189  1  0.25900214  0.59402650  0.30299169  1
  Se  Se190  1  0.23551735  0.57073097  0.80076606  1
  Se  Se191  1  0.25065777  0.92213347  0.30671081  1
  Se  Se192  1  0.25138478  0.91207594  0.80480771  1
  Se  Se193  1  0.59137330  0.25032491  0.30586577  1
  Se  Se194  1  0.58617744  0.24998043  0.79926122  1
  Se  Se195  1  0.59226098  0.58073049  0.30494645  1
  Se  Se196  1  0.57257461  0.57799265  0.80870464  1
  Se  Se197  1  0.58366948  0.91216683  0.29729808  1
  Se  Se198  1  0.58443075  0.90986976  0.81034596  1
  Se  Se199  1  0.89994922  0.24225100  0.32336275  1
  Se  Se200  1  0.93018401  0.26154561  0.80098063  1
  Se  Se201  1  0.90849860  0.56805134  0.31402944  1
  Se  Se202  1  0.90974518  0.58872454  0.79503963  1
  Se  Se203  1  0.91557483  0.92047739  0.30178198  1
  Se  Se204  1  0.91635220  0.92023495  0.80914735  1
  Se  Se205  1  0.07392383  0.08274790  0.30994281  1
  Se  Se206  1  0.09027122  0.08537777  0.80625538  1
  Se  Se207  1  0.08742567  0.42516184  0.31367977  1
  Se  Se208  1  0.07663256  0.41202385  0.79052918  1
  Se  Se209  1  0.08838330  0.75935092  0.31567000  1
  Se  Se210  1  0.07785027  0.74813284  0.80531411  1
  Se  Se211  1  0.41257445  0.08627705  0.29963470  1
  Se  Se212  1  0.42213362  0.07745989  0.79821960  1
  Se  Se213  1  0.42408130  0.41886468  0.31297689  1
  Se  Se214  1  0.41890636  0.42128696  0.81013626  1
  Se  Se215  1  0.41743948  0.74502889  0.30134659  1
  Se  Se216  1  0.41732960  0.75012282  0.81302451  1
  Se  Se217  1  0.74566115  0.07819954  0.30569431  1
  Se  Se218  1  0.76225322  0.09308480  0.80657481  1
  Se  Se219  1  0.76002120  0.39718875  0.32966969  1
  Se  Se220  1  0.74961620  0.42366730  0.79994233  1
  Se  Se221  1  0.75112748  0.74503379  0.29591766  1
  Se  Se222  1  0.75646622  0.76501343  0.80704540  1
  Se  Se223  1  0.24599917  0.08581149  0.20604409  1
  Se  Se224  1  0.25173525  0.07710729  0.69652262  1
  Se  Se225  1  0.24186618  0.42578542  0.19798834  1
  Se  Se226  1  0.24134151  0.41257879  0.67923846  1
  Se  Se227  1  0.24814354  0.75275277  0.20024198  1
  Se  Se228  1  0.23791045  0.75120281  0.68610173  1
  Se  Se229  1  0.58228519  0.08261295  0.20060534  1
  Se  Se230  1  0.58442053  0.09541142  0.68035958  1
  Se  Se231  1  0.58961148  0.41038765  0.20206556  1
  Se  Se232  1  0.59375870  0.42371904  0.69429110  1
  Se  Se233  1  0.58833882  0.74644906  0.19436326  1
  Se  Se234  1  0.57907843  0.75679297  0.69514845  1
  Se  Se235  1  0.91740909  0.08347383  0.20009264  1
  Se  Se236  1  0.89914187  0.09998332  0.69000158  1
  Se  Se237  1  0.90946847  0.41757454  0.19465061  1
  Se  Se238  1  0.91452530  0.41888564  0.68742283  1
  Se  Se239  1  0.91995696  0.75348045  0.19160176  1
  Se  Se240  1  0.91618412  0.75049814  0.69424758  1
  Se  Se241  1  0.08209523  0.24831989  0.19334974  1
  Se  Se242  1  0.08513979  0.25131873  0.68662818  1
  Se  Se243  1  0.09263859  0.57664663  0.19834452  1
  Se  Se244  1  0.07461300  0.58686957  0.69076464  1
  Se  Se245  1  0.07788280  0.91863500  0.20084771  1
  Se  Se246  1  0.08965802  0.90806332  0.68893159  1
  Se  Se247  1  0.42797753  0.24418641  0.18651309  1
  Se  Se248  1  0.42249195  0.24454220  0.68766288  1
  Se  Se249  1  0.42189725  0.58079123  0.20021472  1
  Se  Se250  1  0.42443301  0.56932299  0.69468645  1
  Se  Se251  1  0.41385668  0.91556610  0.19875279  1
  Se  Se252  1  0.41504047  0.91765838  0.70147517  1
  Se  Se253  1  0.75266265  0.24845379  0.19976377  1
  Se  Se254  1  0.74465932  0.25688825  0.68413979  1
  Se  Se255  1  0.76713137  0.57243549  0.20384623  1
  Se  Se256  1  0.74756521  0.57846207  0.67897133  1
  Se  Se257  1  0.74975507  0.91783722  0.19558885  1
  Se  Se258  1  0.75720976  0.91769312  0.68665481  1
