# generated using pymatgen
data_In86Cu29Se144
_symmetry_space_group_name_H-M   'P 1'
_cell_length_a   17.58107445
_cell_length_b   17.57685530
_cell_length_c   23.43549458
_cell_angle_alpha   90.02565715
_cell_angle_beta   89.99935328
_cell_angle_gamma   89.98266200
_symmetry_Int_Tables_number   1
_chemical_formula_structural   In86Cu29Se144
_chemical_formula_sum   'In86 Cu29 Se144'
_cell_volume   7242.03551288
_cell_formula_units_Z   1
loop_
 _symmetry_equiv_pos_site_id
 _symmetry_equiv_pos_as_xyz
  1  'x, y, z'
loop_
 _atom_site_type_symbol
 _atom_site_label
 _atom_site_symmetry_multiplicity
 _atom_site_fract_x
 _atom_site_fract_y
 _atom_site_fract_z
 _atom_site_occupancy
  In  In0  1  0.01217818  0.17114654  0.11928704  1
  In  In1  1  -0.00408560  0.17113831  0.65189523  1
  In  In2  1  0.00638315  0.49066663  0.13459802  1
  In  In3  1  -0.00006237  0.49913879  0.61584813  1
  In  In4  1  -0.00561488  0.84208118  0.12328395  1
  In  In5  1  0.00417917  0.82901131  0.62151492  1
  In  In6  1  0.33978223  0.17584174  0.11409164  1
  In  In7  1  0.31453242  0.17150194  0.64770491  1
  In  In8  1  0.31647992  0.49832715  0.12184453  1
  In  In9  1  0.33130392  0.49923283  0.62446043  1
  In  In10  1  0.34266608  0.82126311  0.12036739  1
  In  In11  1  0.32073011  0.83812223  0.63816427  1
  In  In12  1  0.66205794  0.17831339  0.11839755  1
  In  In13  1  0.67026914  0.19926816  0.63071003  1
  In  In14  1  0.66398660  0.50991147  0.13526293  1
  In  In15  1  0.67028287  0.49697739  0.62558025  1
  In  In16  1  0.66714991  0.81925074  0.11869977  1
  In  In17  1  0.66260504  0.81575565  0.62387493  1
  In  In18  1  0.15626172  -0.01113207  0.37565221  1
  In  In19  1  0.18442842  0.02529222  0.85157963  1
  In  In20  1  0.17769463  0.33970335  0.37055279  1
  In  In21  1  0.16731233  0.33249007  0.86949804  1
  In  In22  1  0.16086587  0.67400695  0.38929704  1
  In  In23  1  0.16606832  0.64726181  0.87887684  1
  In  In24  1  0.49854565  -0.00165238  0.37938635  1
  In  In25  1  0.49219329  0.00935332  0.88415574  1
  In  In26  1  0.51347158  0.35105123  0.36533671  1
  In  In27  1  0.48480966  0.33476903  0.85972885  1
  In  In28  1  0.49486952  0.64329095  0.37677002  1
  In  In29  1  0.50725628  0.67169372  0.86389976  1
  In  In30  1  0.82941208  -0.00522305  0.37911933  1
  In  In31  1  0.83257536  -0.00679687  0.87192692  1
  In  In32  1  0.85405031  0.36415743  0.34830666  1
  In  In33  1  0.83633120  0.32685105  0.86135239  1
  In  In34  1  0.83742212  0.66274434  0.37144830  1
  In  In35  1  0.83028289  0.67962301  0.87605433  1
  In  In36  1  -0.01214069  0.17269210  0.37427955  1
  In  In37  1  0.02068964  0.18602030  0.85367548  1
  In  In38  1  0.00106310  0.50201242  0.37474643  1
  In  In39  1  0.01254253  0.49189906  0.87649798  1
  In  In40  1  0.01503208  0.81335288  0.38365064  1
  In  In41  1  -0.01245203  0.83853047  0.87757803  1
  In  In42  1  0.31633040  0.17765893  0.38159518  1
  In  In43  1  0.33396032  0.17277382  0.87049979  1
  In  In44  1  0.34161729  0.50246878  0.38912668  1
  In  In45  1  0.32802614  0.48634863  0.86160145  1
  In  In46  1  0.32075611  0.81445519  0.37851176  1
  In  In47  1  0.34104866  0.84140076  0.87003393  1
  In  In48  1  0.65566977  0.19016898  0.37945408  1
  In  In49  1  0.65346586  0.17034875  0.87972295  1
  In  In50  1  0.66907610  0.50224017  0.37263962  1
  In  In51  1  0.66336968  0.50464495  0.86292940  1
  In  In52  1  0.68547574  0.82891302  0.37907198  1
  In  In53  1  0.66931194  0.82198743  0.88108230  1
  In  In54  1  0.15525497  0.00898987  0.11912951  1
  In  In55  1  0.16588126  -0.00661358  0.63791155  1
  In  In56  1  0.16788074  0.33478517  0.12362943  1
  In  In57  1  0.15842202  0.33696215  0.62898741  1
  In  In58  1  0.17650832  0.65559481  0.12505953  1
  In  In59  1  0.17786701  0.67171265  0.61074621  1
  In  In60  1  0.49849007  -0.00237257  0.11247866  1
  In  In61  1  0.49087056  -0.00649152  0.63098242  1
  In  In62  1  0.50321812  0.33238162  0.12137532  1
  In  In63  1  0.48557608  0.36208526  0.64608811  1
  In  In64  1  0.50571088  0.67499163  0.11894425  1
  In  In65  1  0.51049274  0.64947120  0.64116011  1
  In  In66  1  0.84506099  -0.01642990  0.11785953  1
  In  In67  1  0.84686476  -0.00127437  0.62698871  1
  In  In68  1  0.82585768  0.34937066  0.13663501  1
  In  In69  1  0.82856608  0.34074729  0.63363444  1
  In  In70  1  0.83125518  0.67172534  0.13763849  1
  In  In71  1  0.82309087  0.65352714  0.61453636  1
  In  In72  1  0.16296127  0.16476886  0.51567004  1
  In  In73  1  0.83108097  0.50522700  0.00230221  1
  In  In74  1  0.49751237  0.16814156  0.51053538  1
  In  In75  1  0.00104613  0.00428056  0.24500691  1
  In  In76  1  0.49036009  0.81861208  0.50641681  1
  In  In77  1  -0.00369835  0.66463852  0.75064881  1
  In  In78  1  0.66053563  0.00160410  0.75556148  1
  In  In79  1  0.49980134  0.50387454  -0.00293307  1
  In  In80  1  0.83739070  0.16173262  0.00373838  1
  In  In81  1  0.33518214  0.00676962  0.25617259  1
  In  In82  1  0.16542937  0.83890010  -0.00219792  1
  In  In83  1  0.67108478  0.00946690  0.25154627  1
  In  In84  1  0.83184671  0.17340706  0.50792056  1
  In  In85  1  0.33095100  0.66163272  0.25240642  1
  Cu  Cu86  1  -0.00047272  0.33305237  0.49748639  1
  Cu  Cu87  1  0.00569288  0.00708545  -0.01103428  1
  Cu  Cu88  1  0.32427662  -0.00966574  0.51172148  1
  Cu  Cu89  1  0.00064030  0.66332255  -0.00056989  1
  Cu  Cu90  1  0.67103518  0.35096371  0.49854492  1
  Cu  Cu91  1  0.65952721  0.33280274  -0.00384806  1
  Cu  Cu92  1  0.49318425  0.83387638  0.75097829  1
  Cu  Cu93  1  0.49527498  0.49866998  0.25080124  1
  Cu  Cu94  1  0.67393297  -0.00149864  0.50501869  1
  Cu  Cu95  1  0.15972690  0.82566324  0.74875740  1
  Cu  Cu96  1  0.00187150  -0.01180926  0.50592699  1
  Cu  Cu97  1  0.50178766  0.16539352  0.75513199  1
  Cu  Cu98  1  0.83079360  0.17442328  0.24774121  1
  Cu  Cu99  1  0.32529097  0.33093629  -0.01037379  1
  Cu  Cu100  1  0.00339518  0.33274027  -0.00117994  1
  Cu  Cu101  1  -0.00737572  0.66206627  0.49706856  1
  Cu  Cu102  1  0.33687803  0.66302202  -0.00483696  1
  Cu  Cu103  1  0.66752222  -0.01233071  -0.00411869  1
  Cu  Cu104  1  0.34774702  0.33962368  0.50154552  1
  Cu  Cu105  1  0.83937275  0.82897710  0.25226216  1
  Cu  Cu106  1  0.49384607  0.17793873  0.24443092  1
  Cu  Cu107  1  0.66851538  0.66170364  0.50100891  1
  Cu  Cu108  1  0.83516103  0.50221838  0.74472106  1
  Cu  Cu109  1  0.17020773  0.17713989  0.24662351  1
  Cu  Cu110  1  0.16523756  0.49842223  0.74631115  1
  Cu  Cu111  1  0.16504162  0.49924231  0.25156788  1
  Cu  Cu112  1  0.50827191  0.83085674  0.24537403  1
  Cu  Cu113  1  0.32992357  0.00478901  -0.00806229  1
  Cu  Cu114  1  0.82537683  0.82936607  0.74899260  1
  Se  Se115  1  0.08542861  0.09093904  0.04399488  1
  Se  Se116  1  0.06809880  0.07518261  0.57035594  1
  Se  Se117  1  0.08174397  0.41757669  0.05586565  1
  Se  Se118  1  0.08620791  0.41282402  0.55074930  1
  Se  Se119  1  0.08174877  0.74467610  0.06004432  1
  Se  Se120  1  0.07779867  0.74446310  0.54992789  1
  Se  Se121  1  0.41660728  0.08492869  0.04801645  1
  Se  Se122  1  0.39941748  0.08023426  0.56682953  1
  Se  Se123  1  0.40445093  0.41185068  0.05319389  1
  Se  Se124  1  0.42696145  0.42385594  0.55645587  1
  Se  Se125  1  0.42113776  0.74809503  0.04547886  1
  Se  Se126  1  0.41335405  0.74210422  0.58088314  1
  Se  Se127  1  0.74230958  0.06962960  0.06145445  1
  Se  Se128  1  0.74040115  0.08435846  0.56837590  1
  Se  Se129  1  0.73493317  0.41293251  0.05771720  1
  Se  Se130  1  0.76189590  0.42180258  0.55485052  1
  Se  Se131  1  0.76950459  0.75218732  0.05821851  1
  Se  Se132  1  0.75041312  0.75136057  0.54942705  1
  Se  Se133  1  0.24496654  0.25128027  0.05037319  1
  Se  Se134  1  0.26537857  0.25757656  0.56043020  1
  Se  Se135  1  0.24907045  0.58258711  0.04605658  1
  Se  Se136  1  0.23882983  0.56417966  0.55318587  1
  Se  Se137  1  0.25914264  0.92555123  0.06080778  1
  Se  Se138  1  0.23759919  0.91018526  0.56221982  1
  Se  Se139  1  0.57472093  0.24839842  0.04612593  1
  Se  Se140  1  0.58650795  0.27093098  0.55608901  1
  Se  Se141  1  0.59639567  0.59019089  0.05303999  1
  Se  Se142  1  0.58561677  0.58331347  0.55846107  1
  Se  Se143  1  0.58453278  0.90778567  0.05330595  1
  Se  Se144  1  0.58404269  0.91967708  0.55925889  1
  Se  Se145  1  0.91643835  0.26425747  0.06256940  1
  Se  Se146  1  0.93048815  0.25422121  0.56690148  1
  Se  Se147  1  0.92521933  0.58523561  0.06447812  1
  Se  Se148  1  0.91109561  0.57545049  0.54778410  1
  Se  Se149  1  0.92803981  0.91763489  0.04133425  1
  Se  Se150  1  0.91203554  0.90772182  0.55486273  1
  Se  Se151  1  0.08185695  0.24897475  0.44182354  1
  Se  Se152  1  0.08283840  0.25095477  0.94113467  1
  Se  Se153  1  0.08174255  0.57801940  0.44915380  1
  Se  Se154  1  0.08293180  0.57458540  0.95221528  1
  Se  Se155  1  0.08704758  0.90927802  0.45118324  1
  Se  Se156  1  0.08834200  0.92757191  0.92982670  1
  Se  Se157  1  0.41985206  0.25542459  0.43835656  1
  Se  Se158  1  0.41904574  0.25486402  0.93999142  1
  Se  Se159  1  0.40276298  0.60404038  0.45506651  1
  Se  Se160  1  0.41000454  0.58362802  0.93066528  1
  Se  Se161  1  0.40537134  0.91854213  0.44576062  1
  Se  Se162  1  0.41513958  0.91462884  0.94859685  1
  Se  Se163  1  0.75174642  0.26460196  0.44307420  1
  Se  Se164  1  0.75137567  0.25717771  0.94322587  1
  Se  Se165  1  0.75075080  0.58396833  0.44251923  1
  Se  Se166  1  0.74175254  0.58936826  0.93901465  1
  Se  Se167  1  0.75558368  0.91422580  0.45319839  1
  Se  Se168  1  0.75522333  0.91101918  0.94333766  1
  Se  Se169  1  0.24892222  0.07285516  0.44706315  1
  Se  Se170  1  0.24850685  0.08854351  0.93902818  1
  Se  Se171  1  0.25379282  0.41147108  0.44846247  1
  Se  Se172  1  0.24582259  0.42026113  0.93983114  1
  Se  Se173  1  0.25421443  0.74407619  0.45829132  1
  Se  Se174  1  0.25305593  0.74563776  0.93856963  1
  Se  Se175  1  0.59248050  0.07932251  0.44647338  1
  Se  Se176  1  0.58641773  0.08110288  0.95139946  1
  Se  Se177  1  0.57979634  0.42743496  0.44564772  1
  Se  Se178  1  0.58372833  0.41214094  0.93385987  1
  Se  Se179  1  0.58674588  0.74351529  0.43925924  1
  Se  Se180  1  0.57503243  0.74655999  0.94369727  1
  Se  Se181  1  0.92386510  0.07581284  0.44821529  1
  Se  Se182  1  0.92212569  0.08707452  0.93191580  1
  Se  Se183  1  0.91627958  0.41257730  0.44116163  1
  Se  Se184  1  0.91655045  0.40799844  0.94116350  1
  Se  Se185  1  0.91110396  0.74958171  0.44483920  1
  Se  Se186  1  0.91797340  0.74865488  0.94888192  1
  Se  Se187  1  0.25819728  0.25533882  0.29979898  1
  Se  Se188  1  0.26070317  0.26224704  0.80178999  1
  Se  Se189  1  0.24337025  0.57708147  0.31615109  1
  Se  Se190  1  0.24611859  0.58257128  0.80084527  1
  Se  Se191  1  0.24582481  0.90833024  0.30714635  1
  Se  Se192  1  0.24448881  0.90760828  0.80199795  1
  Se  Se193  1  0.58256401  0.25479653  0.29739005  1
  Se  Se194  1  0.58525122  0.25258972  0.80403449  1
  Se  Se195  1  0.58177461  0.58237931  0.30108117  1
  Se  Se196  1  0.58118240  0.58384623  0.79497495  1
  Se  Se197  1  0.58232090  0.91250102  0.31040104  1
  Se  Se198  1  0.57352295  0.91112108  0.81564073  1
  Se  Se199  1  0.92367243  0.25244162  0.29596109  1
  Se  Se200  1  0.92722981  0.26158861  0.79140395  1
  Se  Se201  1  0.91285642  0.57404666  0.30387359  1
  Se  Se202  1  0.91021970  0.57429894  0.81510805  1
  Se  Se203  1  0.91762233  0.91471131  0.31069187  1
  Se  Se204  1  0.91109516  0.91102224  0.79973859  1
  Se  Se205  1  0.09184817  0.09518184  0.30861053  1
  Se  Se206  1  0.05595617  0.05929141  0.80591844  1
  Se  Se207  1  0.08440950  0.41447997  0.30601960  1
  Se  Se208  1  0.08105626  0.41438626  0.79860553  1
  Se  Se209  1  0.09631059  0.74891257  0.30760576  1
  Se  Se210  1  0.08503320  0.74987242  0.81652995  1
  Se  Se211  1  0.42536635  0.09968559  0.31468493  1
  Se  Se212  1  0.41761471  0.08101380  0.80592265  1
  Se  Se213  1  0.40899884  0.42413778  0.30809557  1
  Se  Se214  1  0.43238539  0.43870681  0.79076360  1
  Se  Se215  1  0.42618014  0.75503875  0.30911714  1
  Se  Se216  1  0.40897277  0.74686443  0.80122715  1
  Se  Se217  1  0.75722954  0.10011842  0.31635827  1
  Se  Se218  1  0.74971462  0.09293021  0.81361415  1
  Se  Se219  1  0.72177670  0.39224832  0.30890824  1
  Se  Se220  1  0.75320247  0.41937462  0.80177064  1
  Se  Se221  1  0.75056627  0.74761205  0.30229469  1
  Se  Se222  1  0.74303482  0.74647924  0.80191791  1
  Se  Se223  1  0.24644149  0.09001603  0.18894349  1
  Se  Se224  1  0.24758485  0.07139346  0.70890173  1
  Se  Se225  1  0.24851563  0.41660062  0.19724051  1
  Se  Se226  1  0.24937412  0.41429862  0.69447428  1
  Se  Se227  1  0.24689403  0.75853714  0.19168133  1
  Se  Se228  1  0.24158071  0.73963341  0.69747553  1
  Se  Se229  1  0.57233295  0.08904301  0.18874369  1
  Se  Se230  1  0.57955712  0.09363900  0.68669721  1
  Se  Se231  1  0.57671836  0.41881111  0.19274745  1
  Se  Se232  1  0.61794910  0.38541790  0.68821749  1
  Se  Se233  1  0.58874173  0.74411588  0.19521569  1
  Se  Se234  1  0.58247988  0.75160306  0.70238856  1
  Se  Se235  1  0.90664029  0.09228233  0.18493349  1
  Se  Se236  1  0.89997649  0.08667242  0.70379473  1
  Se  Se237  1  0.91560080  0.42014159  0.20388842  1
  Se  Se238  1  0.92405261  0.42340738  0.69307613  1
  Se  Se239  1  0.92822855  0.75437854  0.19682286  1
  Se  Se240  1  0.90470430  0.74804674  0.68763084  1
  Se  Se241  1  0.08123347  0.25417755  0.19392508  1
  Se  Se242  1  0.11780831  0.22528716  0.69530439  1
  Se  Se243  1  0.08836045  0.58597775  0.19609166  1
  Se  Se244  1  0.08725487  0.58313159  0.68686989  1
  Se  Se245  1  0.09636395  0.91154682  0.19247359  1
  Se  Se246  1  0.07319593  0.90844366  0.69887190  1
  Se  Se247  1  0.41062644  0.25790648  0.19005390  1
  Se  Se248  1  0.42121837  0.24808315  0.69855035  1
  Se  Se249  1  0.42057044  0.57872999  0.18394470  1
  Se  Se250  1  0.42268537  0.56111897  0.70155563  1
  Se  Se251  1  0.42375867  0.91328013  0.19220360  1
  Se  Se252  1  0.40907567  0.92121783  0.70379275  1
  Se  Se253  1  0.74329560  0.25012839  0.19251202  1
  Se  Se254  1  0.77090843  0.24024231  0.70268185  1
  Se  Se255  1  0.76545920  0.56964751  0.19907617  1
  Se  Se256  1  0.74945742  0.58584050  0.69547033  1
  Se  Se257  1  0.75709206  0.91294713  0.19376616  1
  Se  Se258  1  0.74605438  0.91183255  0.68916425  1
