# generated using pymatgen
data_In86Cu29Se144
_symmetry_space_group_name_H-M   'P 1'
_cell_length_a   17.58093053
_cell_length_b   17.58071239
_cell_length_c   23.44290005
_cell_angle_alpha   89.96799915
_cell_angle_beta   90.00297541
_cell_angle_gamma   89.97053631
_symmetry_Int_Tables_number   1
_chemical_formula_structural   In86Cu29Se144
_chemical_formula_sum   'In86 Cu29 Se144'
_cell_volume   7245.85330362
_cell_formula_units_Z   1
loop_
 _symmetry_equiv_pos_site_id
 _symmetry_equiv_pos_as_xyz
  1  'x, y, z'
loop_
 _atom_site_type_symbol
 _atom_site_label
 _atom_site_symmetry_multiplicity
 _atom_site_fract_x
 _atom_site_fract_y
 _atom_site_fract_z
 _atom_site_occupancy
  In  In0  1  0.00022555  0.17167474  0.11900480  1
  In  In1  1  0.01942873  0.16618892  0.63126832  1
  In  In2  1  -0.00228716  0.48649025  0.12648389  1
  In  In3  1  -0.01703072  0.50595271  0.62211927  1
  In  In4  1  0.00359389  0.84067496  0.11688097  1
  In  In5  1  -0.00242206  0.83056617  0.61444705  1
  In  In6  1  0.31892588  0.16329285  0.12188614  1
  In  In7  1  0.31874572  0.15629177  0.62643108  1
  In  In8  1  0.34438075  0.51005142  0.11889975  1
  In  In9  1  0.34372844  0.49605482  0.62107256  1
  In  In10  1  0.33625615  0.83229320  0.12633597  1
  In  In11  1  0.32722570  0.85248849  0.63354706  1
  In  In12  1  0.67824670  0.15332355  0.13545382  1
  In  In13  1  0.67389575  0.16469595  0.63069471  1
  In  In14  1  0.66084027  0.50610977  0.13392384  1
  In  In15  1  0.66626701  0.49828859  0.61827899  1
  In  In16  1  0.66520464  0.83397482  0.12311221  1
  In  In17  1  0.67107634  0.83720829  0.63033101  1
  In  In18  1  0.17166183  -0.00868528  0.38108512  1
  In  In19  1  0.17209088  -0.00736637  0.87890081  1
  In  In20  1  0.15312355  0.33320925  0.37320105  1
  In  In21  1  0.16120146  0.33491696  0.87865912  1
  In  In22  1  0.18024324  0.66790705  0.37298863  1
  In  In23  1  0.16423450  0.67247349  0.88364740  1
  In  In24  1  0.50120974  0.00080942  0.36556767  1
  In  In25  1  0.49711881  -0.01492810  0.86091173  1
  In  In26  1  0.51732427  0.33385565  0.37182315  1
  In  In27  1  0.51230287  0.33395514  0.87914765  1
  In  In28  1  0.49595135  0.66119272  0.37083615  1
  In  In29  1  0.49618282  0.67273053  0.88624889  1
  In  In30  1  0.81950855  -0.01297547  0.37635226  1
  In  In31  1  0.83134953  0.00428180  0.87835231  1
  In  In32  1  0.84261964  0.33278081  0.36698347  1
  In  In33  1  0.82532632  0.32529359  0.86909373  1
  In  In34  1  0.82048762  0.68144176  0.38254729  1
  In  In35  1  0.84151318  0.67119159  0.87938834  1
  In  In36  1  -0.00187658  0.18144741  0.37447862  1
  In  In37  1  -0.00877535  0.17065966  0.87855405  1
  In  In38  1  -0.00131375  0.48423598  0.37414978  1
  In  In39  1  0.01280714  0.50330233  0.87663853  1
  In  In40  1  -0.00201531  0.82915375  0.39149927  1
  In  In41  1  -0.00094449  0.83847342  0.88098419  1
  In  In42  1  0.33251642  0.15153986  0.37269617  1
  In  In43  1  0.32953946  0.14910957  0.87403330  1
  In  In44  1  0.33173474  0.51494748  0.37354321  1
  In  In45  1  0.33296317  0.50302116  0.88562752  1
  In  In46  1  0.33402527  0.83081089  0.37082272  1
  In  In47  1  0.32895645  0.84488694  0.87661606  1
  In  In48  1  0.67117872  0.15750262  0.36179925  1
  In  In49  1  0.67114578  0.17244001  0.87179448  1
  In  In50  1  0.66700638  0.49943154  0.37514064  1
  In  In51  1  0.66698814  0.48705238  0.87847997  1
  In  In52  1  0.67794139  0.84372102  0.36875599  1
  In  In53  1  0.66473045  0.84080931  0.87824237  1
  In  In54  1  0.17188194  0.00634823  0.11798533  1
  In  In55  1  0.17136718  0.00254266  0.62377052  1
  In  In56  1  0.15500424  0.32543864  0.11702115  1
  In  In57  1  0.16750339  0.31433286  0.62683574  1
  In  In58  1  0.17669155  0.67789739  0.12033364  1
  In  In59  1  0.15572943  0.68022490  0.61992041  1
  In  In60  1  0.51046312  -0.01378453  0.12950111  1
  In  In61  1  0.50152942  -0.00476188  0.63937038  1
  In  In62  1  0.50524671  0.34552110  0.12212853  1
  In  In63  1  0.50443769  0.34646689  0.62267822  1
  In  In64  1  0.49934817  0.66846568  0.12681556  1
  In  In65  1  0.51097700  0.66516245  0.62352377  1
  In  In66  1  0.82612666  -0.00502012  0.11701843  1
  In  In67  1  0.82387410  -0.01223229  0.62599440  1
  In  In68  1  0.83993228  0.32071285  0.13887944  1
  In  In69  1  0.82675158  0.33779490  0.62929690  1
  In  In70  1  0.81799837  0.66866877  0.12878316  1
  In  In71  1  0.84286185  0.66856651  0.60762812  1
  In  In72  1  0.83213429  0.50325133  0.00526834  1
  In  In73  1  -0.00399430  0.00433650  0.24708160  1
  In  In74  1  0.49823683  0.16589257  -0.00473263  1
  In  In75  1  0.33252391  0.33325538  0.24060825  1
  In  In76  1  0.50141087  0.16522347  0.49060534  1
  In  In77  1  0.33757710  0.32651800  0.75173755  1
  In  In78  1  0.83677892  0.16411678  0.49804137  1
  In  In79  1  0.50057596  0.83083616  0.50650904  1
  In  In80  1  -0.00134904  -0.00154712  0.74905122  1
  In  In81  1  0.16140496  0.50273135  0.49699043  1
  In  In82  1  -0.00228451  0.67056833  0.74702339  1
  In  In83  1  0.33179428  0.67328756  0.75968604  1
  In  In84  1  0.66932546  0.66951823  0.74760475  1
  In  In85  1  0.00019635  0.66398464  0.25711065  1
  Cu  Cu86  1  0.00439811  0.67092017  0.00083261  1
  Cu  Cu87  1  0.49925209  0.16112538  0.24856094  1
  Cu  Cu88  1  0.66892428  0.33399335  0.00202452  1
  Cu  Cu89  1  0.82681054  0.49819171  0.25148383  1
  Cu  Cu90  1  0.50027872  0.50173752  0.24887302  1
  Cu  Cu91  1  0.83584910  0.17101573  0.75174713  1
  Cu  Cu92  1  0.83141745  0.83327923  0.24769836  1
  Cu  Cu93  1  -0.00041753  0.00373649  -0.00196690  1
  Cu  Cu94  1  0.33021288  0.00088555  0.50211887  1
  Cu  Cu95  1  0.50361387  0.16966633  0.75391959  1
  Cu  Cu96  1  0.50034554  0.82800985  0.24840104  1
  Cu  Cu97  1  0.33694792  0.66917871  0.00247038  1
  Cu  Cu98  1  -0.00014856  0.33168582  0.49960001  1
  Cu  Cu99  1  0.66652149  -0.00031735  0.00020333  1
  Cu  Cu100  1  0.83074918  0.49228947  0.74688278  1
  Cu  Cu101  1  0.33588605  -0.00622918  -0.00064248  1
  Cu  Cu102  1  0.17866058  0.83589654  0.25114443  1
  Cu  Cu103  1  0.66166571  0.67136416  0.00799964  1
  Cu  Cu104  1  0.16227777  0.49170180  0.75146980  1
  Cu  Cu105  1  0.32608845  0.33472825  0.00306593  1
  Cu  Cu106  1  0.16681745  0.50033698  0.24962191  1
  Cu  Cu107  1  0.33369069  0.67126045  0.49545889  1
  Cu  Cu108  1  0.67117521  0.33585681  0.49807109  1
  Cu  Cu109  1  0.00179324  0.00294234  0.50603442  1
  Cu  Cu110  1  0.16403097  0.16440350  0.24312351  1
  Cu  Cu111  1  0.50885363  0.49904589  0.74952542  1
  Cu  Cu112  1  0.66176906  0.66230712  0.49784708  1
  Cu  Cu113  1  0.33466376  0.33327412  0.50289746  1
  Cu  Cu114  1  -0.00322948  0.33516519  -0.00016459  1
  Se  Se115  1  0.08290476  0.08638408  0.05282773  1
  Se  Se116  1  0.08801437  0.08621047  0.55461933  1
  Se  Se117  1  0.08117316  0.42012845  0.05021467  1
  Se  Se118  1  0.08111306  0.40955450  0.56193559  1
  Se  Se119  1  0.08856895  0.75546370  0.05252527  1
  Se  Se120  1  0.07118164  0.74155595  0.54516116  1
  Se  Se121  1  0.41467480  0.07572417  0.06049573  1
  Se  Se122  1  0.41734287  0.07787106  0.55937457  1
  Se  Se123  1  0.41581682  0.41517096  0.05166183  1
  Se  Se124  1  0.42185350  0.41878709  0.54764345  1
  Se  Se125  1  0.42036087  0.75241440  0.05583939  1
  Se  Se126  1  0.40508743  0.74530345  0.56625321  1
  Se  Se127  1  0.74766410  0.08764224  0.05105964  1
  Se  Se128  1  0.74188183  0.07704490  0.55473745  1
  Se  Se129  1  0.74630446  0.41298197  0.06604229  1
  Se  Se130  1  0.75515915  0.41718556  0.55227802  1
  Se  Se131  1  0.75306023  0.75354912  0.05341473  1
  Se  Se132  1  0.73645976  0.74669646  0.55751948  1
  Se  Se133  1  0.24388867  0.24599470  0.05020590  1
  Se  Se134  1  0.25357231  0.24648286  0.55262009  1
  Se  Se135  1  0.25089826  0.58515915  0.05326576  1
  Se  Se136  1  0.25486974  0.58997371  0.55945751  1
  Se  Se137  1  0.25178122  0.91353714  0.05560082  1
  Se  Se138  1  0.24755991  0.91424018  0.55294483  1
  Se  Se139  1  0.58866931  0.24917081  0.05988992  1
  Se  Se140  1  0.59035058  0.25279079  0.55632341  1
  Se  Se141  1  0.58281238  0.58194012  0.05849892  1
  Se  Se142  1  0.57838806  0.57876483  0.55071566  1
  Se  Se143  1  0.58255295  0.91399395  0.05036514  1
  Se  Se144  1  0.58726884  0.92732575  0.56061195  1
  Se  Se145  1  0.91098860  0.25560566  0.05459738  1
  Se  Se146  1  0.92338673  0.25100971  0.56330144  1
  Se  Se147  1  0.92415390  0.59424718  0.06470042  1
  Se  Se148  1  0.91699239  0.57793849  0.54193647  1
  Se  Se149  1  0.91580633  0.91792221  0.04993480  1
  Se  Se150  1  0.91249444  0.92066767  0.55343583  1
  Se  Se151  1  0.08588664  0.24874474  0.44889354  1
  Se  Se152  1  0.07934360  0.25021339  0.94680943  1
  Se  Se153  1  0.07645554  0.58973141  0.43259632  1
  Se  Se154  1  0.08627461  0.58337171  0.95079412  1
  Se  Se155  1  0.08460327  0.91774594  0.45164281  1
  Se  Se156  1  0.08472793  0.91689791  0.94918379  1
  Se  Se157  1  0.40908395  0.25840327  0.43382752  1
  Se  Se158  1  0.40447242  0.25747478  0.93738196  1
  Se  Se159  1  0.41699337  0.58429820  0.44730738  1
  Se  Se160  1  0.42063662  0.58136163  0.95214550  1
  Se  Se161  1  0.41509193  0.92402056  0.44268427  1
  Se  Se162  1  0.42328689  0.91815515  0.94347532  1
  Se  Se163  1  0.74424468  0.25105287  0.43720492  1
  Se  Se164  1  0.74943267  0.25141842  0.94649132  1
  Se  Se165  1  0.74855203  0.58187455  0.44530169  1
  Se  Se166  1  0.74031749  0.59214424  0.94319377  1
  Se  Se167  1  0.75134758  0.90581747  0.45161216  1
  Se  Se168  1  0.75286972  0.91720225  0.94761741  1
  Se  Se169  1  0.24809031  0.08510823  0.44796187  1
  Se  Se170  1  0.24990805  0.07944607  0.95050073  1
  Se  Se171  1  0.25499032  0.41154684  0.43829158  1
  Se  Se172  1  0.24446752  0.41830843  0.94716435  1
  Se  Se173  1  0.25067372  0.75584973  0.44498459  1
  Se  Se174  1  0.25636191  0.75214771  0.94542615  1
  Se  Se175  1  0.59453132  0.07226432  0.43837136  1
  Se  Se176  1  0.58627966  0.07585952  0.93549483  1
  Se  Se177  1  0.58340072  0.41779589  0.44710496  1
  Se  Se178  1  0.58191516  0.41898417  0.95380305  1
  Se  Se179  1  0.58568430  0.74778220  0.43828164  1
  Se  Se180  1  0.58601373  0.75512616  0.94813413  1
  Se  Se181  1  0.92544293  0.07428637  0.43633840  1
  Se  Se182  1  0.91224178  0.08685851  0.94848265  1
  Se  Se183  1  0.91357174  0.41033942  0.44611235  1
  Se  Se184  1  0.91663861  0.41617410  0.93886760  1
  Se  Se185  1  0.90877085  0.75017891  0.45361019  1
  Se  Se186  1  0.91804059  0.75299814  0.94997001  1
  Se  Se187  1  0.24475613  0.24554099  0.30560845  1
  Se  Se188  1  0.24426900  0.24233836  0.81042065  1
  Se  Se189  1  0.25140144  0.58587770  0.29758319  1
  Se  Se190  1  0.23885462  0.57413489  0.81088621  1
  Se  Se191  1  0.25588439  0.92335875  0.30535421  1
  Se  Se192  1  0.25019985  0.91979720  0.80286244  1
  Se  Se193  1  0.58312284  0.24453402  0.30030257  1
  Se  Se194  1  0.58550559  0.25613417  0.80393553  1
  Se  Se195  1  0.58451611  0.58220444  0.30461107  1
  Se  Se196  1  0.58054315  0.58199385  0.81325819  1
  Se  Se197  1  0.58346266  0.91373660  0.30113770  1
  Se  Se198  1  0.60418777  0.92506942  0.79951823  1
  Se  Se199  1  0.91498440  0.24311647  0.29840957  1
  Se  Se200  1  0.92037045  0.25406702  0.80273097  1
  Se  Se201  1  0.90577302  0.57766223  0.31477813  1
  Se  Se202  1  0.90942726  0.57386755  0.80734616  1
  Se  Se203  1  0.91870688  0.90404183  0.30899327  1
  Se  Se204  1  0.90819781  0.90879933  0.80786454  1
  Se  Se205  1  0.08935948  0.08720495  0.31050516  1
  Se  Se206  1  0.08332938  0.08427035  0.81413237  1
  Se  Se207  1  0.08201669  0.41497007  0.29818064  1
  Se  Se208  1  0.07836392  0.41199801  0.80485974  1
  Se  Se209  1  0.09027072  0.76267150  0.31062954  1
  Se  Se210  1  0.08772638  0.75776709  0.80857922  1
  Se  Se211  1  0.41221022  0.07879770  0.29812651  1
  Se  Se212  1  0.41859668  0.08388818  0.80183269  1
  Se  Se213  1  0.41787593  0.41976243  0.30829990  1
  Se  Se214  1  0.42292763  0.42488985  0.81052519  1
  Se  Se215  1  0.41534386  0.74684441  0.30312876  1
  Se  Se216  1  0.42909445  0.76142877  0.81094559  1
  Se  Se217  1  0.76199870  0.07613373  0.30163572  1
  Se  Se218  1  0.75450017  0.08687782  0.80566838  1
  Se  Se219  1  0.74702128  0.41287948  0.30637235  1
  Se  Se220  1  0.74516964  0.41501512  0.80248321  1
  Se  Se221  1  0.74800881  0.74867440  0.30032773  1
  Se  Se222  1  0.75922543  0.75430299  0.80994116  1
  Se  Se223  1  0.24998724  0.07859248  0.19650802  1
  Se  Se224  1  0.24366757  0.08107827  0.70016167  1
  Se  Se225  1  0.24199797  0.42331410  0.18262067  1
  Se  Se226  1  0.24963670  0.42131021  0.69011501  1
  Se  Se227  1  0.25550799  0.74750767  0.19776072  1
  Se  Se228  1  0.24040552  0.75397037  0.69429715  1
  Se  Se229  1  0.58467998  0.07573000  0.19830660  1
  Se  Se230  1  0.58639204  0.08728207  0.69852628  1
  Se  Se231  1  0.58312856  0.41402644  0.20045627  1
  Se  Se232  1  0.59065999  0.41811477  0.69464752  1
  Se  Se233  1  0.58698208  0.74883810  0.19408791  1
  Se  Se234  1  0.57052216  0.76064678  0.69628383  1
  Se  Se235  1  0.90691794  0.08910654  0.18557043  1
  Se  Se236  1  0.90873464  0.08962750  0.68689061  1
  Se  Se237  1  0.91606253  0.41749124  0.20159580  1
  Se  Se238  1  0.92067250  0.41471732  0.69489257  1
  Se  Se239  1  0.91788679  0.75568912  0.19021671  1
  Se  Se240  1  0.90468302  0.75699415  0.68807107  1
  Se  Se241  1  0.07983755  0.24983139  0.19397021  1
  Se  Se242  1  0.08502723  0.25302242  0.70407908  1
  Se  Se243  1  0.08669388  0.58176438  0.18855788  1
  Se  Se244  1  0.08979889  0.57603091  0.68892833  1
  Se  Se245  1  0.09232582  0.91217100  0.19268695  1
  Se  Se246  1  0.08429322  0.90736066  0.68717562  1
  Se  Se247  1  0.42460193  0.24051611  0.18366846  1
  Se  Se248  1  0.42611567  0.24295190  0.68484279  1
  Se  Se249  1  0.41564699  0.58533043  0.19732127  1
  Se  Se250  1  0.42269919  0.58066371  0.69590334  1
  Se  Se251  1  0.41711522  0.91496819  0.19724189  1
  Se  Se252  1  0.41197008  0.92075748  0.70532581  1
  Se  Se253  1  0.73116871  0.26228666  0.19706442  1
  Se  Se254  1  0.74876176  0.25321710  0.69920546  1
  Se  Se255  1  0.74613571  0.58707981  0.20245791  1
  Se  Se256  1  0.76060766  0.58113562  0.68630222  1
  Se  Se257  1  0.75025034  0.91655336  0.19243388  1
  Se  Se258  1  0.74154124  0.92289883  0.70284276  1
