# generated using pymatgen
data_In86Cu29Se144
_symmetry_space_group_name_H-M   'P 1'
_cell_length_a   17.56964154
_cell_length_b   17.56759748
_cell_length_c   23.41462114
_cell_angle_alpha   90.00602800
_cell_angle_beta   90.01845844
_cell_angle_gamma   89.99964541
_symmetry_Int_Tables_number   1
_chemical_formula_structural   In86Cu29Se144
_chemical_formula_sum   'In86 Cu29 Se144'
_cell_volume   7227.07203051
_cell_formula_units_Z   1
loop_
 _symmetry_equiv_pos_site_id
 _symmetry_equiv_pos_as_xyz
  1  'x, y, z'
loop_
 _atom_site_type_symbol
 _atom_site_label
 _atom_site_symmetry_multiplicity
 _atom_site_fract_x
 _atom_site_fract_y
 _atom_site_fract_z
 _atom_site_occupancy
  In  In0  1  -0.01001622  0.17701473  0.13190531  1
  In  In1  1  0.00773203  0.16356540  0.64114408  1
  In  In2  1  -0.01625058  0.50143580  0.12466296  1
  In  In3  1  -0.01649420  0.49497178  0.62245283  1
  In  In4  1  0.01520490  0.83241001  0.12240671  1
  In  In5  1  0.00794422  0.83776781  0.61716412  1
  In  In6  1  0.32867231  0.15768403  0.11832133  1
  In  In7  1  0.33393612  0.16485223  0.63698284  1
  In  In8  1  0.33878636  0.48733915  0.11990397  1
  In  In9  1  0.36384705  0.48570441  0.64307201  1
  In  In10  1  0.33667997  0.84845700  0.12211279  1
  In  In11  1  0.33395566  0.83073953  0.63514193  1
  In  In12  1  0.68216185  0.17695106  0.10635307  1
  In  In13  1  0.65950710  0.17580666  0.63567287  1
  In  In14  1  0.66424717  0.49639710  0.12431670  1
  In  In15  1  0.67148844  0.49429061  0.62876748  1
  In  In16  1  0.65689289  0.82767258  0.12842983  1
  In  In17  1  0.67417655  0.82377141  0.63376128  1
  In  In18  1  0.16053464  -0.00428135  0.37161857  1
  In  In19  1  0.15694679  0.00135940  0.86881299  1
  In  In20  1  0.15143028  0.34306754  0.37421533  1
  In  In21  1  0.16529652  0.32268321  0.85820403  1
  In  In22  1  0.17954145  0.67091554  0.38208403  1
  In  In23  1  0.18474607  0.66948488  0.87571250  1
  In  In24  1  0.49666327  0.01290683  0.37408528  1
  In  In25  1  0.51794695  0.01090859  0.85846289  1
  In  In26  1  0.50852365  0.33438291  0.37959018  1
  In  In27  1  0.50384824  0.33589502  0.87031194  1
  In  In28  1  0.50475892  0.64770611  0.38081734  1
  In  In29  1  0.49278011  0.65838387  0.85977180  1
  In  In30  1  0.83697734  -0.01387941  0.37582666  1
  In  In31  1  0.83593696  0.00518538  0.87314062  1
  In  In32  1  0.83393497  0.33992698  0.37344485  1
  In  In33  1  0.82867888  0.33323298  0.87782220  1
  In  In34  1  0.82255730  0.67013630  0.37976626  1
  In  In35  1  0.81576304  0.66569511  0.87160148  1
  In  In36  1  -0.00191462  0.16815005  0.36786349  1
  In  In37  1  -0.00801399  0.15708994  0.86778319  1
  In  In38  1  -0.00274731  0.48098882  0.37247596  1
  In  In39  1  -0.00234545  0.48431094  0.87687541  1
  In  In40  1  -0.00338767  0.83529930  0.37845641  1
  In  In41  1  0.00316702  0.85195445  0.87515958  1
  In  In42  1  0.34482010  0.15829502  0.37261563  1
  In  In43  1  0.34490588  0.18092222  0.86176210  1
  In  In44  1  0.33234020  0.50608858  0.38226015  1
  In  In45  1  0.35067353  0.50416788  0.85820281  1
  In  In46  1  0.32147620  0.83387103  0.38184229  1
  In  In47  1  0.33259610  0.82736831  0.86684369  1
  In  In48  1  0.65677421  0.17802040  0.37309966  1
  In  In49  1  0.66530371  0.16412451  0.88038982  1
  In  In50  1  0.66299913  0.49655001  0.37526285  1
  In  In51  1  0.66211115  0.50254683  0.87114672  1
  In  In52  1  0.68152586  0.83119750  0.37833815  1
  In  In53  1  0.66030107  0.82870250  0.85993252  1
  In  In54  1  0.17340176  -0.00485356  0.12828345  1
  In  In55  1  0.18069462  -0.01121609  0.63948470  1
  In  In56  1  0.16665341  0.32255167  0.12583810  1
  In  In57  1  0.17336699  0.32437911  0.63943234  1
  In  In58  1  0.15902675  0.67296908  0.12002003  1
  In  In59  1  0.16855943  0.67773821  0.62113993  1
  In  In60  1  0.49290154  -0.00057513  0.12073095  1
  In  In61  1  0.49869298  -0.00893606  0.64401275  1
  In  In62  1  0.50913875  0.34401704  0.11163171  1
  In  In63  1  0.50645422  0.35027089  0.62862454  1
  In  In64  1  0.51492432  0.66633565  0.12739509  1
  In  In65  1  0.53863112  0.64242295  0.66938871  1
  In  In66  1  0.83073643  0.01817826  0.12309976  1
  In  In67  1  0.84221691  -0.00479720  0.62983055  1
  In  In68  1  0.82670235  0.33266888  0.12430933  1
  In  In69  1  0.82469501  0.34101801  0.63325003  1
  In  In70  1  0.82858371  0.64905894  0.12059553  1
  In  In71  1  0.82278416  0.65483112  0.61498776  1
  In  In72  1  0.50031908  0.83832908  -0.00687550  1
  In  In73  1  0.16473278  0.16418467  -0.00570362  1
  In  In74  1  0.33412937  0.66649058  0.26160991  1
  In  In75  1  0.49664907  0.82764527  0.51706547  1
  In  In76  1  -0.00155842  0.66615401  0.74112787  1
  In  In77  1  0.83350917  0.83506392  -0.00926305  1
  In  In78  1  -0.00189252  0.66321061  0.24703430  1
  In  In79  1  0.49656784  0.17697607  0.51407133  1
  In  In80  1  0.83342543  0.17342964  0.49680557  1
  In  In81  1  0.17278902  0.49707599  -0.00365448  1
  In  In82  1  0.66799491  0.00415477  0.24819996  1
  In  In83  1  0.17168087  0.16413240  0.51490856  1
  In  In84  1  0.32904836  0.32689094  0.24945629  1
  In  In85  1  0.16604329  0.50145643  0.49834803  1
  Cu  Cu86  1  0.82517274  0.49540009  0.24804006  1
  Cu  Cu87  1  0.51042661  0.16789825  0.75152193  1
  Cu  Cu88  1  0.67199218  0.00482934  0.50527097  1
  Cu  Cu89  1  0.82958148  0.17004199  0.75446536  1
  Cu  Cu90  1  0.16004042  0.83462840  0.74898368  1
  Cu  Cu91  1  0.83176494  0.17291408  0.24776173  1
  Cu  Cu92  1  0.66265914  0.66236517  0.50621841  1
  Cu  Cu93  1  0.83570031  0.83582620  0.75016850  1
  Cu  Cu94  1  0.66635989  0.33577644  -0.00537143  1
  Cu  Cu95  1  0.83005004  0.49781050  0.75030662  1
  Cu  Cu96  1  -0.00340447  0.33218885  0.50348662  1
  Cu  Cu97  1  0.34259622  0.33856176  -0.01398795  1
  Cu  Cu98  1  0.16890720  0.50069445  0.75125126  1
  Cu  Cu99  1  0.66315594  0.65817355  -0.00260009  1
  Cu  Cu100  1  0.32833822  -0.00755184  0.50784744  1
  Cu  Cu101  1  0.00452321  -0.01074299  0.50235319  1
  Cu  Cu102  1  -0.00758975  0.66945219  0.49873625  1
  Cu  Cu103  1  0.50430250  0.49838978  0.24950514  1
  Cu  Cu104  1  0.00033975  0.00412161  -0.00298154  1
  Cu  Cu105  1  0.49999787  0.83280823  0.24942758  1
  Cu  Cu106  1  0.49937990  0.16789418  0.24602465  1
  Cu  Cu107  1  0.83803256  0.83043978  0.25338620  1
  Cu  Cu108  1  0.33404370  0.00169072  -0.00405235  1
  Cu  Cu109  1  0.16384860  0.15970460  0.24828504  1
  Cu  Cu110  1  0.00149754  0.66861391  0.00068628  1
  Cu  Cu111  1  0.34210253  0.66887094  -0.00926027  1
  Cu  Cu112  1  0.17090667  0.83878487  0.25039861  1
  Cu  Cu113  1  0.33646343  0.66269034  0.50978239  1
  Cu  Cu114  1  -0.00978794  0.33004024  0.00164987  1
  Se  Se115  1  0.07771151  0.08207554  0.06263523  1
  Se  Se116  1  0.07804385  0.07010358  0.56624071  1
  Se  Se117  1  0.07831654  0.40964328  0.05790143  1
  Se  Se118  1  0.08301347  0.40754378  0.56272232  1
  Se  Se119  1  0.08846978  0.75507052  0.04508659  1
  Se  Se120  1  0.08287743  0.74835387  0.54800530  1
  Se  Se121  1  0.41773680  0.08464672  0.04882971  1
  Se  Se122  1  0.41262819  0.07203256  0.56477418  1
  Se  Se123  1  0.42070568  0.42301345  0.04308155  1
  Se  Se124  1  0.42254517  0.42222339  0.55458528  1
  Se  Se125  1  0.41604404  0.74564774  0.06005523  1
  Se  Se126  1  0.41716806  0.73196618  0.57593978  1
  Se  Se127  1  0.74716299  0.07374510  0.04500615  1
  Se  Se128  1  0.74779410  0.08843840  0.56441552  1
  Se  Se129  1  0.74802803  0.41716508  0.05365340  1
  Se  Se130  1  0.76381896  0.42712176  0.55736615  1
  Se  Se131  1  0.74261693  0.74489966  0.05460952  1
  Se  Se132  1  0.74648544  0.75264342  0.55291908  1
  Se  Se133  1  0.26001511  0.26130732  0.04845940  1
  Se  Se134  1  0.26571775  0.26050498  0.56224032  1
  Se  Se135  1  0.26113767  0.59247240  0.05678260  1
  Se  Se136  1  0.25575186  0.57771328  0.56695317  1
  Se  Se137  1  0.25018871  0.92016734  0.05051737  1
  Se  Se138  1  0.24823873  0.90812578  0.56116517  1
  Se  Se139  1  0.58093881  0.24932266  0.04586795  1
  Se  Se140  1  0.59892009  0.26679713  0.55782951  1
  Se  Se141  1  0.57935523  0.57889974  0.05368053  1
  Se  Se142  1  0.58319808  0.59063585  0.57116415  1
  Se  Se143  1  0.59357306  0.92234985  0.05627451  1
  Se  Se144  1  0.59043473  0.92630590  0.56508781  1
  Se  Se145  1  0.90910005  0.24578110  0.05541340  1
  Se  Se146  1  0.92335662  0.24991351  0.56636136  1
  Se  Se147  1  0.91621951  0.58194368  0.04683391  1
  Se  Se148  1  0.91400213  0.57890860  0.54782842  1
  Se  Se149  1  0.92162637  0.92003849  0.05807912  1
  Se  Se150  1  0.91143032  0.91331618  0.55279785  1
  Se  Se151  1  0.07829820  0.24817844  0.44727130  1
  Se  Se152  1  0.07485464  0.25814024  0.93856425  1
  Se  Se153  1  0.07225929  0.58920164  0.43614280  1
  Se  Se154  1  0.08065507  0.58864831  0.93699440  1
  Se  Se155  1  0.08912874  0.91113409  0.44549899  1
  Se  Se156  1  0.08850592  0.92172953  0.94881708  1
  Se  Se157  1  0.40767392  0.25494024  0.44337816  1
  Se  Se158  1  0.42421363  0.24700005  0.94060048  1
  Se  Se159  1  0.41685619  0.58014471  0.45393098  1
  Se  Se160  1  0.41985962  0.58181040  0.93821450  1
  Se  Se161  1  0.41735450  0.92199684  0.44630363  1
  Se  Se162  1  0.41355838  0.92659516  0.93162346  1
  Se  Se163  1  0.73731492  0.26318157  0.44355651  1
  Se  Se164  1  0.75127706  0.24750224  0.94816099  1
  Se  Se165  1  0.74344557  0.58265695  0.44609672  1
  Se  Se166  1  0.75013623  0.57836414  0.94485423  1
  Se  Se167  1  0.75070501  0.91941300  0.45069713  1
  Se  Se168  1  0.73708563  0.91683283  0.93281347  1
  Se  Se169  1  0.25609581  0.07701869  0.44514730  1
  Se  Se170  1  0.25928932  0.08363946  0.93260044  1
  Se  Se171  1  0.25439089  0.40299221  0.44263774  1
  Se  Se172  1  0.25377897  0.41137483  0.92793354  1
  Se  Se173  1  0.25452051  0.74850889  0.45746401  1
  Se  Se174  1  0.25514259  0.75679217  0.94767887  1
  Se  Se175  1  0.58809903  0.08330611  0.44836314  1
  Se  Se176  1  0.58078160  0.07510168  0.94393179  1
  Se  Se177  1  0.56705084  0.43324376  0.44592031  1
  Se  Se178  1  0.58209500  0.41961682  0.94262638  1
  Se  Se179  1  0.58584900  0.74772991  0.44510029  1
  Se  Se180  1  0.58595484  0.74028300  0.93652137  1
  Se  Se181  1  0.92657975  0.07516829  0.44369645  1
  Se  Se182  1  0.91467040  0.08617822  0.94650120  1
  Se  Se183  1  0.91468834  0.41471027  0.44926969  1
  Se  Se184  1  0.91014520  0.41791103  0.94993672  1
  Se  Se185  1  0.91034227  0.75347432  0.44442121  1
  Se  Se186  1  0.92451072  0.74266581  0.93252138  1
  Se  Se187  1  0.23955772  0.23917733  0.31419527  1
  Se  Se188  1  0.25114390  0.24566827  0.79145531  1
  Se  Se189  1  0.23586955  0.57087972  0.30826585  1
  Se  Se190  1  0.25212905  0.58638664  0.80103572  1
  Se  Se191  1  0.25530329  0.91868938  0.30615175  1
  Se  Se192  1  0.24339724  0.91498057  0.80530798  1
  Se  Se193  1  0.57688926  0.25460616  0.30048609  1
  Se  Se194  1  0.59231379  0.25030910  0.80673374  1
  Se  Se195  1  0.58558948  0.58422280  0.30254840  1
  Se  Se196  1  0.59183501  0.58919245  0.79629484  1
  Se  Se197  1  0.58048990  0.91330795  0.31268175  1
  Se  Se198  1  0.56680236  0.90003516  0.79355308  1
  Se  Se199  1  0.91450163  0.25459391  0.30440155  1
  Se  Se200  1  0.91376834  0.25391206  0.80731972  1
  Se  Se201  1  0.90687074  0.57661572  0.30897786  1
  Se  Se202  1  0.91391137  0.57931153  0.80876909  1
  Se  Se203  1  0.92207364  0.91566183  0.30231072  1
  Se  Se204  1  0.91718673  0.92066029  0.80270537  1
  Se  Se205  1  0.07906913  0.07928302  0.30335749  1
  Se  Se206  1  0.08530181  0.09000864  0.79984565  1
  Se  Se207  1  0.07999408  0.41603577  0.29685922  1
  Se  Se208  1  0.08128837  0.41883306  0.80097923  1
  Se  Se209  1  0.09321775  0.75157624  0.30777712  1
  Se  Se210  1  0.08351571  0.75089308  0.81052237  1
  Se  Se211  1  0.41686568  0.08023453  0.29569853  1
  Se  Se212  1  0.41883890  0.08468782  0.79728710  1
  Se  Se213  1  0.41615610  0.42336319  0.30797873  1
  Se  Se214  1  0.41310304  0.40098237  0.79683803  1
  Se  Se215  1  0.42693130  0.75754002  0.31910617  1
  Se  Se216  1  0.41430284  0.74953932  0.79693108  1
  Se  Se217  1  0.75693194  0.09193919  0.31388317  1
  Se  Se218  1  0.74718575  0.08348117  0.80662449  1
  Se  Se219  1  0.74344242  0.41270768  0.30408989  1
  Se  Se220  1  0.74844751  0.41608029  0.80660329  1
  Se  Se221  1  0.74965055  0.74885153  0.30186390  1
  Se  Se222  1  0.74940847  0.74730902  0.79470668  1
  Se  Se223  1  0.25355267  0.08328379  0.19548130  1
  Se  Se224  1  0.23257245  0.10009623  0.69955630  1
  Se  Se225  1  0.24228955  0.42319281  0.19088043  1
  Se  Se226  1  0.25525026  0.41745220  0.70017762  1
  Se  Se227  1  0.24967163  0.75436423  0.19135308  1
  Se  Se228  1  0.24362769  0.74741221  0.70020111  1
  Se  Se229  1  0.58236866  0.09133303  0.18431685  1
  Se  Se230  1  0.59140977  0.07754653  0.70110349  1
  Se  Se231  1  0.58106764  0.41206888  0.19372236  1
  Se  Se232  1  0.58542791  0.42476918  0.70278684  1
  Se  Se233  1  0.58610072  0.74656592  0.20393700  1
  Se  Se234  1  0.56352013  0.78234617  0.70094118  1
  Se  Se235  1  0.91470475  0.08432179  0.19924026  1
  Se  Se236  1  0.91226657  0.08437187  0.70133499  1
  Se  Se237  1  0.91153216  0.41436918  0.19501430  1
  Se  Se238  1  0.91836709  0.41503596  0.70118111  1
  Se  Se239  1  0.90970014  0.75302226  0.18379439  1
  Se  Se240  1  0.90792485  0.75533406  0.68275162  1
  Se  Se241  1  0.08400710  0.25014984  0.19870648  1
  Se  Se242  1  0.07413521  0.26218949  0.70428833  1
  Se  Se243  1  0.09036559  0.57482973  0.18704423  1
  Se  Se244  1  0.08934318  0.57316733  0.68435556  1
  Se  Se245  1  0.08347679  0.91758372  0.19667644  1
  Se  Se246  1  0.07438697  0.91624640  0.69659203  1
  Se  Se247  1  0.42017130  0.24737568  0.18287395  1
  Se  Se248  1  0.43309013  0.24754717  0.69036294  1
  Se  Se249  1  0.41855413  0.57840712  0.19235945  1
  Se  Se250  1  0.40799878  0.59791810  0.70624830  1
  Se  Se251  1  0.41990216  0.91824987  0.19690184  1
  Se  Se252  1  0.38603576  0.93837151  0.70054513  1
  Se  Se253  1  0.74281172  0.24709000  0.19256235  1
  Se  Se254  1  0.74668904  0.25550562  0.70252419  1
  Se  Se255  1  0.74445067  0.58237446  0.19547635  1
  Se  Se256  1  0.75255841  0.58646811  0.69674315  1
  Se  Se257  1  0.75865904  0.91032152  0.18922483  1
  Se  Se258  1  0.75092603  0.91930957  0.69697777  1
