# generated using pymatgen
data_In86Cu29Se144
_symmetry_space_group_name_H-M   'P 1'
_cell_length_a   17.58955684
_cell_length_b   17.59255819
_cell_length_c   23.45505982
_cell_angle_alpha   90.02127520
_cell_angle_beta   89.96413323
_cell_angle_gamma   90.01189775
_symmetry_Int_Tables_number   1
_chemical_formula_structural   In86Cu29Se144
_chemical_formula_sum   'In86 Cu29 Se144'
_cell_volume   7258.05599580
_cell_formula_units_Z   1
loop_
 _symmetry_equiv_pos_site_id
 _symmetry_equiv_pos_as_xyz
  1  'x, y, z'
loop_
 _atom_site_type_symbol
 _atom_site_label
 _atom_site_symmetry_multiplicity
 _atom_site_fract_x
 _atom_site_fract_y
 _atom_site_fract_z
 _atom_site_occupancy
  In  In0  1  -0.01450498  0.15931998  0.12801482  1
  In  In1  1  -0.00503391  0.16715007  0.62495008  1
  In  In2  1  0.00372377  0.50967973  0.12222758  1
  In  In3  1  -0.01493454  0.49895707  0.62390470  1
  In  In4  1  0.00209687  0.83490484  0.12286600  1
  In  In5  1  0.00849822  0.84649228  0.61694498  1
  In  In6  1  0.34699873  0.15200468  0.12598547  1
  In  In7  1  0.32458471  0.17105825  0.62794886  1
  In  In8  1  0.32198806  0.49394473  0.12673446  1
  In  In9  1  0.32653376  0.48918512  0.63072623  1
  In  In10  1  0.33131176  0.85313827  0.11464210  1
  In  In11  1  0.32903520  0.84905027  0.62668646  1
  In  In12  1  0.65755927  0.17623442  0.12730354  1
  In  In13  1  0.67896875  0.15865465  0.63343750  1
  In  In14  1  0.67607515  0.48050205  0.12300564  1
  In  In15  1  0.68397391  0.48234499  0.64449068  1
  In  In16  1  0.68459567  0.83070991  0.12435590  1
  In  In17  1  0.67700121  0.82582846  0.63425473  1
  In  In18  1  0.16013405  0.00136991  0.37295325  1
  In  In19  1  0.16206756  -0.00232885  0.86950428  1
  In  In20  1  0.16187752  0.31566806  0.37646981  1
  In  In21  1  0.16401219  0.32489692  0.86746417  1
  In  In22  1  0.16433684  0.68824184  0.37577208  1
  In  In23  1  0.16717353  0.68108593  0.88292330  1
  In  In24  1  0.50492712  0.00962177  0.36695657  1
  In  In25  1  0.50743631  0.00847769  0.87355154  1
  In  In26  1  0.50180766  0.32830415  0.36964920  1
  In  In27  1  0.49344112  0.33194478  0.86574646  1
  In  In28  1  0.50239035  0.66765128  0.37127303  1
  In  In29  1  0.50374981  0.65289929  0.87376909  1
  In  In30  1  0.83417243  -0.00126260  0.37615139  1
  In  In31  1  0.82807221  -0.00085508  0.86934078  1
  In  In32  1  0.83304394  0.34262056  0.38157401  1
  In  In33  1  0.83664822  0.34277537  0.87210268  1
  In  In34  1  0.84440234  0.65808780  0.37808297  1
  In  In35  1  0.83027330  0.67927882  0.88170028  1
  In  In36  1  0.00964826  0.16305095  0.38723890  1
  In  In37  1  0.00098646  0.16952242  0.86656244  1
  In  In38  1  -0.01826550  0.49745329  0.37291519  1
  In  In39  1  -0.00432618  0.48359746  0.87868284  1
  In  In40  1  -0.00148692  0.83652717  0.37262014  1
  In  In41  1  -0.01363242  0.84035073  0.88421046  1
  In  In42  1  0.32557341  0.15473465  0.36811180  1
  In  In43  1  0.34049774  0.17005377  0.87152231  1
  In  In44  1  0.34518152  0.49620256  0.37209307  1
  In  In45  1  0.34379904  0.49394391  0.87468939  1
  In  In46  1  0.31479170  0.84137289  0.37362482  1
  In  In47  1  0.31592919  0.83928835  0.88285396  1
  In  In48  1  0.67589546  0.17344865  0.37289322  1
  In  In49  1  0.65999867  0.16167091  0.86982696  1
  In  In50  1  0.68630590  0.49539926  0.37608028  1
  In  In51  1  0.66680804  0.50886038  0.86328889  1
  In  In52  1  0.66769440  0.84848937  0.37408207  1
  In  In53  1  0.67718666  0.84236960  0.87014640  1
  In  In54  1  0.17436993  -0.00958248  0.12931934  1
  In  In55  1  0.16165900  0.00421057  0.62448676  1
  In  In56  1  0.17450307  0.34246220  0.12786068  1
  In  In57  1  0.17119110  0.32160673  0.62905402  1
  In  In58  1  0.14920151  0.66974570  0.12182374  1
  In  In59  1  0.15471961  0.67121619  0.62164096  1
  In  In60  1  0.49157025  0.01515345  0.12679418  1
  In  In61  1  0.49735730  0.00321794  0.63414716  1
  In  In62  1  0.51403129  0.31471890  0.12641444  1
  In  In63  1  0.50520431  0.33270510  0.63902343  1
  In  In64  1  0.50196384  0.66856873  0.12350785  1
  In  In65  1  0.50849984  0.67485756  0.63176599  1
  In  In66  1  0.84222041  -0.00632690  0.13374165  1
  In  In67  1  0.83731665  0.00342038  0.62477901  1
  In  In68  1  0.82019562  0.33010774  0.11759462  1
  In  In69  1  0.83603570  0.33007032  0.62685364  1
  In  In70  1  0.85641973  0.67983925  0.10428996  1
  In  In71  1  0.83171838  0.66195059  0.61933080  1
  In  In72  1  0.16028102  0.49802239  0.50192279  1
  In  In73  1  0.50343172  0.16738145  0.51105076  1
  In  In74  1  0.50003358  0.49754622  -0.00571666  1
  In  In75  1  0.50295300  0.83793008  0.49854809  1
  In  In76  1  0.50618822  0.49875074  0.51545221  1
  In  In77  1  0.67316665  0.65860401  0.24909701  1
  In  In78  1  0.16315399  0.50402823  -0.00100170  1
  In  In79  1  -0.00114654  0.32798100  0.25306273  1
  In  In80  1  0.50134380  0.83683561  0.00114059  1
  In  In81  1  0.33403252  0.66721748  0.76093107  1
  In  In82  1  0.82893773  0.16834454  -0.00024725  1
  In  In83  1  0.32881107  0.67014609  0.24588014  1
  In  In84  1  0.16545457  0.16671496  -0.00655762  1
  In  In85  1  -0.00382236  0.66518179  0.74913819  1
  Cu  Cu86  1  0.31833924  -0.00136717  0.49667818  1
  Cu  Cu87  1  0.50124022  0.48363900  0.24711743  1
  Cu  Cu88  1  0.67495099  -0.00005770  0.50358622  1
  Cu  Cu89  1  0.16748942  0.16252236  0.25249637  1
  Cu  Cu90  1  0.50007491  0.16636629  0.24865349  1
  Cu  Cu91  1  0.16462778  0.83969173  0.74877788  1
  Cu  Cu92  1  0.00117127  -0.00449757  0.00083502  1
  Cu  Cu93  1  0.68008147  0.66776028  0.50365942  1
  Cu  Cu94  1  0.83784938  0.83228423  0.24840335  1
  Cu  Cu95  1  0.50050532  0.16316683  0.75091070  1
  Cu  Cu96  1  -0.00088194  0.67560551  0.49753736  1
  Cu  Cu97  1  0.67054886  0.66333572  -0.00386971  1
  Cu  Cu98  1  0.50341475  0.83893455  0.75447338  1
  Cu  Cu99  1  0.82867647  0.16097210  0.25277410  1
  Cu  Cu100  1  0.83008061  0.49930545  0.74852139  1
  Cu  Cu101  1  0.16685289  0.48891497  0.75333469  1
  Cu  Cu102  1  0.33164789  0.67169264  0.49763363  1
  Cu  Cu103  1  0.83735661  0.83822093  0.75068038  1
  Cu  Cu104  1  0.15860625  0.84014554  0.24862955  1
  Cu  Cu105  1  0.67361247  -0.00300764  -0.00233159  1
  Cu  Cu106  1  -0.00273755  -0.00017222  0.49881746  1
  Cu  Cu107  1  0.67606982  0.34114535  0.50337254  1
  Cu  Cu108  1  0.83148260  0.49600187  0.24759107  1
  Cu  Cu109  1  0.16762171  0.15897551  0.74813314  1
  Cu  Cu110  1  0.16681053  0.50119869  0.24799440  1
  Cu  Cu111  1  0.34012804  0.32682873  -0.00179250  1
  Cu  Cu112  1  0.83152161  0.17023946  0.74856607  1
  Cu  Cu113  1  0.49879245  0.84415663  0.24669624  1
  Cu  Cu114  1  0.32598688  0.32085386  0.49937878  1
  Se  Se115  1  0.07685445  0.08051123  0.05948453  1
  Se  Se116  1  0.07848924  0.08354748  0.55460989  1
  Se  Se117  1  0.07873578  0.40676347  0.05749769  1
  Se  Se118  1  0.07754874  0.40868338  0.56435331  1
  Se  Se119  1  0.07058508  0.74539720  0.05031023  1
  Se  Se120  1  0.08605147  0.75581741  0.54896023  1
  Se  Se121  1  0.42109216  0.08439771  0.04637719  1
  Se  Se122  1  0.40551729  0.07151372  0.55762035  1
  Se  Se123  1  0.41338219  0.41069196  0.06122966  1
  Se  Se124  1  0.40819746  0.39996976  0.55948430  1
  Se  Se125  1  0.40889280  0.74375438  0.05829994  1
  Se  Se126  1  0.41196908  0.74822458  0.56051402  1
  Se  Se127  1  0.74765921  0.07621365  0.06438221  1
  Se  Se128  1  0.75436942  0.08811582  0.55477451  1
  Se  Se129  1  0.75060585  0.41369776  0.04407220  1
  Se  Se130  1  0.75622707  0.42341563  0.55956825  1
  Se  Se131  1  0.75183230  0.75187100  0.04678053  1
  Se  Se132  1  0.75607521  0.75848485  0.55524435  1
  Se  Se133  1  0.25537938  0.25260923  0.05922216  1
  Se  Se134  1  0.24194007  0.24005899  0.55177650  1
  Se  Se135  1  0.25455412  0.59189415  0.06036794  1
  Se  Se136  1  0.25733044  0.58912260  0.56001778  1
  Se  Se137  1  0.23960427  0.91983588  0.04653725  1
  Se  Se138  1  0.24117462  0.91503504  0.55400946  1
  Se  Se139  1  0.59053931  0.25041432  0.04716687  1
  Se  Se140  1  0.59604341  0.26133457  0.56416707  1
  Se  Se141  1  0.59210066  0.58620169  0.05845928  1
  Se  Se142  1  0.60018701  0.59200420  0.56635397  1
  Se  Se143  1  0.59331068  0.92186737  0.06306037  1
  Se  Se144  1  0.58938166  0.92378989  0.56318756  1
  Se  Se145  1  0.92606654  0.25627839  0.05642281  1
  Se  Se146  1  0.90120194  0.23680278  0.55682341  1
  Se  Se147  1  0.90540673  0.56143553  0.05133059  1
  Se  Se148  1  0.92057586  0.58718344  0.55006949  1
  Se  Se149  1  0.91352805  0.91796611  0.05546833  1
  Se  Se150  1  0.91258704  0.91731884  0.55211955  1
  Se  Se151  1  0.07383816  0.26310223  0.45242795  1
  Se  Se152  1  0.07039959  0.26004557  0.94272196  1
  Se  Se153  1  0.07863153  0.59111774  0.43734609  1
  Se  Se154  1  0.07191679  0.58955196  0.93834143  1
  Se  Se155  1  0.08128872  0.91735860  0.44346143  1
  Se  Se156  1  0.08519030  0.91785477  0.94365011  1
  Se  Se157  1  0.41471142  0.24710302  0.44151058  1
  Se  Se158  1  0.42355056  0.24863908  0.94263140  1
  Se  Se159  1  0.41725198  0.58931842  0.44636125  1
  Se  Se160  1  0.40332440  0.59453897  0.94636983  1
  Se  Se161  1  0.41060282  0.92737387  0.43812667  1
  Se  Se162  1  0.41427701  0.92582855  0.94093897  1
  Se  Se163  1  0.75009981  0.25346010  0.44691857  1
  Se  Se164  1  0.74431648  0.25341160  0.93520980  1
  Se  Se165  1  0.75645933  0.58090603  0.44796808  1
  Se  Se166  1  0.74827214  0.58116618  0.93861941  1
  Se  Se167  1  0.75280059  0.91441945  0.44824981  1
  Se  Se168  1  0.75817165  0.91546117  0.94569177  1
  Se  Se169  1  0.24161253  0.08685240  0.44327270  1
  Se  Se170  1  0.25637409  0.07725473  0.93748595  1
  Se  Se171  1  0.25763618  0.41317622  0.44134752  1
  Se  Se172  1  0.25450953  0.40651139  0.94162394  1
  Se  Se173  1  0.24834329  0.75840372  0.45008554  1
  Se  Se174  1  0.25092425  0.75093964  0.95481399  1
  Se  Se175  1  0.58998861  0.07934373  0.44574310  1
  Se  Se176  1  0.58933828  0.08200929  0.94806745  1
  Se  Se177  1  0.58764497  0.41335664  0.44355603  1
  Se  Se178  1  0.58833278  0.41317803  0.93274604  1
  Se  Se179  1  0.59412722  0.74039526  0.44226499  1
  Se  Se180  1  0.58938509  0.74566159  0.93855047  1
  Se  Se181  1  0.91301339  0.08328114  0.44651599  1
  Se  Se182  1  0.92352437  0.07932522  0.94056660  1
  Se  Se183  1  0.92015899  0.41788318  0.45049802  1
  Se  Se184  1  0.90686193  0.41924640  0.95101505  1
  Se  Se185  1  0.91401170  0.75512070  0.44297804  1
  Se  Se186  1  0.92406230  0.74307889  0.95126958  1
  Se  Se187  1  0.24978142  0.24936575  0.30319770  1
  Se  Se188  1  0.25035264  0.24415361  0.80213154  1
  Se  Se189  1  0.24425987  0.58123401  0.31286803  1
  Se  Se190  1  0.23672917  0.57570813  0.81538639  1
  Se  Se191  1  0.24525749  0.92331730  0.29965689  1
  Se  Se192  1  0.25222666  0.91760233  0.80224350  1
  Se  Se193  1  0.58606138  0.24717026  0.30324869  1
  Se  Se194  1  0.58332313  0.24985719  0.80096394  1
  Se  Se195  1  0.57787486  0.56755115  0.30820478  1
  Se  Se196  1  0.57558592  0.58296223  0.79573947  1
  Se  Se197  1  0.58537401  0.92134078  0.30115898  1
  Se  Se198  1  0.58888115  0.92295490  0.80525277  1
  Se  Se199  1  0.90933757  0.24143263  0.31438914  1
  Se  Se200  1  0.91396250  0.25338755  0.80336503  1
  Se  Se201  1  0.91457638  0.58270656  0.29796147  1
  Se  Se202  1  0.90972944  0.57736815  0.81161954  1
  Se  Se203  1  0.91604625  0.91885460  0.30362560  1
  Se  Se204  1  0.92084523  0.91966640  0.80465279  1
  Se  Se205  1  0.07733525  0.08791683  0.30605673  1
  Se  Se206  1  0.07975957  0.08040652  0.80118697  1
  Se  Se207  1  0.08927244  0.42225675  0.31168918  1
  Se  Se208  1  0.07718682  0.41059131  0.80416267  1
  Se  Se209  1  0.07919343  0.75181115  0.30046946  1
  Se  Se210  1  0.08433324  0.75829382  0.80793582  1
  Se  Se211  1  0.41415284  0.08102017  0.29875079  1
  Se  Se212  1  0.41652663  0.07974486  0.80325256  1
  Se  Se213  1  0.41414635  0.40730336  0.30188625  1
  Se  Se214  1  0.41215883  0.41752416  0.79859403  1
  Se  Se215  1  0.42070437  0.76169855  0.30770246  1
  Se  Se216  1  0.42316255  0.76181386  0.81803294  1
  Se  Se217  1  0.74563513  0.07752485  0.30675614  1
  Se  Se218  1  0.74885275  0.08418485  0.80137885  1
  Se  Se219  1  0.75211143  0.41012294  0.30137045  1
  Se  Se220  1  0.74718090  0.41461327  0.80086695  1
  Se  Se221  1  0.75529985  0.75398593  0.31048118  1
  Se  Se222  1  0.75511349  0.75206089  0.80318457  1
  Se  Se223  1  0.25005434  0.08428664  0.19358645  1
  Se  Se224  1  0.25270893  0.07704368  0.69467500  1
  Se  Se225  1  0.25381981  0.41411411  0.20429014  1
  Se  Se226  1  0.25038773  0.40616971  0.70057451  1
  Se  Se227  1  0.24150044  0.76097717  0.18664275  1
  Se  Se228  1  0.24335276  0.75160333  0.69334768  1
  Se  Se229  1  0.58538277  0.08362453  0.19568929  1
  Se  Se230  1  0.58710367  0.08118645  0.69882164  1
  Se  Se231  1  0.58933187  0.40783316  0.19376723  1
  Se  Se232  1  0.56912796  0.43374039  0.70087223  1
  Se  Se233  1  0.57965161  0.75595100  0.19402940  1
  Se  Se234  1  0.58648047  0.75307925  0.70395143  1
  Se  Se235  1  0.91860242  0.07959704  0.20510687  1
  Se  Se236  1  0.91604519  0.08421922  0.69768087  1
  Se  Se237  1  0.91399396  0.41548956  0.18767592  1
  Se  Se238  1  0.91635320  0.41557759  0.69824503  1
  Se  Se239  1  0.91612981  0.74927103  0.19082654  1
  Se  Se240  1  0.91512330  0.75898214  0.68680199  1
  Se  Se241  1  0.08979720  0.24182546  0.18846833  1
  Se  Se242  1  0.08313415  0.24374187  0.69631509  1
  Se  Se243  1  0.08224590  0.58455673  0.19786645  1
  Se  Se244  1  0.09094409  0.57176144  0.69225133  1
  Se  Se245  1  0.07560783  0.92287410  0.19461758  1
  Se  Se246  1  0.07973498  0.92079520  0.69574067  1
  Se  Se247  1  0.41626900  0.24813647  0.19341074  1
  Se  Se248  1  0.41596114  0.24413177  0.69612476  1
  Se  Se249  1  0.42494756  0.57382856  0.19215516  1
  Se  Se250  1  0.41488772  0.58346191  0.68998475  1
  Se  Se251  1  0.41327638  0.92036461  0.19117085  1
  Se  Se252  1  0.41594354  0.91570093  0.70002347  1
  Se  Se253  1  0.75420199  0.24693749  0.19464832  1
  Se  Se254  1  0.74669534  0.25677795  0.69877024  1
  Se  Se255  1  0.76113612  0.57959116  0.18227070  1
  Se  Se256  1  0.75376356  0.59255113  0.69777517  1
  Se  Se257  1  0.74977311  0.91538492  0.19993959  1
  Se  Se258  1  0.75364206  0.92130233  0.69609287  1
