# generated using pymatgen
data_In86Cu29Se144
_symmetry_space_group_name_H-M   'P 1'
_cell_length_a   17.57610194
_cell_length_b   17.57668380
_cell_length_c   23.42142908
_cell_angle_alpha   90.02596936
_cell_angle_beta   89.97119815
_cell_angle_gamma   90.00439518
_symmetry_Int_Tables_number   1
_chemical_formula_structural   In86Cu29Se144
_chemical_formula_sum   'In86 Cu29 Se144'
_cell_volume   7235.57071767
_cell_formula_units_Z   1
loop_
 _symmetry_equiv_pos_site_id
 _symmetry_equiv_pos_as_xyz
  1  'x, y, z'
loop_
 _atom_site_type_symbol
 _atom_site_label
 _atom_site_symmetry_multiplicity
 _atom_site_fract_x
 _atom_site_fract_y
 _atom_site_fract_z
 _atom_site_occupancy
  In  In0  1  -0.01043003  0.16915991  0.14016836  1
  In  In1  1  -0.00692334  0.17042963  0.62013635  1
  In  In2  1  -0.01224691  0.48930033  0.13169262  1
  In  In3  1  -0.01309873  0.49412872  0.61615276  1
  In  In4  1  0.00966502  0.85063594  0.13428320  1
  In  In5  1  0.00582474  0.84889819  0.60472046  1
  In  In6  1  0.33210825  0.17716532  0.13797808  1
  In  In7  1  0.34562654  0.17600651  0.61817625  1
  In  In8  1  0.35997165  0.48347365  0.14870840  1
  In  In9  1  0.33263549  0.48343120  0.62167933  1
  In  In10  1  0.34345420  0.80821913  0.14957739  1
  In  In11  1  0.33725752  0.83183756  0.61155429  1
  In  In12  1  0.68014884  0.16589971  0.13171691  1
  In  In13  1  0.66115809  0.16357366  0.61799803  1
  In  In14  1  0.64374330  0.51274824  0.15141413  1
  In  In15  1  0.67382446  0.50659777  0.62020576  1
  In  In16  1  0.65315214  0.83512154  0.12830892  1
  In  In17  1  0.66728104  0.83548545  0.61865970  1
  In  In18  1  0.16238304  -0.01249433  0.36813523  1
  In  In19  1  0.16298977  0.01233227  0.87258491  1
  In  In20  1  0.16425883  0.33502290  0.36696284  1
  In  In21  1  0.16089509  0.33009606  0.86726374  1
  In  In22  1  0.18181343  0.67447886  0.37068152  1
  In  In23  1  0.17341517  0.67141931  0.87347827  1
  In  In24  1  0.48808100  0.01000858  0.37649533  1
  In  In25  1  0.49585207  -0.01066276  0.87531620  1
  In  In26  1  0.50985236  0.33155029  0.36465234  1
  In  In27  1  0.50234593  0.34819109  0.87909494  1
  In  In28  1  0.50699481  0.66211445  0.37043612  1
  In  In29  1  0.50186548  0.66279916  0.87963011  1
  In  In30  1  0.84634109  0.00390088  0.39020626  1
  In  In31  1  0.84226381  0.01143280  0.86354332  1
  In  In32  1  0.83810873  0.33093978  0.38324101  1
  In  In33  1  0.83205557  0.31811529  0.87555662  1
  In  In34  1  0.82260373  0.67131256  0.37914534  1
  In  In35  1  0.83071602  0.68275247  0.86845649  1
  In  In36  1  -0.00884180  0.17001049  0.37721033  1
  In  In37  1  -0.00556225  0.16078842  0.86628766  1
  In  In38  1  -0.00547918  0.48328745  0.38208408  1
  In  In39  1  0.01240920  0.49282852  0.87094635  1
  In  In40  1  -0.00809824  0.85043120  0.39016980  1
  In  In41  1  -0.01298819  0.84562062  0.86834773  1
  In  In42  1  0.35162939  0.17456987  0.35658130  1
  In  In43  1  0.32352978  0.16646830  0.87660063  1
  In  In44  1  0.35661773  0.50843928  0.35243089  1
  In  In45  1  0.34656343  0.50268162  0.87797110  1
  In  In46  1  0.33632112  0.83677314  0.37643543  1
  In  In47  1  0.34154929  0.84713745  0.87916478  1
  In  In48  1  0.66229336  0.17320421  0.37574331  1
  In  In49  1  0.68060873  0.17402717  0.87710832  1
  In  In50  1  0.65905470  0.50209983  0.37098456  1
  In  In51  1  0.65383134  0.50312704  0.87560418  1
  In  In52  1  0.67686097  0.82332468  0.38141171  1
  In  In53  1  0.65762889  0.82605542  0.86496424  1
  In  In54  1  0.16040556  -0.00570397  0.14225083  1
  In  In55  1  0.16744517  -0.01109937  0.62274559  1
  In  In56  1  0.17088670  0.32477171  0.13138469  1
  In  In57  1  0.17012601  0.32515097  0.62344813  1
  In  In58  1  0.19317429  0.67582806  0.13929777  1
  In  In59  1  0.15720963  0.67327014  0.61842644  1
  In  In60  1  0.50924819  -0.01756271  0.12481754  1
  In  In61  1  0.50893433  0.00952654  0.61420847  1
  In  In62  1  0.49566374  0.34396120  0.14390948  1
  In  In63  1  0.49211892  0.33074076  0.61528856  1
  In  In64  1  0.50083695  0.66644475  0.13109070  1
  In  In65  1  0.51243097  0.67407516  0.61491762  1
  In  In66  1  0.83167492  0.01941064  0.13269782  1
  In  In67  1  0.83143925  0.00192413  0.61610345  1
  In  In68  1  0.83329611  0.31847643  0.14155725  1
  In  In69  1  0.84533011  0.33295412  0.60271764  1
  In  In70  1  0.83120560  0.64897094  0.13358766  1
  In  In71  1  0.82344262  0.65986559  0.61684355  1
  In  In72  1  0.50178607  0.16994179  0.00471506  1
  In  In73  1  0.66837066  0.33435017  0.74906950  1
  In  In74  1  0.16509951  0.16131099  0.48401315  1
  In  In75  1  0.17931232  0.49229033  0.00569773  1
  In  In76  1  -0.00383931  0.67055455  0.25316668  1
  In  In77  1  0.33640071  0.66046241  0.75233993  1
  In  In78  1  0.81898222  0.48628783  0.00102592  1
  In  In79  1  0.16977334  0.16843877  0.01440857  1
  In  In80  1  0.66803216  0.00491922  0.25979944  1
  In  In81  1  0.17321603  0.83453869  0.00537178  1
  In  In82  1  0.82293415  0.83701817  -0.00070848  1
  In  In83  1  0.32875783  0.00147120  0.74974161  1
  In  In84  1  -0.01383187  0.66181815  0.73448666  1
  In  In85  1  0.17349328  0.50406083  0.49398489  1
  Cu  Cu86  1  0.82589552  0.84174894  0.74166893  1
  Cu  Cu87  1  0.16238146  0.16611175  0.25615385  1
  Cu  Cu88  1  0.82820827  0.49047069  0.25700892  1
  Cu  Cu89  1  0.50041674  0.17127945  0.74261703  1
  Cu  Cu90  1  0.34133426  0.66539144  0.49016684  1
  Cu  Cu91  1  -0.00766103  0.00772862  -0.00109449  1
  Cu  Cu92  1  0.83333943  0.83670503  0.25997056  1
  Cu  Cu93  1  0.50018320  0.83055482  0.25479844  1
  Cu  Cu94  1  0.16107708  0.50369008  0.25526771  1
  Cu  Cu95  1  0.50104591  0.50230920  0.75110530  1
  Cu  Cu96  1  0.66223650  -0.00164326  0.49331558  1
  Cu  Cu97  1  0.33526586  0.00333934  0.49394716  1
  Cu  Cu98  1  0.65893148  0.65832769  0.49766539  1
  Cu  Cu99  1  0.66844632  0.33708651  0.01057816  1
  Cu  Cu100  1  0.67078143  0.00206830  0.00081972  1
  Cu  Cu101  1  0.83090642  0.16793825  0.74330340  1
  Cu  Cu102  1  0.16186959  0.48070563  0.74467126  1
  Cu  Cu103  1  0.15768252  0.16632369  0.74465866  1
  Cu  Cu104  1  0.34041782  -0.00852398  0.01197411  1
  Cu  Cu105  1  0.35013983  0.66447910  0.01144476  1
  Cu  Cu106  1  0.66039917  0.66465913  0.00548745  1
  Cu  Cu107  1  -0.00582656  0.32023269  0.00556319  1
  Cu  Cu108  1  0.83332342  0.49397220  0.74032305  1
  Cu  Cu109  1  0.33938970  0.33685436  0.48417703  1
  Cu  Cu110  1  0.00777047  0.66682688  0.00617851  1
  Cu  Cu111  1  0.15532431  0.82783965  0.74315636  1
  Cu  Cu112  1  -0.00130817  0.67034864  0.49614551  1
  Cu  Cu113  1  0.50556214  0.83861758  0.74170718  1
  Cu  Cu114  1  0.65983808  0.33535792  0.49534166  1
  Se  Se115  1  0.07614251  0.07472143  0.06539869  1
  Se  Se116  1  0.08534572  0.08048144  0.55715020  1
  Se  Se117  1  0.07481738  0.40616388  0.06043296  1
  Se  Se118  1  0.08617574  0.41322964  0.55498043  1
  Se  Se119  1  0.08372674  0.74498575  0.06848365  1
  Se  Se120  1  0.08738353  0.75387351  0.54390581  1
  Se  Se121  1  0.41364539  0.08102139  0.06775260  1
  Se  Se122  1  0.41695554  0.08762028  0.54891394  1
  Se  Se123  1  0.42675666  0.41917894  0.06445133  1
  Se  Se124  1  0.41650926  0.41907689  0.54491873  1
  Se  Se125  1  0.42183877  0.75813249  0.06320018  1
  Se  Se126  1  0.42235210  0.74928654  0.54681536  1
  Se  Se127  1  0.75139307  0.08539913  0.05409412  1
  Se  Se128  1  0.74364698  0.08323873  0.54852080  1
  Se  Se129  1  0.74340046  0.41300958  0.07819468  1
  Se  Se130  1  0.74518144  0.41549006  0.55057428  1
  Se  Se131  1  0.74728388  0.73810045  0.06497742  1
  Se  Se132  1  0.74264406  0.74492635  0.54915164  1
  Se  Se133  1  0.26849647  0.26496170  0.05678306  1
  Se  Se134  1  0.25792002  0.25629464  0.54453327  1
  Se  Se135  1  0.26249606  0.58664514  0.06610754  1
  Se  Se136  1  0.26186618  0.59346980  0.55915887  1
  Se  Se137  1  0.25684976  0.91738532  0.07262804  1
  Se  Se138  1  0.25333058  0.92034311  0.54932946  1
  Se  Se139  1  0.58841405  0.25542795  0.06915054  1
  Se  Se140  1  0.57916026  0.24917229  0.55059112  1
  Se  Se141  1  0.58392993  0.58051879  0.06332479  1
  Se  Se142  1  0.57744229  0.57219749  0.55099808  1
  Se  Se143  1  0.58886743  0.91252200  0.04726619  1
  Se  Se144  1  0.58011813  0.91438637  0.54876358  1
  Se  Se145  1  0.91190232  0.24349842  0.06321752  1
  Se  Se146  1  0.90790708  0.22858290  0.54004676  1
  Se  Se147  1  0.92093484  0.58220216  0.05494637  1
  Se  Se148  1  0.91658052  0.58581413  0.54910316  1
  Se  Se149  1  0.91781937  0.92211169  0.05991684  1
  Se  Se150  1  0.90102149  0.91041189  0.54546599  1
  Se  Se151  1  0.07668997  0.26709178  0.44302132  1
  Se  Se152  1  0.07999811  0.24757047  0.94400125  1
  Se  Se153  1  0.07950304  0.59238048  0.43480713  1
  Se  Se154  1  0.08546981  0.58689799  0.94439670  1
  Se  Se155  1  0.08877895  0.92541322  0.45149564  1
  Se  Se156  1  0.07694600  0.92422309  0.94287076  1
  Se  Se157  1  0.42299682  0.24999368  0.43553030  1
  Se  Se158  1  0.41231223  0.25449753  0.94038706  1
  Se  Se159  1  0.41930516  0.57792279  0.43837919  1
  Se  Se160  1  0.42472753  0.57943072  0.95167289  1
  Se  Se161  1  0.42144547  0.91614817  0.44712403  1
  Se  Se162  1  0.42452595  0.91398280  0.95486229  1
  Se  Se163  1  0.74566488  0.24978882  0.44786848  1
  Se  Se164  1  0.74930795  0.25521445  0.95428833  1
  Se  Se165  1  0.74540190  0.57863226  0.44372351  1
  Se  Se166  1  0.74674260  0.59474072  0.94063861  1
  Se  Se167  1  0.75205219  0.91658686  0.44667306  1
  Se  Se168  1  0.74483820  0.92550240  0.93114700  1
  Se  Se169  1  0.26417834  0.08162944  0.42723296  1
  Se  Se170  1  0.25801186  0.06997587  0.95153892  1
  Se  Se171  1  0.26087508  0.42123356  0.42805991  1
  Se  Se172  1  0.25749609  0.40497320  0.93664895  1
  Se  Se173  1  0.25294528  0.75223569  0.44732619  1
  Se  Se174  1  0.26868726  0.74097724  0.94649977  1
  Se  Se175  1  0.58075552  0.08512998  0.44261981  1
  Se  Se176  1  0.58829854  0.08075643  0.93937345  1
  Se  Se177  1  0.57682563  0.41731937  0.44106469  1
  Se  Se178  1  0.58971988  0.41764549  0.95207774  1
  Se  Se179  1  0.58146335  0.74635092  0.44420305  1
  Se  Se180  1  0.58694642  0.74923145  0.94448812  1
  Se  Se181  1  0.91522817  0.10075713  0.45762616  1
  Se  Se182  1  0.91269986  0.08956900  0.94252113  1
  Se  Se183  1  0.90860850  0.42107132  0.45645329  1
  Se  Se184  1  0.92492725  0.40777176  0.94244164  1
  Se  Se185  1  0.91006666  0.75129589  0.44648875  1
  Se  Se186  1  0.92702528  0.74681599  0.94477405  1
  Se  Se187  1  0.24964277  0.25359219  0.30055706  1
  Se  Se188  1  0.24423720  0.24159916  0.80304562  1
  Se  Se189  1  0.25114783  0.58679173  0.29935142  1
  Se  Se190  1  0.23757362  0.56724092  0.80603753  1
  Se  Se191  1  0.26133494  0.92076113  0.30391780  1
  Se  Se192  1  0.23623276  0.90569506  0.80721986  1
  Se  Se193  1  0.59121843  0.24603348  0.29575676  1
  Se  Se194  1  0.57612891  0.24671717  0.81108349  1
  Se  Se195  1  0.57282736  0.57181452  0.29717489  1
  Se  Se196  1  0.58186659  0.58852285  0.80310562  1
  Se  Se197  1  0.58109672  0.90872163  0.31622361  1
  Se  Se198  1  0.58207494  0.92221590  0.80119092  1
  Se  Se199  1  0.92563276  0.26338857  0.30833464  1
  Se  Se200  1  0.91429263  0.24998065  0.79968406  1
  Se  Se201  1  0.91103451  0.57631928  0.31357707  1
  Se  Se202  1  0.90906532  0.57441942  0.80862017  1
  Se  Se203  1  0.91373842  0.92079176  0.31167590  1
  Se  Se204  1  0.91590423  0.92280907  0.79235273  1
  Se  Se205  1  0.08067254  0.08710449  0.31268702  1
  Se  Se206  1  0.07918896  0.07877114  0.79768504  1
  Se  Se207  1  0.07566534  0.41870064  0.30279870  1
  Se  Se208  1  0.07182375  0.40311578  0.79629397  1
  Se  Se209  1  0.07572357  0.75703502  0.32000290  1
  Se  Se210  1  0.07734797  0.74725832  0.80546390  1
  Se  Se211  1  0.41916714  0.07395830  0.29280588  1
  Se  Se212  1  0.42299094  0.09266074  0.80814873  1
  Se  Se213  1  0.40976105  0.39582500  0.29511956  1
  Se  Se214  1  0.41831215  0.41867452  0.80378791  1
  Se  Se215  1  0.41631279  0.74841139  0.30826925  1
  Se  Se216  1  0.42325158  0.76212099  0.80681656  1
  Se  Se217  1  0.76390864  0.08847414  0.31691279  1
  Se  Se218  1  0.74696246  0.09026749  0.80095588  1
  Se  Se219  1  0.74926806  0.41022952  0.31414252  1
  Se  Se220  1  0.75709895  0.42450587  0.81244123  1
  Se  Se221  1  0.74770627  0.74715132  0.30155548  1
  Se  Se222  1  0.74797551  0.75223692  0.79488971  1
  Se  Se223  1  0.24634915  0.08791083  0.19875450  1
  Se  Se224  1  0.24655225  0.09319539  0.68453774  1
  Se  Se225  1  0.24131353  0.42171910  0.19636866  1
  Se  Se226  1  0.25385622  0.40452036  0.69425541  1
  Se  Se227  1  0.22693121  0.77729392  0.21377277  1
  Se  Se228  1  0.24692994  0.75270373  0.69005008  1
  Se  Se229  1  0.57878698  0.08332733  0.19022958  1
  Se  Se230  1  0.58157129  0.08518860  0.69268183  1
  Se  Se231  1  0.59888053  0.39884657  0.21133428  1
  Se  Se232  1  0.57786142  0.42118589  0.68781196  1
  Se  Se233  1  0.58574557  0.74897868  0.20138214  1
  Se  Se234  1  0.58633526  0.75112245  0.69134886  1
  Se  Se235  1  0.93279762  0.06271945  0.20375814  1
  Se  Se236  1  0.91274704  0.08454203  0.68826323  1
  Se  Se237  1  0.91577047  0.40952591  0.20569079  1
  Se  Se238  1  0.91126127  0.40887598  0.68678560  1
  Se  Se239  1  0.90642834  0.76001373  0.18957062  1
  Se  Se240  1  0.90669427  0.76225648  0.67904701  1
  Se  Se241  1  0.08222849  0.25204473  0.20028579  1
  Se  Se242  1  0.07820915  0.25028685  0.68953416  1
  Se  Se243  1  0.08511199  0.58197075  0.18814984  1
  Se  Se244  1  0.08977239  0.57011412  0.68571869  1
  Se  Se245  1  0.08262881  0.91457012  0.21461167  1
  Se  Se246  1  0.07643858  0.91434706  0.69053092  1
  Se  Se247  1  0.41169910  0.25677975  0.20774031  1
  Se  Se248  1  0.41590987  0.25689148  0.69461134  1
  Se  Se249  1  0.39747387  0.60818658  0.19795425  1
  Se  Se250  1  0.42189743  0.57812535  0.68492884  1
  Se  Se251  1  0.42163469  0.91622506  0.19878982  1
  Se  Se252  1  0.41794420  0.91506956  0.68605001  1
  Se  Se253  1  0.75286239  0.23597300  0.21052688  1
  Se  Se254  1  0.75523962  0.25207428  0.68282956  1
  Se  Se255  1  0.74896617  0.58389453  0.20954891  1
  Se  Se256  1  0.74970001  0.58437311  0.69623582  1
  Se  Se257  1  0.75401986  0.91281824  0.19282270  1
  Se  Se258  1  0.74356457  0.92487398  0.68764218  1
