# generated using pymatgen
data_In86Cu29Se144
_symmetry_space_group_name_H-M   'P 1'
_cell_length_a   17.58230100
_cell_length_b   17.58267301
_cell_length_c   23.43527470
_cell_angle_alpha   90.02702647
_cell_angle_beta   90.01397758
_cell_angle_gamma   90.01517929
_symmetry_Int_Tables_number   1
_chemical_formula_structural   In86Cu29Se144
_chemical_formula_sum   'In86 Cu29 Se144'
_cell_volume   7244.86975706
_cell_formula_units_Z   1
loop_
 _symmetry_equiv_pos_site_id
 _symmetry_equiv_pos_as_xyz
  1  'x, y, z'
loop_
 _atom_site_type_symbol
 _atom_site_label
 _atom_site_symmetry_multiplicity
 _atom_site_fract_x
 _atom_site_fract_y
 _atom_site_fract_z
 _atom_site_occupancy
  In  In0  1  -0.00325105  0.15270985  0.12059507  1
  In  In1  1  -0.00841082  0.17924861  0.63566895  1
  In  In2  1  -0.00753069  0.50888712  0.12035316  1
  In  In3  1  0.00067521  0.47990036  0.62799832  1
  In  In4  1  -0.00829402  0.85041830  0.12712499  1
  In  In5  1  -0.00119507  0.85403800  0.63091741  1
  In  In6  1  0.33178060  0.17837096  0.13178991  1
  In  In7  1  0.34382775  0.16873629  0.62798489  1
  In  In8  1  0.36382113  0.47769924  0.15414990  1
  In  In9  1  0.33323371  0.50728649  0.62742385  1
  In  In10  1  0.34456299  0.81801380  0.13128457  1
  In  In11  1  0.32958852  0.82519292  0.62458558  1
  In  In12  1  0.65334965  0.17598500  0.14379943  1
  In  In13  1  0.66925829  0.16387264  0.62797236  1
  In  In14  1  0.66983822  0.50556655  0.12990844  1
  In  In15  1  0.65698720  0.49664265  0.62574908  1
  In  In16  1  0.66440658  0.83324184  0.12426456  1
  In  In17  1  0.67662196  0.84081703  0.61155409  1
  In  In18  1  0.17013305  0.00338966  0.36897217  1
  In  In19  1  0.16757331  0.01406068  0.87090828  1
  In  In20  1  0.18076188  0.33646327  0.37830250  1
  In  In21  1  0.16291329  0.32009174  0.86445930  1
  In  In22  1  0.16260466  0.65453858  0.37942146  1
  In  In23  1  0.17396370  0.65420773  0.87329447  1
  In  In24  1  0.49385198  -0.00635762  0.36444578  1
  In  In25  1  0.50376183  -0.01347027  0.88026190  1
  In  In26  1  0.50771257  0.33980719  0.35888690  1
  In  In27  1  0.50808227  0.34244024  0.87305161  1
  In  In28  1  0.51905671  0.66749613  0.35539554  1
  In  In29  1  0.49720894  0.66389196  0.88172558  1
  In  In30  1  0.83267651  -0.00127435  0.37311009  1
  In  In31  1  0.82874605  -0.00534695  0.86964550  1
  In  In32  1  0.81120352  0.32562491  0.37794983  1
  In  In33  1  0.83492229  0.33004642  0.87333150  1
  In  In34  1  0.83404487  0.67753328  0.37360014  1
  In  In35  1  0.82333628  0.67226213  0.88189803  1
  In  In36  1  0.00166210  0.15182211  0.37671495  1
  In  In37  1  0.01141941  0.17000644  0.86368811  1
  In  In38  1  0.00340915  0.51006957  0.38185028  1
  In  In39  1  0.00209074  0.48658976  0.87528521  1
  In  In40  1  -0.01541919  0.83612193  0.37779101  1
  In  In41  1  -0.01462079  0.83285681  0.87042447  1
  In  In42  1  0.35215450  0.17778880  0.35580206  1
  In  In43  1  0.31896395  0.16629599  0.87842368  1
  In  In44  1  0.33341440  0.49632089  0.36685351  1
  In  In45  1  0.34215785  0.50267556  0.87212404  1
  In  In46  1  0.34301725  0.83994924  0.36804429  1
  In  In47  1  0.35269291  0.82740530  0.87883357  1
  In  In48  1  0.67879189  0.17752987  0.36605149  1
  In  In49  1  0.67103007  0.16933395  0.87074270  1
  In  In50  1  0.66255833  0.49095417  0.35210043  1
  In  In51  1  0.67245973  0.48281893  0.89319910  1
  In  In52  1  0.66782079  0.83392352  0.37106548  1
  In  In53  1  0.66023186  0.84042335  0.88174229  1
  In  In54  1  0.15953981  0.00674396  0.12625821  1
  In  In55  1  0.15194892  -0.00396711  0.63392531  1
  In  In56  1  0.18189732  0.33679900  0.11903444  1
  In  In57  1  0.15991819  0.33709403  0.63203512  1
  In  In58  1  0.17697027  0.66792790  0.12353036  1
  In  In59  1  0.18843620  0.67152582  0.62880609  1
  In  In60  1  0.51084967  -0.00617162  0.13473439  1
  In  In61  1  0.51435883  0.00513993  0.62000497  1
  In  In62  1  0.50418730  0.34019882  0.13403257  1
  In  In63  1  0.50225432  0.32867558  0.63396821  1
  In  In64  1  0.49989757  0.66488287  0.12723385  1
  In  In65  1  0.48649541  0.66792615  0.62150516  1
  In  In66  1  0.83369256  -0.00133608  0.12932115  1
  In  In67  1  0.82913204  0.00286817  0.62182521  1
  In  In68  1  0.81859913  0.34472576  0.13032390  1
  In  In69  1  0.83510674  0.32763152  0.62967470  1
  In  In70  1  0.80832862  0.64902854  0.11278794  1
  In  In71  1  0.81886419  0.66937954  0.62016770  1
  In  In72  1  0.17033057  0.16624691  0.50475852  1
  In  In73  1  0.65928797  0.66355681  0.75098462  1
  In  In74  1  -0.00429814  0.67511465  0.25164314  1
  In  In75  1  0.00016596  0.33004574  0.24384142  1
  In  In76  1  0.00482812  0.66635189  0.75240650  1
  In  In77  1  0.83069333  0.16700990  0.00247364  1
  In  In78  1  0.83213395  0.50138971  0.49621314  1
  In  In79  1  0.33378832  -0.00260093  0.75328415  1
  In  In80  1  0.50303417  0.50107880  0.48263041  1
  In  In81  1  0.51272632  0.17221417  0.48960631  1
  In  In82  1  0.16511958  0.83433672  -0.00006929  1
  In  In83  1  0.16483033  0.83511824  0.50918333  1
  In  In84  1  0.49883978  0.17145921  0.01457243  1
  In  In85  1  0.16814671  0.49969069  -0.00540076  1
  Cu  Cu86  1  0.17379385  0.49596806  0.75094091  1
  Cu  Cu87  1  0.82746895  0.83348189  0.24862316  1
  Cu  Cu88  1  0.33626952  0.34703762  0.49824284  1
  Cu  Cu89  1  0.50334966  0.83102980  0.24797943  1
  Cu  Cu90  1  0.00300344  0.66640665  0.50235180  1
  Cu  Cu91  1  -0.00408426  0.32972510  -0.00800717  1
  Cu  Cu92  1  0.50489722  0.83267132  0.75220949  1
  Cu  Cu93  1  0.33538059  0.67034761  0.49893766  1
  Cu  Cu94  1  0.16729362  0.16454087  0.25149676  1
  Cu  Cu95  1  0.83467687  0.48981596  0.75610083  1
  Cu  Cu96  1  0.16724375  0.83911525  0.24841039  1
  Cu  Cu97  1  0.49895380  0.49491566  0.75121643  1
  Cu  Cu98  1  0.33508058  0.00211303  0.49008597  1
  Cu  Cu99  1  0.34104527  0.65649148  0.00661778  1
  Cu  Cu100  1  0.33670521  0.33320989  0.00486763  1
  Cu  Cu101  1  0.66034415  0.67001577  0.00413167  1
  Cu  Cu102  1  0.16990395  0.50069847  0.25205819  1
  Cu  Cu103  1  -0.01383608  0.67623703  0.00133743  1
  Cu  Cu104  1  0.50036809  0.16918023  0.75288084  1
  Cu  Cu105  1  0.82945986  0.84277865  0.74371600  1
  Cu  Cu106  1  0.33297543  -0.00309317  -0.00031570  1
  Cu  Cu107  1  -0.00311498  0.00321259  0.00088879  1
  Cu  Cu108  1  -0.01223924  -0.00082590  0.50112273  1
  Cu  Cu109  1  0.67051899  -0.00460325  0.49510204  1
  Cu  Cu110  1  0.83066404  0.16199449  0.74998651  1
  Cu  Cu111  1  0.83624944  0.16320053  0.24923983  1
  Cu  Cu112  1  0.66483535  0.67002970  0.48970400  1
  Cu  Cu113  1  -0.00007974  0.33101823  0.50719739  1
  Cu  Cu114  1  0.66551865  0.00236940  0.00496363  1
  Se  Se115  1  0.08612827  0.08528014  0.04843625  1
  Se  Se116  1  0.07304806  0.07833517  0.55981971  1
  Se  Se117  1  0.07482301  0.41014177  0.05619273  1
  Se  Se118  1  0.08837955  0.41499219  0.55333868  1
  Se  Se119  1  0.07273708  0.74601446  0.06242070  1
  Se  Se120  1  0.07606953  0.74378633  0.56937694  1
  Se  Se121  1  0.40956460  0.07337524  0.06594578  1
  Se  Se122  1  0.41603408  0.08400097  0.55051870  1
  Se  Se123  1  0.41613002  0.41528046  0.06178206  1
  Se  Se124  1  0.42355286  0.41863207  0.55818991  1
  Se  Se125  1  0.42155153  0.74930861  0.05266637  1
  Se  Se126  1  0.41658325  0.75715648  0.55004177  1
  Se  Se127  1  0.73719278  0.08674717  0.06693801  1
  Se  Se128  1  0.74394213  0.08331839  0.55289543  1
  Se  Se129  1  0.75310975  0.42855960  0.05700904  1
  Se  Se130  1  0.74569125  0.41373213  0.55939978  1
  Se  Se131  1  0.74854846  0.75617499  0.05117349  1
  Se  Se132  1  0.75145701  0.74935779  0.54337074  1
  Se  Se133  1  0.25186449  0.24464057  0.05083777  1
  Se  Se134  1  0.26348177  0.26059509  0.55857989  1
  Se  Se135  1  0.25934270  0.57386599  0.06277156  1
  Se  Se136  1  0.25448141  0.58639484  0.55313957  1
  Se  Se137  1  0.25555870  0.91653376  0.06390036  1
  Se  Se138  1  0.25687606  0.93369462  0.56051908  1
  Se  Se139  1  0.59672421  0.26392049  0.06234898  1
  Se  Se140  1  0.59095228  0.26022450  0.55842472  1
  Se  Se141  1  0.58260420  0.58300261  0.05818262  1
  Se  Se142  1  0.58724984  0.59115316  0.55288007  1
  Se  Se143  1  0.58009052  0.91743393  0.05511252  1
  Se  Se144  1  0.58130568  0.91645165  0.54739582  1
  Se  Se145  1  0.91981251  0.25967436  0.06271955  1
  Se  Se146  1  0.91437858  0.24759744  0.55625707  1
  Se  Se147  1  0.90955398  0.58135439  0.04820183  1
  Se  Se148  1  0.92254053  0.58493252  0.56379806  1
  Se  Se149  1  0.91024686  0.92200749  0.05177628  1
  Se  Se150  1  0.91037282  0.91168446  0.55468282  1
  Se  Se151  1  0.07976907  0.25489411  0.44155770  1
  Se  Se152  1  0.08300596  0.24868549  0.94182411  1
  Se  Se153  1  0.08762556  0.57925940  0.45649844  1
  Se  Se154  1  0.06949136  0.59451009  0.94281754  1
  Se  Se155  1  0.07877707  0.92470168  0.44352786  1
  Se  Se156  1  0.07479948  0.92158261  0.93870924  1
  Se  Se157  1  0.41462735  0.26549238  0.43758744  1
  Se  Se158  1  0.41371995  0.25103434  0.94281637  1
  Se  Se159  1  0.41261820  0.59771964  0.43159442  1
  Se  Se160  1  0.42068105  0.57355906  0.94973121  1
  Se  Se161  1  0.42040963  0.91633822  0.44354300  1
  Se  Se162  1  0.42054878  0.91259471  0.95350861  1
  Se  Se163  1  0.74763389  0.23969104  0.45173080  1
  Se  Se164  1  0.73962612  0.25830448  0.94627728  1
  Se  Se165  1  0.73859225  0.58211805  0.43096203  1
  Se  Se166  1  0.74510574  0.58730042  0.94980046  1
  Se  Se167  1  0.75406920  0.91090017  0.44204981  1
  Se  Se168  1  0.74846747  0.92342019  0.94682043  1
  Se  Se169  1  0.26074327  0.09042170  0.43433066  1
  Se  Se170  1  0.24708281  0.07995320  0.95047632  1
  Se  Se171  1  0.25164166  0.42879304  0.44640500  1
  Se  Se172  1  0.25586830  0.40572757  0.93743371  1
  Se  Se173  1  0.25023495  0.75139814  0.44081021  1
  Se  Se174  1  0.25810059  0.73667065  0.94666223  1
  Se  Se175  1  0.59227557  0.07317804  0.43155209  1
  Se  Se176  1  0.58586229  0.08468819  0.94536720  1
  Se  Se177  1  0.59912337  0.40639473  0.43549201  1
  Se  Se178  1  0.56726737  0.42093149  0.95413625  1
  Se  Se179  1  0.57888208  0.74858506  0.43610600  1
  Se  Se180  1  0.57989378  0.75186738  0.94652657  1
  Se  Se181  1  0.91000897  0.08449246  0.44624934  1
  Se  Se182  1  0.91938449  0.08324135  0.93727397  1
  Se  Se183  1  0.92234835  0.40556683  0.43937462  1
  Se  Se184  1  0.91175491  0.41655396  0.94497897  1
  Se  Se185  1  0.91738631  0.74635761  0.44979942  1
  Se  Se186  1  0.90723465  0.76009418  0.94625415  1
  Se  Se187  1  0.24713549  0.25383520  0.30197048  1
  Se  Se188  1  0.25459765  0.24421325  0.80001695  1
  Se  Se189  1  0.24790549  0.58828400  0.30507819  1
  Se  Se190  1  0.25689238  0.58195482  0.80105564  1
  Se  Se191  1  0.25267765  0.91930047  0.30265509  1
  Se  Se192  1  0.25204300  0.90710400  0.81852264  1
  Se  Se193  1  0.57339822  0.23421021  0.30153521  1
  Se  Se194  1  0.58486420  0.25249383  0.80560279  1
  Se  Se195  1  0.56487783  0.56021485  0.28795336  1
  Se  Se196  1  0.58085242  0.57046888  0.81451756  1
  Se  Se197  1  0.58695643  0.91553320  0.30041344  1
  Se  Se198  1  0.58673542  0.91829211  0.80395556  1
  Se  Se199  1  0.91621975  0.24347555  0.31083707  1
  Se  Se200  1  0.91395061  0.24739322  0.80337796  1
  Se  Se201  1  0.91140681  0.57695412  0.30941729  1
  Se  Se202  1  0.90826496  0.58036291  0.81261369  1
  Se  Se203  1  0.91506639  0.91518402  0.30138141  1
  Se  Se204  1  0.91679041  0.92040131  0.79781690  1
  Se  Se205  1  0.08162705  0.08075921  0.30104178  1
  Se  Se206  1  0.08050310  0.07563075  0.79681919  1
  Se  Se207  1  0.08588778  0.42173327  0.31043939  1
  Se  Se208  1  0.08460146  0.41613820  0.80182941  1
  Se  Se209  1  0.08955997  0.76099332  0.31390581  1
  Se  Se210  1  0.09298412  0.75451027  0.81423464  1
  Se  Se211  1  0.40480216  0.06866864  0.29684516  1
  Se  Se212  1  0.42479150  0.08651071  0.81570135  1
  Se  Se213  1  0.41369633  0.41688604  0.29742604  1
  Se  Se214  1  0.41426086  0.41096409  0.80329301  1
  Se  Se215  1  0.41804565  0.74865821  0.30094192  1
  Se  Se216  1  0.42500015  0.74533669  0.80419544  1
  Se  Se217  1  0.75191760  0.08026721  0.30217987  1
  Se  Se218  1  0.74573105  0.07980486  0.80301434  1
  Se  Se219  1  0.76028516  0.41009813  0.29805802  1
  Se  Se220  1  0.74500257  0.41517229  0.81039584  1
  Se  Se221  1  0.74736779  0.74606839  0.30081571  1
  Se  Se222  1  0.75169966  0.75943644  0.80447121  1
  Se  Se223  1  0.24879484  0.08470490  0.19339068  1
  Se  Se224  1  0.24760365  0.08719777  0.69030376  1
  Se  Se225  1  0.24726083  0.41014711  0.20058673  1
  Se  Se226  1  0.25572546  0.41633381  0.69327494  1
  Se  Se227  1  0.24633724  0.75003023  0.19841554  1
  Se  Se228  1  0.25463638  0.75588001  0.70237995  1
  Se  Se229  1  0.57952242  0.08260138  0.20606866  1
  Se  Se230  1  0.58107771  0.08558293  0.69727865  1
  Se  Se231  1  0.57292170  0.43813731  0.19995932  1
  Se  Se232  1  0.58682232  0.41426286  0.69984189  1
  Se  Se233  1  0.58663764  0.74753620  0.19443704  1
  Se  Se234  1  0.58058335  0.75607255  0.68469707  1
  Se  Se235  1  0.92052666  0.08021157  0.19721530  1
  Se  Se236  1  0.91335008  0.08021166  0.69368309  1
  Se  Se237  1  0.91210811  0.43109183  0.19542642  1
  Se  Se238  1  0.91785797  0.40878666  0.70129044  1
  Se  Se239  1  0.90539460  0.75337192  0.18520174  1
  Se  Se240  1  0.90726370  0.75096191  0.69054699  1
  Se  Se241  1  0.09229150  0.24224264  0.18442618  1
  Se  Se242  1  0.09234217  0.24313680  0.69869921  1
  Se  Se243  1  0.08864943  0.57977205  0.19252414  1
  Se  Se244  1  0.09085229  0.57534266  0.68924221  1
  Se  Se245  1  0.08147209  0.92049095  0.19674903  1
  Se  Se246  1  0.09694259  0.89900983  0.70375963  1
  Se  Se247  1  0.42721941  0.24666965  0.19702778  1
  Se  Se248  1  0.41430625  0.25148271  0.70218276  1
  Se  Se249  1  0.39056962  0.61071034  0.19143907  1
  Se  Se250  1  0.42112748  0.58374121  0.69745963  1
  Se  Se251  1  0.41626357  0.91318683  0.19677393  1
  Se  Se252  1  0.42696476  0.91402972  0.68902462  1
  Se  Se253  1  0.75375063  0.25305168  0.20187576  1
  Se  Se254  1  0.74815385  0.24888929  0.69801999  1
  Se  Se255  1  0.74980559  0.58969291  0.20100970  1
  Se  Se256  1  0.75752621  0.57204146  0.69470124  1
  Se  Se257  1  0.74543524  0.91828347  0.19471569  1
  Se  Se258  1  0.74178586  0.92065950  0.69050580  1
