# generated using pymatgen
data_In86Cu29Se144
_symmetry_space_group_name_H-M   'P 1'
_cell_length_a   17.64025085
_cell_length_b   17.63941916
_cell_length_c   23.49888829
_cell_angle_alpha   90.01308302
_cell_angle_beta   89.99205424
_cell_angle_gamma   90.00628200
_symmetry_Int_Tables_number   1
_chemical_formula_structural   In86Cu29Se144
_chemical_formula_sum   'In86 Cu29 Se144'
_cell_volume   7312.00257364
_cell_formula_units_Z   1
loop_
 _symmetry_equiv_pos_site_id
 _symmetry_equiv_pos_as_xyz
  1  'x, y, z'
loop_
 _atom_site_type_symbol
 _atom_site_label
 _atom_site_symmetry_multiplicity
 _atom_site_fract_x
 _atom_site_fract_y
 _atom_site_fract_z
 _atom_site_occupancy
  In  In0  1  -0.00785418  0.17530198  0.13415500  1
  In  In1  1  -0.01451884  0.15349329  0.61453919  1
  In  In2  1  0.00858593  0.49306437  0.12951953  1
  In  In3  1  -0.00476280  0.49390235  0.61090172  1
  In  In4  1  -0.00306909  0.83372723  0.12931548  1
  In  In5  1  0.00937865  0.83741618  0.62191300  1
  In  In6  1  0.31999239  0.16480370  0.13433244  1
  In  In7  1  0.33721246  0.16597890  0.61058027  1
  In  In8  1  0.32948162  0.54358897  0.13818794  1
  In  In9  1  0.33359054  0.51496481  0.62329488  1
  In  In10  1  0.32730935  0.83341194  0.12286403  1
  In  In11  1  0.32594919  0.83010239  0.62101187  1
  In  In12  1  0.68009666  0.16681073  0.12583059  1
  In  In13  1  0.67103563  0.17117022  0.61644591  1
  In  In14  1  0.64873373  0.49522249  0.13218555  1
  In  In15  1  0.66986829  0.48914830  0.62599570  1
  In  In16  1  0.66932054  0.83450781  0.11192873  1
  In  In17  1  0.67308023  0.84914830  0.62523428  1
  In  In18  1  0.16601275  -0.00560523  0.37679361  1
  In  In19  1  0.15486415  -0.00686745  0.87550896  1
  In  In20  1  0.15683048  0.34041328  0.37948948  1
  In  In21  1  0.17142969  0.33937234  0.87646057  1
  In  In22  1  0.16895962  0.66793316  0.36714464  1
  In  In23  1  0.17357302  0.66436337  0.88524315  1
  In  In24  1  0.49500191  -0.00215740  0.37382239  1
  In  In25  1  0.50008962  -0.01042719  0.87698086  1
  In  In26  1  0.50279425  0.32633153  0.37501371  1
  In  In27  1  0.51254167  0.32390567  0.87218900  1
  In  In28  1  0.50137656  0.67787299  0.36849202  1
  In  In29  1  0.49997390  0.67993960  0.87254095  1
  In  In30  1  0.84639393  0.00281375  0.37459354  1
  In  In31  1  0.83598560  0.00109434  0.87784855  1
  In  In32  1  0.83669376  0.32663564  0.38008382  1
  In  In33  1  0.81874673  0.33077444  0.86901821  1
  In  In34  1  0.83548711  0.64914918  0.37516607  1
  In  In35  1  0.84605247  0.66547769  0.87631704  1
  In  In36  1  -0.00001945  0.16537827  0.37836387  1
  In  In37  1  -0.00130766  0.14766236  0.87144894  1
  In  In38  1  0.00310015  0.49868835  0.36944823  1
  In  In39  1  0.00322540  0.50804685  0.87435452  1
  In  In40  1  0.01104681  0.84422307  0.36459766  1
  In  In41  1  0.00072182  0.83495306  0.88495657  1
  In  In42  1  0.34114304  0.15420701  0.38187432  1
  In  In43  1  0.33880097  0.16936980  0.87379456  1
  In  In44  1  0.32179537  0.50054219  0.37062405  1
  In  In45  1  0.32312592  0.50668288  0.87769252  1
  In  In46  1  0.33828439  0.82487857  0.36402125  1
  In  In47  1  0.34381466  0.82247777  0.88930055  1
  In  In48  1  0.65943022  0.17815736  0.39548261  1
  In  In49  1  0.68322849  0.17337444  0.86061609  1
  In  In50  1  0.68731972  0.50054601  0.38447015  1
  In  In51  1  0.67090950  0.48325374  0.87069093  1
  In  In52  1  0.65078774  0.82679273  0.37766292  1
  In  In53  1  0.66204989  0.84480270  0.87907998  1
  In  In54  1  0.17545650  -0.00989079  0.13734252  1
  In  In55  1  0.15793290  -0.00600148  0.61972556  1
  In  In56  1  0.15453676  0.33397128  0.12732492  1
  In  In57  1  0.16681918  0.33437980  0.61161972  1
  In  In58  1  0.16474513  0.66642383  0.12314531  1
  In  In59  1  0.16968313  0.67609786  0.61563353  1
  In  In60  1  0.49907086  -0.01879770  0.12993172  1
  In  In61  1  0.50817839  0.00882971  0.61492456  1
  In  In62  1  0.50509869  0.35480287  0.13522248  1
  In  In63  1  0.51855184  0.33129327  0.61565687  1
  In  In64  1  0.45227812  0.70389976  0.17712613  1
  In  In65  1  0.47976296  0.66505952  0.62446810  1
  In  In66  1  0.83724045  0.01052787  0.12090236  1
  In  In67  1  0.81682720  0.02050367  0.64606083  1
  In  In68  1  0.83627022  0.32968891  0.12918216  1
  In  In69  1  0.82110287  0.33065173  0.61212952  1
  In  In70  1  0.82854018  0.67835649  0.12569726  1
  In  In71  1  0.83719148  0.66279039  0.61713714  1
  In  In72  1  0.33906611  0.33687887  0.74859498  1
  In  In73  1  0.67314394  0.65779063  0.25460858  1
  In  In74  1  0.50130315  0.16362567  0.00190778  1
  In  In75  1  0.49106672  0.51631402  0.01332201  1
  In  In76  1  -0.00863919  0.32510748  0.73561419  1
  In  In77  1  0.33463891  -0.00075468  0.75505508  1
  In  In78  1  0.66325000  0.67276933  0.74527291  1
  In  In79  1  0.83983909  0.83523121  0.50039853  1
  In  In80  1  0.33089258  0.33175267  0.25627032  1
  In  In81  1  -0.00118054  0.66513062  0.74858618  1
  In  In82  1  0.83374027  0.49921046  -0.00415868  1
  In  In83  1  0.15889605  0.16115524  0.00195246  1
  In  In84  1  0.50303614  0.50186128  0.50046093  1
  In  In85  1  0.66881167  0.00327730  0.25444062  1
  Cu  Cu86  1  -0.00381726  0.32913598  0.00568142  1
  Cu  Cu87  1  0.16396642  0.83116427  0.24921635  1
  Cu  Cu88  1  0.16220951  0.50373066  0.74980936  1
  Cu  Cu89  1  0.83470157  0.17256753  0.25390676  1
  Cu  Cu90  1  0.00006573  0.00067447  0.50002161  1
  Cu  Cu91  1  0.50139663  0.16426878  0.25759806  1
  Cu  Cu92  1  0.32641468  0.66998780  0.49546984  1
  Cu  Cu93  1  0.84081002  0.49023004  0.25375956  1
  Cu  Cu94  1  0.51526310  0.16803078  0.74018936  1
  Cu  Cu95  1  0.49264355  0.83631534  0.75259195  1
  Cu  Cu96  1  0.15997560  0.16110229  0.25671959  1
  Cu  Cu97  1  -0.00167492  -0.00375869  0.00478216  1
  Cu  Cu98  1  0.66824040  -0.00246626  0.50226723  1
  Cu  Cu99  1  0.16899983  0.82872955  0.74634077  1
  Cu  Cu100  1  0.33024232  -0.00337792  0.00486247  1
  Cu  Cu101  1  0.66598885  0.33178497  -0.00223347  1
  Cu  Cu102  1  0.50008102  0.50123785  0.74387513  1
  Cu  Cu103  1  0.00229766  0.66782721  0.00258960  1
  Cu  Cu104  1  0.16695838  0.50401797  0.24923202  1
  Cu  Cu105  1  0.00556063  0.66506425  0.49125934  1
  Cu  Cu106  1  0.83404953  0.83366495  0.24976118  1
  Cu  Cu107  1  0.67014889  0.00260294  -0.00156008  1
  Cu  Cu108  1  0.32898244  0.34691705  0.00160299  1
  Cu  Cu109  1  0.83873242  0.83921799  0.75630399  1
  Cu  Cu110  1  0.00487246  0.33723157  0.49334721  1
  Cu  Cu111  1  0.32868310  -0.01239019  0.49508171  1
  Cu  Cu112  1  0.33370812  0.33356585  0.49191888  1
  Cu  Cu113  1  0.66295358  0.67101672  -0.00119305  1
  Cu  Cu114  1  0.16474788  0.15958469  0.74426207  1
  Se  Se115  1  0.07623053  0.07639166  0.06839148  1
  Se  Se116  1  0.08619003  0.08523375  0.55116047  1
  Se  Se117  1  0.08204047  0.41450207  0.05219513  1
  Se  Se118  1  0.08936199  0.42258010  0.54509578  1
  Se  Se119  1  0.07938644  0.75294575  0.05858780  1
  Se  Se120  1  0.07942444  0.75196928  0.54890357  1
  Se  Se121  1  0.40707120  0.08098205  0.06380337  1
  Se  Se122  1  0.41302771  0.07435922  0.54616555  1
  Se  Se123  1  0.40315023  0.41921368  0.06847983  1
  Se  Se124  1  0.40903585  0.41090804  0.55999220  1
  Se  Se125  1  0.42617297  0.74460883  0.07394917  1
  Se  Se126  1  0.41050245  0.75002440  0.55123751  1
  Se  Se127  1  0.75144428  0.08822574  0.05044233  1
  Se  Se128  1  0.75513775  0.07592119  0.55549169  1
  Se  Se129  1  0.74217381  0.41509687  0.05891917  1
  Se  Se130  1  0.74920592  0.42619298  0.54803320  1
  Se  Se131  1  0.75502915  0.75050192  0.04687855  1
  Se  Se132  1  0.74333112  0.74883989  0.55771816  1
  Se  Se133  1  0.25344620  0.25570283  0.05752810  1
  Se  Se134  1  0.25137439  0.24997653  0.54679416  1
  Se  Se135  1  0.24635550  0.58082376  0.05533658  1
  Se  Se136  1  0.24781173  0.58400705  0.55040343  1
  Se  Se137  1  0.24218678  0.91795434  0.05545532  1
  Se  Se138  1  0.24338841  0.91194540  0.55309874  1
  Se  Se139  1  0.58364897  0.25977822  0.06253937  1
  Se  Se140  1  0.57787687  0.23790279  0.54626048  1
  Se  Se141  1  0.58930096  0.59936543  0.06698898  1
  Se  Se142  1  0.58500183  0.58995462  0.56657134  1
  Se  Se143  1  0.58287041  0.92217867  0.05031406  1
  Se  Se144  1  0.58372980  0.91245804  0.55168724  1
  Se  Se145  1  0.91281503  0.24657164  0.05663911  1
  Se  Se146  1  0.92449216  0.25908079  0.55301823  1
  Se  Se147  1  0.91920796  0.58597390  0.06088066  1
  Se  Se148  1  0.91901651  0.58689756  0.54599575  1
  Se  Se149  1  0.91315208  0.91489373  0.05854153  1
  Se  Se150  1  0.91639846  0.92927027  0.56504580  1
  Se  Se151  1  0.08669898  0.24637997  0.44652821  1
  Se  Se152  1  0.07535814  0.25380675  0.93848909  1
  Se  Se153  1  0.08788243  0.58312817  0.43660993  1
  Se  Se154  1  0.08128361  0.58207983  0.94779868  1
  Se  Se155  1  0.07980305  0.91417084  0.44696175  1
  Se  Se156  1  0.08587841  0.91622684  0.95349689  1
  Se  Se157  1  0.41925100  0.24843277  0.44479003  1
  Se  Se158  1  0.40959000  0.26402507  0.94536999  1
  Se  Se159  1  0.40977440  0.58755244  0.43877929  1
  Se  Se160  1  0.40959283  0.59701216  0.94147134  1
  Se  Se161  1  0.41332184  0.90918853  0.43826062  1
  Se  Se162  1  0.41907510  0.91949470  0.95165888  1
  Se  Se163  1  0.76862366  0.23692361  0.45174827  1
  Se  Se164  1  0.74702127  0.24921801  0.94372559  1
  Se  Se165  1  0.74795473  0.59715495  0.45279373  1
  Se  Se166  1  0.73837294  0.58856099  0.93739735  1
  Se  Se167  1  0.74500060  0.91968043  0.43662813  1
  Se  Se168  1  0.75337981  0.91668901  0.94704185  1
  Se  Se169  1  0.24826367  0.07787587  0.44619762  1
  Se  Se170  1  0.25750367  0.07851942  0.94032040  1
  Se  Se171  1  0.24919916  0.41949987  0.44430432  1
  Se  Se172  1  0.24315484  0.42439524  0.94781597  1
  Se  Se173  1  0.24954686  0.75234248  0.43645016  1
  Se  Se174  1  0.23668824  0.76492940  0.94863067  1
  Se  Se175  1  0.58114090  0.07300594  0.44556414  1
  Se  Se176  1  0.59093828  0.08316717  0.93645082  1
  Se  Se177  1  0.59133068  0.40994047  0.44329989  1
  Se  Se178  1  0.57996347  0.41728498  0.94744339  1
  Se  Se179  1  0.57547955  0.74506608  0.44764448  1
  Se  Se180  1  0.58157133  0.75493301  0.94437019  1
  Se  Se181  1  0.91565474  0.08482865  0.44963714  1
  Se  Se182  1  0.91959737  0.08186511  0.94962691  1
  Se  Se183  1  0.92077081  0.42016219  0.44094876  1
  Se  Se184  1  0.92299113  0.40663542  0.93706721  1
  Se  Se185  1  0.92478164  0.74917013  0.43370956  1
  Se  Se186  1  0.91633975  0.74792490  0.94961173  1
  Se  Se187  1  0.24351039  0.24108578  0.31633241  1
  Se  Se188  1  0.24236838  0.24189592  0.80409685  1
  Se  Se189  1  0.25514557  0.58733700  0.29672931  1
  Se  Se190  1  0.24270750  0.58502943  0.80594691  1
  Se  Se191  1  0.24663744  0.91201981  0.30543950  1
  Se  Se192  1  0.24647245  0.90630535  0.81174357  1
  Se  Se193  1  0.58818205  0.24165416  0.30999281  1
  Se  Se194  1  0.59150991  0.25440084  0.79672997  1
  Se  Se195  1  0.58466194  0.57135566  0.31696771  1
  Se  Se196  1  0.57905555  0.57829772  0.80911313  1
  Se  Se197  1  0.57417013  0.90677438  0.30158049  1
  Se  Se198  1  0.58082891  0.91658041  0.80281665  1
  Se  Se199  1  0.92226068  0.25094874  0.30742337  1
  Se  Se200  1  0.91457811  0.24257019  0.80896204  1
  Se  Se201  1  0.91998629  0.58270786  0.29996310  1
  Se  Se202  1  0.90565212  0.56926641  0.80211344  1
  Se  Se203  1  0.91648929  0.92037383  0.29998623  1
  Se  Se204  1  0.92380314  0.91526132  0.81238644  1
  Se  Se205  1  0.07875771  0.07688007  0.30987404  1
  Se  Se206  1  0.08672337  0.07714511  0.80037914  1
  Se  Se207  1  0.08717395  0.41551551  0.30016076  1
  Se  Se208  1  0.08348302  0.41634509  0.80334995  1
  Se  Se209  1  0.07948265  0.74642261  0.29963315  1
  Se  Se210  1  0.08745474  0.75220799  0.81001153  1
  Se  Se211  1  0.41439579  0.07987754  0.30311848  1
  Se  Se212  1  0.43304522  0.09599478  0.80538523  1
  Se  Se213  1  0.42455777  0.42278220  0.31018574  1
  Se  Se214  1  0.42583513  0.42501525  0.81380868  1
  Se  Se215  1  0.41696195  0.73964904  0.29075111  1
  Se  Se216  1  0.40949815  0.75314307  0.80427149  1
  Se  Se217  1  0.75410595  0.09396925  0.31502420  1
  Se  Se218  1  0.74912917  0.06916928  0.80429839  1
  Se  Se219  1  0.75662313  0.41483734  0.31110401  1
  Se  Se220  1  0.75259850  0.41710894  0.79663261  1
  Se  Se221  1  0.75775184  0.75694254  0.31386191  1
  Se  Se222  1  0.75715749  0.75383983  0.81159511  1
  Se  Se223  1  0.24870568  0.08133612  0.20615579  1
  Se  Se224  1  0.25296073  0.08630663  0.68674868  1
  Se  Se225  1  0.24884646  0.42175868  0.18923947  1
  Se  Se226  1  0.24260840  0.42228467  0.69000224  1
  Se  Se227  1  0.24528261  0.74975042  0.19337091  1
  Se  Se228  1  0.25004122  0.74568309  0.69301823  1
  Se  Se229  1  0.57733358  0.08926897  0.18889634  1
  Se  Se230  1  0.59184189  0.08134007  0.68704336  1
  Se  Se231  1  0.60384367  0.39953467  0.20769419  1
  Se  Se232  1  0.58090622  0.41420915  0.69465455  1
  Se  Se233  1  0.59634047  0.75561548  0.19286849  1
  Se  Se234  1  0.57110404  0.76086665  0.68693964  1
  Se  Se235  1  0.91204418  0.08473498  0.19874567  1
  Se  Se236  1  0.92889452  0.08096593  0.69931837  1
  Se  Se237  1  0.92262666  0.41047726  0.19528582  1
  Se  Se238  1  0.90690862  0.42461878  0.68417934  1
  Se  Se239  1  0.91513850  0.74682727  0.19816264  1
  Se  Se240  1  0.90933134  0.75884669  0.69012083  1
  Se  Se241  1  0.08567476  0.24876539  0.20055716  1
  Se  Se242  1  0.09275454  0.24155426  0.68216829  1
  Se  Se243  1  0.08242598  0.58530597  0.19508753  1
  Se  Se244  1  0.08491751  0.57774428  0.68394560  1
  Se  Se245  1  0.07830496  0.91694614  0.19976675  1
  Se  Se246  1  0.08597027  0.91495475  0.69697592  1
  Se  Se247  1  0.42436300  0.24487099  0.19292338  1
  Se  Se248  1  0.42331281  0.24464479  0.68681865  1
  Se  Se249  1  0.45236351  0.55763809  0.19308506  1
  Se  Se250  1  0.41003030  0.58535876  0.70182915  1
  Se  Se251  1  0.40205251  0.92049111  0.19523076  1
  Se  Se252  1  0.42011223  0.91721009  0.68694653  1
  Se  Se253  1  0.74966468  0.25157651  0.19874853  1
  Se  Se254  1  0.76031930  0.24244665  0.68659230  1
  Se  Se255  1  0.76186350  0.56932526  0.18959351  1
  Se  Se256  1  0.75664940  0.58236290  0.69113681  1
  Se  Se257  1  0.75324388  0.91261123  0.18933499  1
  Se  Se258  1  0.74764501  0.91611634  0.70541520  1
