# generated using pymatgen
data_In86Cu29Se144
_symmetry_space_group_name_H-M   'P 1'
_cell_length_a   17.57839403
_cell_length_b   17.57567854
_cell_length_c   23.43478867
_cell_angle_alpha   90.00807040
_cell_angle_beta   89.98754144
_cell_angle_gamma   89.98987007
_symmetry_Int_Tables_number   1
_chemical_formula_structural   In86Cu29Se144
_chemical_formula_sum   'In86 Cu29 Se144'
_cell_volume   7240.22922267
_cell_formula_units_Z   1
loop_
 _symmetry_equiv_pos_site_id
 _symmetry_equiv_pos_as_xyz
  1  'x, y, z'
loop_
 _atom_site_type_symbol
 _atom_site_label
 _atom_site_symmetry_multiplicity
 _atom_site_fract_x
 _atom_site_fract_y
 _atom_site_fract_z
 _atom_site_occupancy
  In  In0  1  -0.00030843  0.16547242  0.12681180  1
  In  In1  1  0.01205218  0.18774194  0.60241174  1
  In  In2  1  -0.00577471  0.49675868  0.13307823  1
  In  In3  1  -0.01216267  0.48711337  0.62509524  1
  In  In4  1  0.01847232  0.85403304  0.10887541  1
  In  In5  1  -0.00395226  0.84521139  0.62035136  1
  In  In6  1  0.31968948  0.15427515  0.11481181  1
  In  In7  1  0.33739483  0.17146750  0.62202698  1
  In  In8  1  0.34412876  0.50431099  0.12557998  1
  In  In9  1  0.33141075  0.49127847  0.63304935  1
  In  In10  1  0.33039727  0.83413361  0.12723283  1
  In  In11  1  0.32676640  0.83061095  0.62884033  1
  In  In12  1  0.65777758  0.15755397  0.12049582  1
  In  In13  1  0.66185191  0.16165095  0.62258045  1
  In  In14  1  0.66073723  0.50808514  0.12126156  1
  In  In15  1  0.66941293  0.50405392  0.62180537  1
  In  In16  1  0.67817027  0.84924918  0.11710560  1
  In  In17  1  0.67899113  0.83656861  0.62637754  1
  In  In18  1  0.17942095  0.00747901  0.36161326  1
  In  In19  1  0.16223799  0.00322787  0.88591374  1
  In  In20  1  0.14416556  0.32931594  0.37673797  1
  In  In21  1  0.15973537  0.31981196  0.85646336  1
  In  In22  1  0.17722112  0.66639316  0.36923096  1
  In  In23  1  0.17386363  0.66268213  0.87814391  1
  In  In24  1  0.50361638  0.00373501  0.36508674  1
  In  In25  1  0.50706901  -0.00722048  0.88275934  1
  In  In26  1  0.50529422  0.33063141  0.38700671  1
  In  In27  1  0.48990537  0.34308784  0.88204606  1
  In  In28  1  0.49110748  0.66073890  0.37694561  1
  In  In29  1  0.48940017  0.67113389  0.88113652  1
  In  In30  1  0.83090970  -0.00061591  0.37017076  1
  In  In31  1  0.83062359  0.00579456  0.88024561  1
  In  In32  1  0.86531328  0.30321677  0.40660831  1
  In  In33  1  0.83222837  0.32024602  0.87089805  1
  In  In34  1  0.83825528  0.66618883  0.38600383  1
  In  In35  1  0.84302905  0.67543491  0.87929199  1
  In  In36  1  0.00516614  0.16307888  0.37518074  1
  In  In37  1  0.00268515  0.16757316  0.87730403  1
  In  In38  1  0.00142104  0.48702221  0.38006680  1
  In  In39  1  0.01196816  0.49334520  0.86636786  1
  In  In40  1  -0.01009745  0.83112239  0.37151735  1
  In  In41  1  -0.00299383  0.82978070  0.89642389  1
  In  In42  1  0.34004355  0.16213250  0.38028159  1
  In  In43  1  0.32476715  0.17779760  0.88155429  1
  In  In44  1  0.33890197  0.51017571  0.37996802  1
  In  In45  1  0.32963351  0.50799994  0.86481608  1
  In  In46  1  0.32974394  0.83132373  0.36076887  1
  In  In47  1  0.33929873  0.82712184  0.88348078  1
  In  In48  1  0.67003668  0.15955379  0.37642908  1
  In  In49  1  0.67853957  0.15768153  0.87804343  1
  In  In50  1  0.67315765  0.49360760  0.38754438  1
  In  In51  1  0.66069507  0.48603290  0.87386436  1
  In  In52  1  0.66976709  0.84673839  0.36784710  1
  In  In53  1  0.66018388  0.83886119  0.88170219  1
  In  In54  1  0.16516533  -0.00114552  0.13083743  1
  In  In55  1  0.15496533  0.00684025  0.62280112  1
  In  In56  1  0.16255347  0.31834951  0.12276887  1
  In  In57  1  0.16956856  0.32668319  0.63815484  1
  In  In58  1  0.17299609  0.70870105  0.12122909  1
  In  In59  1  0.17855517  0.66513408  0.63233693  1
  In  In60  1  0.49838036  -0.00015620  0.12345877  1
  In  In61  1  0.50003177  0.01867378  0.62593198  1
  In  In62  1  0.49964343  0.33484664  0.11529035  1
  In  In63  1  0.48957190  0.32661277  0.62366536  1
  In  In64  1  0.48694213  0.66364079  0.11926312  1
  In  In65  1  0.49274743  0.65670787  0.62314130  1
  In  In66  1  0.83318727  0.00546048  0.12845806  1
  In  In67  1  0.82812184  0.00043340  0.61979046  1
  In  In68  1  0.85200759  0.32903557  0.12855133  1
  In  In69  1  0.84861956  0.34318963  0.61518705  1
  In  In70  1  0.82731422  0.66636114  0.12109300  1
  In  In71  1  0.83272575  0.66558818  0.61816522  1
  In  In72  1  0.66466287  0.67142504  0.24338052  1
  In  In73  1  0.00218908  0.66117037  0.75149665  1
  In  In74  1  0.00664221  0.67280821  0.24415973  1
  In  In75  1  0.67326947  0.32950872  0.25844389  1
  In  In76  1  0.50249578  0.83702337  0.49304790  1
  In  In77  1  -0.00307592  0.00651284  0.75479837  1
  In  In78  1  0.33139795  0.33032087  0.24864478  1
  In  In79  1  0.67044760  0.32686901  0.74942259  1
  In  In80  1  0.16588178  0.83497824  0.48750473  1
  In  In81  1  0.33378106  0.00649674  0.75016844  1
  In  In82  1  0.66646737  0.66604235  0.74118042  1
  In  In83  1  0.82571657  0.49658235  -0.00295727  1
  In  In84  1  0.17071057  0.49529734  0.50676532  1
  In  In85  1  0.16892079  0.50153376  -0.00797264  1
  Cu  Cu86  1  0.65982052  0.33449851  0.50792517  1
  Cu  Cu87  1  0.67000194  0.66989061  0.50340618  1
  Cu  Cu88  1  0.83957475  0.16206826  0.74919006  1
  Cu  Cu89  1  -0.00076821  0.00632580  0.00561936  1
  Cu  Cu90  1  0.49699405  0.83667547  0.24474738  1
  Cu  Cu91  1  0.33019691  0.66877573  -0.00079078  1
  Cu  Cu92  1  0.65503704  0.66822630  0.00041778  1
  Cu  Cu93  1  0.17216213  0.82919181  0.75657196  1
  Cu  Cu94  1  0.83859487  0.49147774  0.25838629  1
  Cu  Cu95  1  0.49160077  0.15873750  0.24540716  1
  Cu  Cu96  1  0.50205100  0.16875553  0.75141304  1
  Cu  Cu97  1  0.16694781  0.50223156  0.25236683  1
  Cu  Cu98  1  0.00379815  0.32641001  -0.00272090  1
  Cu  Cu99  1  0.32891187  0.00697516  0.49635827  1
  Cu  Cu100  1  0.50231343  0.50012487  0.25144251  1
  Cu  Cu101  1  0.33339483  0.33377637  -0.00215744  1
  Cu  Cu102  1  0.49619346  0.50056199  0.74975298  1
  Cu  Cu103  1  -0.01017706  0.00533916  0.49563436  1
  Cu  Cu104  1  0.00557144  0.66723482  0.50227880  1
  Cu  Cu105  1  0.49942104  0.83438397  0.75945367  1
  Cu  Cu106  1  0.83578052  0.16454185  0.25599510  1
  Cu  Cu107  1  0.83196858  0.83935837  0.74997427  1
  Cu  Cu108  1  0.66595893  0.00142503  0.49237488  1
  Cu  Cu109  1  0.83745174  0.83827529  0.24562887  1
  Cu  Cu110  1  0.33138259  0.33521494  0.50576440  1
  Cu  Cu111  1  0.66637409  0.32762834  -0.00379917  1
  Cu  Cu112  1  0.16019384  0.16698592  0.24780495  1
  Cu  Cu113  1  0.66978607  0.00203296  0.00161280  1
  Cu  Cu114  1  0.33365629  -0.00088939  0.00398558  1
  Se  Se115  1  0.08691337  0.08541091  0.05930691  1
  Se  Se116  1  0.08298001  0.08150324  0.54555354  1
  Se  Se117  1  0.07716996  0.41391547  0.05702058  1
  Se  Se118  1  0.07954026  0.40372282  0.55993607  1
  Se  Se119  1  0.06754672  0.73874671  0.05077345  1
  Se  Se120  1  0.08593248  0.74767136  0.56184408  1
  Se  Se121  1  0.42008101  0.08545049  0.05224109  1
  Se  Se122  1  0.41528011  0.08539072  0.55111768  1
  Se  Se123  1  0.41366042  0.41998521  0.05110518  1
  Se  Se124  1  0.41440260  0.41977542  0.55753771  1
  Se  Se125  1  0.41219792  0.75448042  0.05253769  1
  Se  Se126  1  0.41184873  0.75133733  0.55617546  1
  Se  Se127  1  0.75329640  0.08636386  0.05494380  1
  Se  Se128  1  0.74552385  0.08349021  0.55110858  1
  Se  Se129  1  0.74385380  0.40452608  0.06370499  1
  Se  Se130  1  0.74868901  0.41809240  0.55472484  1
  Se  Se131  1  0.74332824  0.74594681  0.05344452  1
  Se  Se132  1  0.75374879  0.75607810  0.55283350  1
  Se  Se133  1  0.24754875  0.25043750  0.04898211  1
  Se  Se134  1  0.24670015  0.25359898  0.55879510  1
  Se  Se135  1  0.24992651  0.58958024  0.06152986  1
  Se  Se136  1  0.26243110  0.59099386  0.55798429  1
  Se  Se137  1  0.24835568  0.91855690  0.05847813  1
  Se  Se138  1  0.25267498  0.92342857  0.55659705  1
  Se  Se139  1  0.58241698  0.24711987  0.05192716  1
  Se  Se140  1  0.57713242  0.24674581  0.55696532  1
  Se  Se141  1  0.57444422  0.58087970  0.05183358  1
  Se  Se142  1  0.58528988  0.58737393  0.55505652  1
  Se  Se143  1  0.58177756  0.91911367  0.05184510  1
  Se  Se144  1  0.58780793  0.92466201  0.55893881  1
  Se  Se145  1  0.91885037  0.24681723  0.05246177  1
  Se  Se146  1  0.89618914  0.23758885  0.54670993  1
  Se  Se147  1  0.91995352  0.58077019  0.05739177  1
  Se  Se148  1  0.92310368  0.58370663  0.55573797  1
  Se  Se149  1  0.91045450  0.92277307  0.05433380  1
  Se  Se150  1  0.91167879  0.91785343  0.54947391  1
  Se  Se151  1  0.07302958  0.25025981  0.45027497  1
  Se  Se152  1  0.09188324  0.25146263  0.94164328  1
  Se  Se153  1  0.08574359  0.59011289  0.44087918  1
  Se  Se154  1  0.06837508  0.59067692  0.94116176  1
  Se  Se155  1  0.07465696  0.92847707  0.43427474  1
  Se  Se156  1  0.08425203  0.91895356  0.95547512  1
  Se  Se157  1  0.41374177  0.25086496  0.44993018  1
  Se  Se158  1  0.42022364  0.24777515  0.94934359  1
  Se  Se159  1  0.42641793  0.57659181  0.45186826  1
  Se  Se160  1  0.40716010  0.57994354  0.94386920  1
  Se  Se161  1  0.40618776  0.92376956  0.43606596  1
  Se  Se162  1  0.41733976  0.91582126  0.94981792  1
  Se  Se163  1  0.73552788  0.25526908  0.44519169  1
  Se  Se164  1  0.75543078  0.24710767  0.94718991  1
  Se  Se165  1  0.75382035  0.58384825  0.45190275  1
  Se  Se166  1  0.73631051  0.59073142  0.93712211  1
  Se  Se167  1  0.75111793  0.91565953  0.44336852  1
  Se  Se168  1  0.75155663  0.91680550  0.94687626  1
  Se  Se169  1  0.24222192  0.08656122  0.44311983  1
  Se  Se170  1  0.25248312  0.08412064  0.94918310  1
  Se  Se171  1  0.25380459  0.40698620  0.43666523  1
  Se  Se172  1  0.25291168  0.40753814  0.93289522  1
  Se  Se173  1  0.26604222  0.74221080  0.44175253  1
  Se  Se174  1  0.24395206  0.75256369  0.94858397  1
  Se  Se175  1  0.57688334  0.08200344  0.44196798  1
  Se  Se176  1  0.58697606  0.08485000  0.94655088  1
  Se  Se177  1  0.57913045  0.42138978  0.45398617  1
  Se  Se178  1  0.58230507  0.41761815  0.95103981  1
  Se  Se179  1  0.59538498  0.74505147  0.43548850  1
  Se  Se180  1  0.57472206  0.75425410  0.94691240  1
  Se  Se181  1  0.90812092  0.08644783  0.43962007  1
  Se  Se182  1  0.91929525  0.08595399  0.94567611  1
  Se  Se183  1  0.91011759  0.42846821  0.45243816  1
  Se  Se184  1  0.92340394  0.40956890  0.93880408  1
  Se  Se185  1  0.92214838  0.75288243  0.45073849  1
  Se  Se186  1  0.90457442  0.75258096  0.95890069  1
  Se  Se187  1  0.24046941  0.24555329  0.31119782  1
  Se  Se188  1  0.26242873  0.24829013  0.79799978  1
  Se  Se189  1  0.25724937  0.57918311  0.30283906  1
  Se  Se190  1  0.23271585  0.57931028  0.80099230  1
  Se  Se191  1  0.24908121  0.91441087  0.29522268  1
  Se  Se192  1  0.24777346  0.91587615  0.81399212  1
  Se  Se193  1  0.56948662  0.24102359  0.30690788  1
  Se  Se194  1  0.57976258  0.24689663  0.81576418  1
  Se  Se195  1  0.58851593  0.57609595  0.30998243  1
  Se  Se196  1  0.57839074  0.58072418  0.80829833  1
  Se  Se197  1  0.58384483  0.91786900  0.29672407  1
  Se  Se198  1  0.58632151  0.91869684  0.80581173  1
  Se  Se199  1  0.91543162  0.25003429  0.31056663  1
  Se  Se200  1  0.92148428  0.24497113  0.80329820  1
  Se  Se201  1  0.91776803  0.58344298  0.30962694  1
  Se  Se202  1  0.90622292  0.57597777  0.80998522  1
  Se  Se203  1  0.91881584  0.91969198  0.30119396  1
  Se  Se204  1  0.91641873  0.90717457  0.81445629  1
  Se  Se205  1  0.07918242  0.08093998  0.30071902  1
  Se  Se206  1  0.09808459  0.09033935  0.80715586  1
  Se  Se207  1  0.08148390  0.41891678  0.30192346  1
  Se  Se208  1  0.08312338  0.41305769  0.79360210  1
  Se  Se209  1  0.09495680  0.76082036  0.30718288  1
  Se  Se210  1  0.08109604  0.75966198  0.81433217  1
  Se  Se211  1  0.40727120  0.08082510  0.30219786  1
  Se  Se212  1  0.42461269  0.08809091  0.81467955  1
  Se  Se213  1  0.42489587  0.41586157  0.31031030  1
  Se  Se214  1  0.41568299  0.41589735  0.80394884  1
  Se  Se215  1  0.42572769  0.74829899  0.30293930  1
  Se  Se216  1  0.41297651  0.74942153  0.80587367  1
  Se  Se217  1  0.74488404  0.08140732  0.30114247  1
  Se  Se218  1  0.75460098  0.08018396  0.80206776  1
  Se  Se219  1  0.76347489  0.41285237  0.32065436  1
  Se  Se220  1  0.76022997  0.42288460  0.80542519  1
  Se  Se221  1  0.76228821  0.75129560  0.30620336  1
  Se  Se222  1  0.75261276  0.75441077  0.80755717  1
  Se  Se223  1  0.24951047  0.08683857  0.19722799  1
  Se  Se224  1  0.24074493  0.09075421  0.68983497  1
  Se  Se225  1  0.24286133  0.42114595  0.18730735  1
  Se  Se226  1  0.24799951  0.41594834  0.70246122  1
  Se  Se227  1  0.26675714  0.73916906  0.19958197  1
  Se  Se228  1  0.25638224  0.74797862  0.70381054  1
  Se  Se229  1  0.58273874  0.07999302  0.19569247  1
  Se  Se230  1  0.58642601  0.08442031  0.70076675  1
  Se  Se231  1  0.58174451  0.41796276  0.19316112  1
  Se  Se232  1  0.57937709  0.42113533  0.69159870  1
  Se  Se233  1  0.57758644  0.75937588  0.18162113  1
  Se  Se234  1  0.57249753  0.76029062  0.68793807  1
  Se  Se235  1  0.91868624  0.08387815  0.19821649  1
  Se  Se236  1  0.91931290  0.08927742  0.68288302  1
  Se  Se237  1  0.92280036  0.41020454  0.20479378  1
  Se  Se238  1  0.91782580  0.40534952  0.69989430  1
  Se  Se239  1  0.91248108  0.75685202  0.18379956  1
  Se  Se240  1  0.91294918  0.75815543  0.69149814  1
  Se  Se241  1  0.07733375  0.25386957  0.19810189  1
  Se  Se242  1  0.07216239  0.24217071  0.69287513  1
  Se  Se243  1  0.09744612  0.58283029  0.18450043  1
  Se  Se244  1  0.08677267  0.57345143  0.68750024  1
  Se  Se245  1  0.08371757  0.90962247  0.19567554  1
  Se  Se246  1  0.09072419  0.90841438  0.69652289  1
  Se  Se247  1  0.41874741  0.24360178  0.18444990  1
  Se  Se248  1  0.41491626  0.24758163  0.69883600  1
  Se  Se249  1  0.42006036  0.58446487  0.19959568  1
  Se  Se250  1  0.41235059  0.58521815  0.69793261  1
  Se  Se251  1  0.41336267  0.92178276  0.19395248  1
  Se  Se252  1  0.42545951  0.91328270  0.69123898  1
  Se  Se253  1  0.75660298  0.24265781  0.19112947  1
  Se  Se254  1  0.75992719  0.24208952  0.68712118  1
  Se  Se255  1  0.75978755  0.56919775  0.19579765  1
  Se  Se256  1  0.76532194  0.57371189  0.69385350  1
  Se  Se257  1  0.74854323  0.92120204  0.19753146  1
  Se  Se258  1  0.75056485  0.92376891  0.69748493  1
