# generated using pymatgen
data_In86Cu29Se144
_symmetry_space_group_name_H-M   'P 1'
_cell_length_a   17.58552440
_cell_length_b   17.58683382
_cell_length_c   23.44907325
_cell_angle_alpha   89.97522542
_cell_angle_beta   90.01045696
_cell_angle_gamma   90.00420612
_symmetry_Int_Tables_number   1
_chemical_formula_structural   In86Cu29Se144
_chemical_formula_sum   'In86 Cu29 Se144'
_cell_volume   7252.18071612
_cell_formula_units_Z   1
loop_
 _symmetry_equiv_pos_site_id
 _symmetry_equiv_pos_as_xyz
  1  'x, y, z'
loop_
 _atom_site_type_symbol
 _atom_site_label
 _atom_site_symmetry_multiplicity
 _atom_site_fract_x
 _atom_site_fract_y
 _atom_site_fract_z
 _atom_site_occupancy
  In  In0  1  -0.00504748  0.15452064  0.12448924  1
  In  In1  1  -0.01406562  0.16003427  0.62446575  1
  In  In2  1  0.00804298  0.51112900  0.13213700  1
  In  In3  1  -0.00273110  0.50251858  0.61341866  1
  In  In4  1  0.00553384  0.83201019  0.13230522  1
  In  In5  1  -0.00011801  0.84152904  0.62265172  1
  In  In6  1  0.32024611  0.15154710  0.10999789  1
  In  In7  1  0.34663252  0.16386232  0.62597565  1
  In  In8  1  0.33014066  0.49818286  0.12746197  1
  In  In9  1  0.33521870  0.50025715  0.62023277  1
  In  In10  1  0.34691888  0.84752905  0.11578110  1
  In  In11  1  0.32239044  0.83423630  0.62566679  1
  In  In12  1  0.65317476  0.15319525  0.10994275  1
  In  In13  1  0.66357635  0.15827638  0.61773751  1
  In  In14  1  0.67692487  0.50502397  0.12654678  1
  In  In15  1  0.67028198  0.50967328  0.61412413  1
  In  In16  1  0.65942222  0.84124602  0.13555536  1
  In  In17  1  0.67075303  0.83573526  0.63235179  1
  In  In18  1  0.14852863  -0.01173150  0.35902884  1
  In  In19  1  0.16262385  0.00482989  0.88159055  1
  In  In20  1  0.17869168  0.33360544  0.38072665  1
  In  In21  1  0.17201889  0.31755128  0.87707618  1
  In  In22  1  0.15485061  0.67555710  0.38399212  1
  In  In23  1  0.17939293  0.66475454  0.87500084  1
  In  In24  1  0.50954925  0.00502692  0.37125740  1
  In  In25  1  0.51371504  -0.01106416  0.87798591  1
  In  In26  1  0.50160416  0.31837099  0.38822190  1
  In  In27  1  0.49585711  0.33614204  0.87235604  1
  In  In28  1  0.50378547  0.65739179  0.37918883  1
  In  In29  1  0.50767864  0.68417458  0.85681449  1
  In  In30  1  0.83326362  -0.00530004  0.37682717  1
  In  In31  1  0.83882415  -0.00266116  0.86740268  1
  In  In32  1  0.83126597  0.33072816  0.38475583  1
  In  In33  1  0.82214834  0.31455627  0.87284414  1
  In  In34  1  0.83155097  0.67491301  0.37445867  1
  In  In35  1  0.81895129  0.68248435  0.87069263  1
  In  In36  1  -0.00389528  0.13659149  0.36824239  1
  In  In37  1  0.00669040  0.15262077  0.88229427  1
  In  In38  1  -0.01291669  0.51110656  0.38580133  1
  In  In39  1  0.00119151  0.50447293  0.87448210  1
  In  In40  1  -0.00233189  0.83628966  0.37284257  1
  In  In41  1  -0.00512128  0.85654731  0.87447500  1
  In  In42  1  0.34203877  0.16300407  0.37550645  1
  In  In43  1  0.33148563  0.17098235  0.87676072  1
  In  In44  1  0.33947145  0.48406135  0.39580314  1
  In  In45  1  0.34456660  0.50669739  0.86277252  1
  In  In46  1  0.31993985  0.83430868  0.37792008  1
  In  In47  1  0.33877054  0.82850519  0.88024332  1
  In  In48  1  0.67931114  0.14302173  0.39229522  1
  In  In49  1  0.68326110  0.15436111  0.89002015  1
  In  In50  1  0.65914262  0.50709947  0.38267036  1
  In  In51  1  0.65639249  0.50759617  0.86952781  1
  In  In52  1  0.68883765  0.85390963  0.35963143  1
  In  In53  1  0.66080555  0.83201354  0.85666707  1
  In  In54  1  0.17227873  0.00255717  0.12505717  1
  In  In55  1  0.16423381  -0.01605556  0.62378204  1
  In  In56  1  0.17694649  0.33022296  0.12528123  1
  In  In57  1  0.17096811  0.34257057  0.62074512  1
  In  In58  1  0.15561912  0.67311293  0.13100452  1
  In  In59  1  0.16894122  0.67368266  0.62032157  1
  In  In60  1  0.49848776  0.00224200  0.12532495  1
  In  In61  1  0.50560917  0.00261874  0.62648092  1
  In  In62  1  0.51011098  0.31027736  0.12260765  1
  In  In63  1  0.48531927  0.32783694  0.61589292  1
  In  In64  1  0.49443682  0.68122147  0.12379919  1
  In  In65  1  0.51399353  0.66246238  0.62820356  1
  In  In66  1  0.81978217  0.00105316  0.14061321  1
  In  In67  1  0.83185996  -0.00016704  0.62622155  1
  In  In68  1  0.83645909  0.32445961  0.12366400  1
  In  In69  1  0.82530736  0.32893473  0.61386048  1
  In  In70  1  0.82188245  0.68982082  0.14718460  1
  In  In71  1  0.82568165  0.66774242  0.61900128  1
  In  In72  1  0.50032308  0.49640200  -0.00854457  1
  In  In73  1  0.50955048  0.83254621  0.50566204  1
  In  In74  1  0.16539327  0.16225474  0.49036947  1
  In  In75  1  0.33544935  0.32742311  0.25856903  1
  In  In76  1  0.33925039  -0.00482822  0.74731461  1
  In  In77  1  0.00541130  0.33334988  0.74342865  1
  In  In78  1  -0.00085475  0.33406336  0.24640082  1
  In  In79  1  0.84190086  0.49595266  0.00689556  1
  In  In80  1  0.66280121  0.33301947  0.25314765  1
  In  In81  1  0.17035057  0.49781197  0.00851118  1
  In  In82  1  0.00107056  0.67211747  0.74123335  1
  In  In83  1  0.66195253  0.33461033  0.74879248  1
  In  In84  1  0.83322121  0.83613574  0.00287360  1
  In  In85  1  0.32866649  0.66849422  0.26062579  1
  Cu  Cu86  1  0.66084171  0.66943584  -0.00652418  1
  Cu  Cu87  1  0.66540788  -0.00878315  0.00357455  1
  Cu  Cu88  1  -0.00710877  -0.00436988  0.49542470  1
  Cu  Cu89  1  0.16743923  0.16307112  0.75561593  1
  Cu  Cu90  1  0.50501335  0.50207316  0.25477114  1
  Cu  Cu91  1  0.50225355  0.15854608  0.24986455  1
  Cu  Cu92  1  0.49698789  0.50148813  0.74262491  1
  Cu  Cu93  1  0.50262041  0.16929934  0.74844327  1
  Cu  Cu94  1  0.33640388  0.33205691  -0.00325390  1
  Cu  Cu95  1  0.16941752  0.83883605  0.25002072  1
  Cu  Cu96  1  -0.00060026  0.67397055  0.00828526  1
  Cu  Cu97  1  0.16087638  0.50635711  0.26372674  1
  Cu  Cu98  1  0.33538899  0.00321935  -0.00213674  1
  Cu  Cu99  1  0.33583151  0.68049288  -0.00384892  1
  Cu  Cu100  1  0.00108428  0.00258343  0.00317613  1
  Cu  Cu101  1  0.83017543  0.50731331  0.74241127  1
  Cu  Cu102  1  0.66166299  0.33504538  0.50273025  1
  Cu  Cu103  1  -0.00467442  0.32069065  0.00028919  1
  Cu  Cu104  1  0.33250425  -0.00355560  0.50310763  1
  Cu  Cu105  1  -0.00331060  0.67330695  0.50051359  1
  Cu  Cu106  1  0.00044770  0.33103117  0.49845496  1
  Cu  Cu107  1  0.83277428  0.51200991  0.25757596  1
  Cu  Cu108  1  0.17828462  0.49525723  0.74653206  1
  Cu  Cu109  1  0.83507373  0.15605498  0.74982415  1
  Cu  Cu110  1  0.16239502  0.83377568  0.74931543  1
  Cu  Cu111  1  0.50343209  0.83686783  0.24828382  1
  Cu  Cu112  1  0.82608128  0.16355833  0.25311136  1
  Cu  Cu113  1  0.32897272  0.66456840  0.50004961  1
  Cu  Cu114  1  0.67094155  0.67436009  0.49698627  1
  Se  Se115  1  0.08704783  0.08507623  0.05494766  1
  Se  Se116  1  0.07717905  0.07496067  0.55606474  1
  Se  Se117  1  0.07007171  0.40655197  0.06140546  1
  Se  Se118  1  0.08246454  0.41485782  0.55114393  1
  Se  Se119  1  0.08691780  0.75679721  0.05615532  1
  Se  Se120  1  0.08068082  0.75482514  0.55550392  1
  Se  Se121  1  0.42397288  0.08490948  0.04976959  1
  Se  Se122  1  0.41792451  0.07696044  0.55502400  1
  Se  Se123  1  0.41369604  0.40987395  0.06086286  1
  Se  Se124  1  0.41959999  0.42378277  0.54949475  1
  Se  Se125  1  0.42492385  0.75908037  0.04714693  1
  Se  Se126  1  0.41097200  0.74463311  0.56047974  1
  Se  Se127  1  0.75386401  0.07116245  0.05631432  1
  Se  Se128  1  0.77324183  0.10318587  0.55886265  1
  Se  Se129  1  0.74143972  0.40653046  0.05758719  1
  Se  Se130  1  0.75045971  0.42091938  0.54840568  1
  Se  Se131  1  0.74085449  0.74400677  0.05932416  1
  Se  Se132  1  0.74625647  0.75896196  0.55463522  1
  Se  Se133  1  0.24763464  0.25288801  0.04862282  1
  Se  Se134  1  0.25191221  0.24401606  0.55906479  1
  Se  Se135  1  0.26143080  0.59837019  0.06032745  1
  Se  Se136  1  0.24470338  0.58235867  0.55438296  1
  Se  Se137  1  0.25127256  0.92005524  0.05171585  1
  Se  Se138  1  0.24590741  0.91092268  0.54970401  1
  Se  Se139  1  0.58813258  0.25034845  0.04371715  1
  Se  Se140  1  0.58044683  0.24841022  0.55500171  1
  Se  Se141  1  0.58581268  0.58807898  0.05694569  1
  Se  Se142  1  0.58329256  0.59009395  0.54634117  1
  Se  Se143  1  0.58080050  0.91212139  0.05873213  1
  Se  Se144  1  0.59881969  0.92992687  0.55605296  1
  Se  Se145  1  0.91315939  0.23956274  0.05503260  1
  Se  Se146  1  0.91803743  0.24802756  0.55218046  1
  Se  Se147  1  0.91674679  0.59750317  0.06804851  1
  Se  Se148  1  0.91158714  0.58755998  0.55075235  1
  Se  Se149  1  0.92059883  0.92419615  0.06486674  1
  Se  Se150  1  0.91142852  0.91638043  0.55353058  1
  Se  Se151  1  0.06968596  0.24987598  0.43227164  1
  Se  Se152  1  0.08505874  0.24514837  0.94697602  1
  Se  Se153  1  0.08115320  0.58464658  0.45187822  1
  Se  Se154  1  0.07751198  0.58915762  0.94857273  1
  Se  Se155  1  0.08379139  0.91830552  0.44321490  1
  Se  Se156  1  0.08240916  0.91713285  0.94993109  1
  Se  Se157  1  0.39259140  0.26094922  0.44744996  1
  Se  Se158  1  0.42067929  0.25107678  0.94344673  1
  Se  Se159  1  0.41882670  0.58482360  0.45115919  1
  Se  Se160  1  0.41495966  0.59612913  0.93750258  1
  Se  Se161  1  0.41542946  0.91729630  0.44194239  1
  Se  Se162  1  0.41772031  0.91867476  0.94460538  1
  Se  Se163  1  0.74539265  0.24992733  0.45067790  1
  Se  Se164  1  0.75632271  0.24820717  0.95497259  1
  Se  Se165  1  0.75247126  0.58714478  0.44454855  1
  Se  Se166  1  0.74830598  0.58534425  0.94304340  1
  Se  Se167  1  0.74917079  0.91601080  0.44697155  1
  Se  Se168  1  0.74202284  0.91560196  0.93729351  1
  Se  Se169  1  0.25291791  0.06654444  0.43514807  1
  Se  Se170  1  0.25057959  0.08738103  0.94571885  1
  Se  Se171  1  0.24133325  0.41465751  0.45790721  1
  Se  Se172  1  0.25867502  0.41828293  0.93834022  1
  Se  Se173  1  0.24651626  0.75212581  0.45071875  1
  Se  Se174  1  0.24202282  0.75613955  0.94729450  1
  Se  Se175  1  0.56292679  0.09540225  0.44815904  1
  Se  Se176  1  0.58444570  0.07775792  0.94943013  1
  Se  Se177  1  0.57935640  0.41671601  0.44740066  1
  Se  Se178  1  0.59877085  0.40642913  0.93985762  1
  Se  Se179  1  0.59348411  0.75380022  0.43401114  1
  Se  Se180  1  0.58625678  0.75335458  0.93507272  1
  Se  Se181  1  0.91045256  0.08526845  0.44796423  1
  Se  Se182  1  0.91194792  0.07543271  0.94499288  1
  Se  Se183  1  0.91294636  0.41686705  0.45059431  1
  Se  Se184  1  0.92384414  0.40552758  0.93755440  1
  Se  Se185  1  0.91589378  0.75556388  0.44416463  1
  Se  Se186  1  0.92210010  0.74486609  0.94008512  1
  Se  Se187  1  0.23853966  0.23594071  0.30793444  1
  Se  Se188  1  0.25366557  0.24995785  0.80085382  1
  Se  Se189  1  0.24951840  0.57438210  0.32456547  1
  Se  Se190  1  0.25231553  0.58618429  0.79962117  1
  Se  Se191  1  0.25662089  0.91921570  0.30153880  1
  Se  Se192  1  0.24365435  0.91430477  0.80996986  1
  Se  Se193  1  0.57972018  0.23819148  0.31265570  1
  Se  Se194  1  0.58534921  0.24017708  0.81379563  1
  Se  Se195  1  0.58792202  0.58647012  0.30465899  1
  Se  Se196  1  0.58245015  0.58445040  0.79541053  1
  Se  Se197  1  0.58670463  0.92365097  0.29867113  1
  Se  Se198  1  0.57957474  0.92287566  0.79458241  1
  Se  Se199  1  0.90838542  0.24605420  0.30919925  1
  Se  Se200  1  0.91804919  0.24155924  0.80559753  1
  Se  Se201  1  0.92131069  0.59089024  0.30756264  1
  Se  Se202  1  0.90992785  0.58250142  0.80681602  1
  Se  Se203  1  0.93833749  0.94241466  0.30977660  1
  Se  Se204  1  0.89997875  0.89869035  0.79935326  1
  Se  Se205  1  0.09046483  0.09118890  0.29334209  1
  Se  Se206  1  0.08271253  0.07885445  0.80502171  1
  Se  Se207  1  0.08164795  0.41880427  0.31702198  1
  Se  Se208  1  0.09384328  0.42240580  0.80916886  1
  Se  Se209  1  0.08837645  0.75466528  0.30534003  1
  Se  Se210  1  0.08493796  0.75380467  0.81292527  1
  Se  Se211  1  0.41622882  0.07869636  0.30332708  1
  Se  Se212  1  0.42320851  0.08727902  0.80956440  1
  Se  Se213  1  0.42776969  0.42024367  0.31388952  1
  Se  Se214  1  0.41988307  0.41398291  0.79765193  1
  Se  Se215  1  0.42579900  0.75984351  0.31345691  1
  Se  Se216  1  0.39540158  0.74217304  0.80227730  1
  Se  Se217  1  0.74578804  0.07818492  0.30731029  1
  Se  Se218  1  0.74673028  0.08253979  0.80632640  1
  Se  Se219  1  0.75551590  0.42276796  0.31168598  1
  Se  Se220  1  0.75916542  0.42387488  0.80793688  1
  Se  Se221  1  0.74561213  0.74464560  0.30099857  1
  Se  Se222  1  0.74042874  0.74202157  0.79203509  1
  Se  Se223  1  0.25782693  0.08415552  0.19295441  1
  Se  Se224  1  0.24372931  0.08469533  0.68908275  1
  Se  Se225  1  0.24015859  0.42653443  0.20205625  1
  Se  Se226  1  0.25846018  0.41181649  0.69274238  1
  Se  Se227  1  0.25321243  0.75835224  0.19043643  1
  Se  Se228  1  0.24507948  0.75002677  0.69695497  1
  Se  Se229  1  0.58909584  0.08125494  0.19337237  1
  Se  Se230  1  0.58588691  0.08698793  0.69582756  1
  Se  Se231  1  0.57332802  0.42115778  0.18762635  1
  Se  Se232  1  0.57906230  0.42195392  0.68263163  1
  Se  Se233  1  0.58069453  0.74512721  0.19812012  1
  Se  Se234  1  0.58261820  0.75332255  0.69611206  1
  Se  Se235  1  0.91363556  0.08381847  0.20028125  1
  Se  Se236  1  0.92242119  0.07467936  0.69969699  1
  Se  Se237  1  0.90404822  0.42959006  0.19162605  1
  Se  Se238  1  0.90886294  0.42193523  0.68722890  1
  Se  Se239  1  0.93584592  0.74068568  0.20159343  1
  Se  Se240  1  0.90539744  0.75943387  0.68866793  1
  Se  Se241  1  0.08988224  0.24452835  0.18927865  1
  Se  Se242  1  0.09320308  0.23877314  0.68637745  1
  Se  Se243  1  0.08468998  0.58954571  0.20589055  1
  Se  Se244  1  0.08951654  0.57150182  0.68959880  1
  Se  Se245  1  0.08750414  0.92225516  0.19533370  1
  Se  Se246  1  0.07876590  0.91829258  0.69906556  1
  Se  Se247  1  0.41893974  0.23917447  0.19240012  1
  Se  Se248  1  0.41751273  0.25173142  0.69762825  1
  Se  Se249  1  0.41954618  0.57883004  0.19560333  1
  Se  Se250  1  0.41526823  0.58627590  0.68964838  1
  Se  Se251  1  0.41705408  0.91892332  0.19641674  1
  Se  Se252  1  0.42720506  0.90292219  0.68957909  1
  Se  Se253  1  0.74822543  0.24240364  0.19091814  1
  Se  Se254  1  0.75816418  0.24535983  0.69354771  1
  Se  Se255  1  0.74375710  0.58691258  0.20200217  1
  Se  Se256  1  0.74441764  0.58696716  0.69108531  1
  Se  Se257  1  0.76937435  0.88824940  0.19913027  1
  Se  Se258  1  0.73588050  0.93693767  0.69632539  1
