# generated using pymatgen
data_In86Cu29Se144
_symmetry_space_group_name_H-M   'P 1'
_cell_length_a   17.57011366
_cell_length_b   17.57447609
_cell_length_c   23.42915898
_cell_angle_alpha   89.99843659
_cell_angle_beta   89.99364146
_cell_angle_gamma   89.99388968
_symmetry_Int_Tables_number   1
_chemical_formula_structural   In86Cu29Se144
_chemical_formula_sum   'In86 Cu29 Se144'
_cell_volume   7234.58547815
_cell_formula_units_Z   1
loop_
 _symmetry_equiv_pos_site_id
 _symmetry_equiv_pos_as_xyz
  1  'x, y, z'
loop_
 _atom_site_type_symbol
 _atom_site_label
 _atom_site_symmetry_multiplicity
 _atom_site_fract_x
 _atom_site_fract_y
 _atom_site_fract_z
 _atom_site_occupancy
  In  In0  1  0.00477573  0.19845506  0.13028384  1
  In  In1  1  -0.00310024  0.16860866  0.62045510  1
  In  In2  1  -0.00496102  0.50162940  0.12168163  1
  In  In3  1  -0.02791780  0.51788298  0.65008448  1
  In  In4  1  -0.00852292  0.81449657  0.12321454  1
  In  In5  1  -0.01109985  0.82633144  0.61925142  1
  In  In6  1  0.33978197  0.15696259  0.12251398  1
  In  In7  1  0.32690502  0.16012823  0.62452779  1
  In  In8  1  0.33521517  0.49889141  0.10738767  1
  In  In9  1  0.34147542  0.50753346  0.63308112  1
  In  In10  1  0.33068261  0.84394707  0.12189388  1
  In  In11  1  0.34556497  0.82687264  0.63267506  1
  In  In12  1  0.67615882  0.18029756  0.12082714  1
  In  In13  1  0.67688834  0.17679980  0.61178601  1
  In  In14  1  0.66866758  0.49551347  0.12477573  1
  In  In15  1  0.69145270  0.48040083  0.64883827  1
  In  In16  1  0.65731043  0.81038828  0.12924216  1
  In  In17  1  0.66037792  0.82562788  0.61627944  1
  In  In18  1  0.17706144  0.00713920  0.37786958  1
  In  In19  1  0.16094782  -0.01569770  0.87456796  1
  In  In20  1  0.15274708  0.33092460  0.37005592  1
  In  In21  1  0.16858001  0.34970925  0.88120255  1
  In  In22  1  0.15611285  0.67629253  0.37247340  1
  In  In23  1  0.16729031  0.66319380  0.87434081  1
  In  In24  1  0.51596963  -0.00562546  0.39359571  1
  In  In25  1  0.49923833  0.01503326  0.87255804  1
  In  In26  1  0.50606472  0.32311912  0.37277955  1
  In  In27  1  0.50302457  0.32431181  0.88546319  1
  In  In28  1  0.51634526  0.66667741  0.37231765  1
  In  In29  1  0.49092185  0.66121007  0.86998295  1
  In  In30  1  0.81779757  0.00401321  0.39503696  1
  In  In31  1  0.84362707  0.00777734  0.87479004  1
  In  In32  1  0.83376889  0.33930036  0.37380733  1
  In  In33  1  0.82784947  0.33931821  0.86807966  1
  In  In34  1  0.83414987  0.66296720  0.38178123  1
  In  In35  1  0.81355991  0.63541766  0.84844108  1
  In  In36  1  -0.00629580  0.17548083  0.37945230  1
  In  In37  1  -0.01992160  0.17029990  0.87512551  1
  In  In38  1  -0.00780815  0.49211766  0.36928395  1
  In  In39  1  -0.00195908  0.50144584  0.86976303  1
  In  In40  1  -0.01479854  0.81764554  0.37166564  1
  In  In41  1  0.01402987  0.82278346  0.87754971  1
  In  In42  1  0.34377066  0.16175158  0.38382399  1
  In  In43  1  0.34837049  0.17165719  0.87274486  1
  In  In44  1  0.34047348  0.49409560  0.37241875  1
  In  In45  1  0.32379076  0.50512672  0.88923367  1
  In  In46  1  0.33497371  0.84616056  0.37901174  1
  In  In47  1  0.32395780  0.82424791  0.86601017  1
  In  In48  1  0.66183308  0.17446876  0.38006351  1
  In  In49  1  0.66075782  0.17857269  0.87760116  1
  In  In50  1  0.67756208  0.51585581  0.36002290  1
  In  In51  1  0.66854111  0.49246482  0.87226463  1
  In  In52  1  0.67261835  0.82325013  0.38706487  1
  In  In53  1  0.67561656  0.82355035  0.87457785  1
  In  In54  1  0.17652607  0.00154234  0.12295741  1
  In  In55  1  0.16402440  0.01522322  0.62614387  1
  In  In56  1  0.14913637  0.33456467  0.12647486  1
  In  In57  1  0.15565097  0.32023628  0.62373856  1
  In  In58  1  0.15320538  0.65490701  0.11131955  1
  In  In59  1  0.16393801  0.67072964  0.62996872  1
  In  In60  1  0.49286033  -0.00179074  0.12475210  1
  In  In61  1  0.50014634  -0.00712619  0.61617085  1
  In  In62  1  0.51916429  0.35265324  0.10789003  1
  In  In63  1  0.51360623  0.34206993  0.62508952  1
  In  In64  1  0.51568004  0.65499976  0.13248115  1
  In  In65  1  0.50389328  0.66784395  0.62917208  1
  In  In66  1  0.82075855  0.00937866  0.13017507  1
  In  In67  1  0.82340963  -0.00166174  0.60624266  1
  In  In68  1  0.83230181  0.33876396  0.12499363  1
  In  In69  1  0.83656147  0.33487927  0.62672598  1
  In  In70  1  0.84156774  0.65472615  0.13027819  1
  In  In71  1  0.83453115  0.65876016  0.62830474  1
  In  In72  1  0.16871046  0.17070125  0.00230608  1
  In  In73  1  0.33359210  0.33805101  0.75867506  1
  In  In74  1  0.50815826  0.50281688  0.50037329  1
  In  In75  1  0.49882056  0.83323230  0.00472612  1
  In  In76  1  0.66604405  -0.00266237  0.26342607  1
  In  In77  1  -0.00092154  -0.00294068  0.74217778  1
  In  In78  1  -0.00211280  -0.00132522  0.26100381  1
  In  In79  1  0.84302098  0.83235561  -0.00582240  1
  In  In80  1  0.33276234  0.66466388  0.24504313  1
  In  In81  1  0.33601906  0.00086698  0.24778501  1
  In  In82  1  0.15752746  0.49607824  0.49782912  1
  In  In83  1  0.33619017  0.32958562  0.24528762  1
  In  In84  1  0.66196588  -0.00103224  0.73754917  1
  In  In85  1  0.16076084  0.83805602  0.50592759  1
  Cu  Cu86  1  0.50070418  0.17256033  0.75040618  1
  Cu  Cu87  1  0.82236129  0.82253491  0.25573230  1
  Cu  Cu88  1  0.33348760  -0.00044477  -0.00236036  1
  Cu  Cu89  1  0.33330452  0.32502743  0.50100333  1
  Cu  Cu90  1  0.33692065  0.67169740  0.50681242  1
  Cu  Cu91  1  0.00374502  0.00268188  0.49832254  1
  Cu  Cu92  1  0.33692861  0.00446499  0.50282621  1
  Cu  Cu93  1  0.17511398  0.82933223  0.74999295  1
  Cu  Cu94  1  -0.00264572  0.66130812  -0.00758926  1
  Cu  Cu95  1  -0.00093379  0.00468233  0.00017946  1
  Cu  Cu96  1  0.67268025  0.65559588  -0.00145875  1
  Cu  Cu97  1  0.16135414  0.50634578  0.24275497  1
  Cu  Cu98  1  0.67433857  0.33513707  -0.00230438  1
  Cu  Cu99  1  0.33034547  0.67207633  -0.00502175  1
  Cu  Cu100  1  0.16248132  0.16493878  0.74767626  1
  Cu  Cu101  1  0.82310834  0.17066300  0.74626239  1
  Cu  Cu102  1  0.83779667  0.82422651  0.74679477  1
  Cu  Cu103  1  0.67211873  0.65747920  0.50437702  1
  Cu  Cu104  1  0.83208438  0.49997581  0.24756606  1
  Cu  Cu105  1  -0.00599710  0.33471658  0.50031101  1
  Cu  Cu106  1  0.50708462  0.16490204  0.25115760  1
  Cu  Cu107  1  0.84180774  0.17734850  0.25117620  1
  Cu  Cu108  1  0.17041183  0.49968582  0.75717239  1
  Cu  Cu109  1  -0.00865114  0.34201345  -0.00109938  1
  Cu  Cu110  1  0.50381565  0.83784851  0.74450388  1
  Cu  Cu111  1  0.50221695  0.50699427  0.75472266  1
  Cu  Cu112  1  0.67393379  0.33919101  0.49989680  1
  Cu  Cu113  1  0.66732835  0.01223912  0.00066977  1
  Cu  Cu114  1  0.15531946  0.82754636  0.24329121  1
  Se  Se115  1  0.07446391  0.08484419  0.06479130  1
  Se  Se116  1  0.08417420  0.08783051  0.55186415  1
  Se  Se117  1  0.08018319  0.41963192  0.05219762  1
  Se  Se118  1  0.07054790  0.41420586  0.56370426  1
  Se  Se119  1  0.07611675  0.74996396  0.04682012  1
  Se  Se120  1  0.07347157  0.73462993  0.55255425  1
  Se  Se121  1  0.42078185  0.07938468  0.04957022  1
  Se  Se122  1  0.41933712  0.08901781  0.55583025  1
  Se  Se123  1  0.41497968  0.41043302  0.04415066  1
  Se  Se124  1  0.40821435  0.41392200  0.55794785  1
  Se  Se125  1  0.41126367  0.74006639  0.06421415  1
  Se  Se126  1  0.42454263  0.75148533  0.55731936  1
  Se  Se127  1  0.75552248  0.09066376  0.05308493  1
  Se  Se128  1  0.75175342  0.09158534  0.54241049  1
  Se  Se129  1  0.75450287  0.42063393  0.05239421  1
  Se  Se130  1  0.75211542  0.42059590  0.55878441  1
  Se  Se131  1  0.74985748  0.74343174  0.05592763  1
  Se  Se132  1  0.75435101  0.74342825  0.55689771  1
  Se  Se133  1  0.25480723  0.25724905  0.06574765  1
  Se  Se134  1  0.24739962  0.24758550  0.55619648  1
  Se  Se135  1  0.24675697  0.58364629  0.04503085  1
  Se  Se136  1  0.25435570  0.58559550  0.55839190  1
  Se  Se137  1  0.24709217  0.91712172  0.04866717  1
  Se  Se138  1  0.25697785  0.92291077  0.56427429  1
  Se  Se139  1  0.58812132  0.24836726  0.04799285  1
  Se  Se140  1  0.58279882  0.25976317  0.55024416  1
  Se  Se141  1  0.58505697  0.57915613  0.05374441  1
  Se  Se142  1  0.59792992  0.57691599  0.56979693  1
  Se  Se143  1  0.59758390  0.92245939  0.06142007  1
  Se  Se144  1  0.59997528  0.92798340  0.55124058  1
  Se  Se145  1  0.91521098  0.25391362  0.05430486  1
  Se  Se146  1  0.91092235  0.24917972  0.55318162  1
  Se  Se147  1  0.91281403  0.58323172  0.05002083  1
  Se  Se148  1  0.91472350  0.57364052  0.55941046  1
  Se  Se149  1  0.91858680  0.92597142  0.06408023  1
  Se  Se150  1  0.92069599  0.91663913  0.54890997  1
  Se  Se151  1  0.08315082  0.25362954  0.44853669  1
  Se  Se152  1  0.07255079  0.25589521  0.94122260  1
  Se  Se153  1  0.07210820  0.58999531  0.43877246  1
  Se  Se154  1  0.08479405  0.57827343  0.94209140  1
  Se  Se155  1  0.07708485  0.92058359  0.43435294  1
  Se  Se156  1  0.07805705  0.91550322  0.95029262  1
  Se  Se157  1  0.42447713  0.25110422  0.44820788  1
  Se  Se158  1  0.41038964  0.24976406  0.95122763  1
  Se  Se159  1  0.41049079  0.59075345  0.44213589  1
  Se  Se160  1  0.41992152  0.58748658  0.94927728  1
  Se  Se161  1  0.41785478  0.91498177  0.45331650  1
  Se  Se162  1  0.41390722  0.91848040  0.93684954  1
  Se  Se163  1  0.75383516  0.25445784  0.44375498  1
  Se  Se164  1  0.75593953  0.25129004  0.94204316  1
  Se  Se165  1  0.74910996  0.57362629  0.44632158  1
  Se  Se166  1  0.75474124  0.57800364  0.94013469  1
  Se  Se167  1  0.73351451  0.91957745  0.45754185  1
  Se  Se168  1  0.74440819  0.92735503  0.94109193  1
  Se  Se169  1  0.25127624  0.08707901  0.45145951  1
  Se  Se170  1  0.25145520  0.07826991  0.93663878  1
  Se  Se171  1  0.25616709  0.40736453  0.43986839  1
  Se  Se172  1  0.25880208  0.40629670  0.95504773  1
  Se  Se173  1  0.25392329  0.74618404  0.44431570  1
  Se  Se174  1  0.24539134  0.75457898  0.94353514  1
  Se  Se175  1  0.58219536  0.09655750  0.45186173  1
  Se  Se176  1  0.58158916  0.08895014  0.94513828  1
  Se  Se177  1  0.59362639  0.41593686  0.43617979  1
  Se  Se178  1  0.58645286  0.41675733  0.94613795  1
  Se  Se179  1  0.58382835  0.73989817  0.45338679  1
  Se  Se180  1  0.58997814  0.74259896  0.94471519  1
  Se  Se181  1  0.91778835  0.08680394  0.44813904  1
  Se  Se182  1  0.91200228  0.08761334  0.95192882  1
  Se  Se183  1  0.91411541  0.42082629  0.44668320  1
  Se  Se184  1  0.91247043  0.42042634  0.93847163  1
  Se  Se185  1  0.90633372  0.75624522  0.45000830  1
  Se  Se186  1  0.91311680  0.73429244  0.92929800  1
  Se  Se187  1  0.25419494  0.24357376  0.31384489  1
  Se  Se188  1  0.23873174  0.24346518  0.81289638  1
  Se  Se189  1  0.24070680  0.57644801  0.31026953  1
  Se  Se190  1  0.25733109  0.58156379  0.80814412  1
  Se  Se191  1  0.23737939  0.90697936  0.30274768  1
  Se  Se192  1  0.25096984  0.92141107  0.80082206  1
  Se  Se193  1  0.59173649  0.25063174  0.29993682  1
  Se  Se194  1  0.58098586  0.25652552  0.80470049  1
  Se  Se195  1  0.57243532  0.57723859  0.29804110  1
  Se  Se196  1  0.58819932  0.58783285  0.80762250  1
  Se  Se197  1  0.57555489  0.90277881  0.31610190  1
  Se  Se198  1  0.58205439  0.91307641  0.81124735  1
  Se  Se199  1  0.92414376  0.25998481  0.30497970  1
  Se  Se200  1  0.91037484  0.25000110  0.79952212  1
  Se  Se201  1  0.91159015  0.58341777  0.30560455  1
  Se  Se202  1  0.93550407  0.59492659  0.79719990  1
  Se  Se203  1  0.89396661  0.91507743  0.31377759  1
  Se  Se204  1  0.91414323  0.90658456  0.80823918  1
  Se  Se205  1  0.09154041  0.09276476  0.31143246  1
  Se  Se206  1  0.08101825  0.08642903  0.81096456  1
  Se  Se207  1  0.08392421  0.42032489  0.29943124  1
  Se  Se208  1  0.08507504  0.41346546  0.80453192  1
  Se  Se209  1  0.07279958  0.74752681  0.29846547  1
  Se  Se210  1  0.08844415  0.74709063  0.80139302  1
  Se  Se211  1  0.43227710  0.08063831  0.31190281  1
  Se  Se212  1  0.41576808  0.08545356  0.79769074  1
  Se  Se213  1  0.42980879  0.41988026  0.30367188  1
  Se  Se214  1  0.42330314  0.42653320  0.81778541  1
  Se  Se215  1  0.41315221  0.75260852  0.31322178  1
  Se  Se216  1  0.42176133  0.75532889  0.80150317  1
  Se  Se217  1  0.76279984  0.09368776  0.31104291  1
  Se  Se218  1  0.74927132  0.08416528  0.80613193  1
  Se  Se219  1  0.74992133  0.41436224  0.30046352  1
  Se  Se220  1  0.75469664  0.42555929  0.79685137  1
  Se  Se221  1  0.74310211  0.74035362  0.31197535  1
  Se  Se222  1  0.74525568  0.74840626  0.79688410  1
  Se  Se223  1  0.24106044  0.09566365  0.19687519  1
  Se  Se224  1  0.25067654  0.08202838  0.70072559  1
  Se  Se225  1  0.24730785  0.42645080  0.18754112  1
  Se  Se226  1  0.24347790  0.41919482  0.69010619  1
  Se  Se227  1  0.23997781  0.75250784  0.18346607  1
  Se  Se228  1  0.25690312  0.74425888  0.69653200  1
  Se  Se229  1  0.58560495  0.08233123  0.19011757  1
  Se  Se230  1  0.57678820  0.09756316  0.68344630  1
  Se  Se231  1  0.58703251  0.41047381  0.19292724  1
  Se  Se232  1  0.58093189  0.41555518  0.70544325  1
  Se  Se233  1  0.57387959  0.74871277  0.20475734  1
  Se  Se234  1  0.58870197  0.75240693  0.69610047  1
  Se  Se235  1  0.91705580  0.09055736  0.19259692  1
  Se  Se236  1  0.90025593  0.08325813  0.68729276  1
  Se  Se237  1  0.91841554  0.41831560  0.19429455  1
  Se  Se238  1  0.92586034  0.39842249  0.70183399  1
  Se  Se239  1  0.91150844  0.74759324  0.20066357  1
  Se  Se240  1  0.92429730  0.74362431  0.69567470  1
  Se  Se241  1  0.09308159  0.25195712  0.20714005  1
  Se  Se242  1  0.07464595  0.24464082  0.69748549  1
  Se  Se243  1  0.07633470  0.58902706  0.19146060  1
  Se  Se244  1  0.09073321  0.58061055  0.69836651  1
  Se  Se245  1  0.08034339  0.91567096  0.18624694  1
  Se  Se246  1  0.09266627  0.90439041  0.68562230  1
  Se  Se247  1  0.42937120  0.24103205  0.18720766  1
  Se  Se248  1  0.41833517  0.25346158  0.68979952  1
  Se  Se249  1  0.41712381  0.56678814  0.18934786  1
  Se  Se250  1  0.41890497  0.59049985  0.70197259  1
  Se  Se251  1  0.42821191  0.90187659  0.19731878  1
  Se  Se252  1  0.42086143  0.92455966  0.69516578  1
  Se  Se253  1  0.75314990  0.25368324  0.19690179  1
  Se  Se254  1  0.74187906  0.25448074  0.69226290  1
  Se  Se255  1  0.74629123  0.58363753  0.19547542  1
  Se  Se256  1  0.74953763  0.59102271  0.70467039  1
  Se  Se257  1  0.74873909  0.90558895  0.19358774  1
  Se  Se258  1  0.76100640  0.90879139  0.68686478  1
