# generated using pymatgen
data_In86Cu29Se144
_symmetry_space_group_name_H-M   'P 1'
_cell_length_a   17.58888001
_cell_length_b   17.58611179
_cell_length_c   23.45428130
_cell_angle_alpha   90.00574899
_cell_angle_beta   89.98233225
_cell_angle_gamma   90.00265130
_symmetry_Int_Tables_number   1
_chemical_formula_structural   In86Cu29Se144
_chemical_formula_sum   'In86 Cu29 Se144'
_cell_volume   7254.87814208
_cell_formula_units_Z   1
loop_
 _symmetry_equiv_pos_site_id
 _symmetry_equiv_pos_as_xyz
  1  'x, y, z'
loop_
 _atom_site_type_symbol
 _atom_site_label
 _atom_site_symmetry_multiplicity
 _atom_site_fract_x
 _atom_site_fract_y
 _atom_site_fract_z
 _atom_site_occupancy
  In  In0  1  0.00650433  0.16725115  0.11933725  1
  In  In1  1  0.00087856  0.16130829  0.61572827  1
  In  In2  1  0.01233008  0.51522994  0.11616090  1
  In  In3  1  -0.00864867  0.51484148  0.63049137  1
  In  In4  1  -0.00455421  0.82483390  0.12173744  1
  In  In5  1  -0.01492189  0.82324105  0.61780167  1
  In  In6  1  0.33777363  0.16794885  0.12128637  1
  In  In7  1  0.33152478  0.17610075  0.62676571  1
  In  In8  1  0.33071582  0.50270204  0.12406482  1
  In  In9  1  0.32946448  0.50375028  0.63454853  1
  In  In10  1  0.31697007  0.84534739  0.14026353  1
  In  In11  1  0.34111812  0.81518545  0.62404717  1
  In  In12  1  0.65483897  0.15772320  0.12035147  1
  In  In13  1  0.66956998  0.15435087  0.62503060  1
  In  In14  1  0.66959764  0.51281714  0.10749271  1
  In  In15  1  0.68503124  0.50593566  0.62125885  1
  In  In16  1  0.67985460  0.82880349  0.12431110  1
  In  In17  1  0.65024376  0.80482700  0.59654551  1
  In  In18  1  0.18551146  -0.00371768  0.37022137  1
  In  In19  1  0.17067907  -0.00027591  0.89437912  1
  In  In20  1  0.16919365  0.32395086  0.37146213  1
  In  In21  1  0.17303999  0.32900499  0.88299152  1
  In  In22  1  0.16613940  0.67417163  0.36145465  1
  In  In23  1  0.16510624  0.66269426  0.87745897  1
  In  In24  1  0.49027220  -0.01346604  0.36515095  1
  In  In25  1  0.50700440  -0.00317379  0.88270095  1
  In  In26  1  0.49025057  0.34142596  0.37187391  1
  In  In27  1  0.49032855  0.34627255  0.88113053  1
  In  In28  1  0.50016239  0.67847454  0.38148623  1
  In  In29  1  0.48484291  0.66872923  0.86679637  1
  In  In30  1  0.83047608  0.00364537  0.37323092  1
  In  In31  1  0.83222628  -0.00412719  0.88476059  1
  In  In32  1  0.83222579  0.33674463  0.38015239  1
  In  In33  1  0.82678452  0.33675577  0.88086778  1
  In  In34  1  0.83732709  0.66227878  0.39425134  1
  In  In35  1  0.83066530  0.66755240  0.87421746  1
  In  In36  1  0.00208770  0.17123927  0.37750868  1
  In  In37  1  0.00237043  0.16123733  0.88504762  1
  In  In38  1  -0.00980196  0.51006806  0.37768319  1
  In  In39  1  -0.01444610  0.51483692  0.88352683  1
  In  In40  1  0.00140128  0.80922470  0.37196898  1
  In  In41  1  0.00873996  0.82504117  0.88053168  1
  In  In42  1  0.32683451  0.15847979  0.36705691  1
  In  In43  1  0.32080598  0.17641586  0.88867527  1
  In  In44  1  0.33671278  0.49952340  0.36332826  1
  In  In45  1  0.33299037  0.50146067  0.87622240  1
  In  In46  1  0.33246132  0.83774218  0.36616490  1
  In  In47  1  0.33610922  0.81766393  0.87766187  1
  In  In48  1  0.67940944  0.16290423  0.37337639  1
  In  In49  1  0.66672073  0.16336260  0.88541656  1
  In  In50  1  0.68009472  0.51833924  0.37837111  1
  In  In51  1  0.64701809  0.52681619  0.89568355  1
  In  In52  1  0.66210897  0.83446644  0.38045437  1
  In  In53  1  0.67143707  0.83542620  0.87478730  1
  In  In54  1  0.18403601  0.00458802  0.11132477  1
  In  In55  1  0.15668747  -0.00209184  0.61859371  1
  In  In56  1  0.17551179  0.34575059  0.11822784  1
  In  In57  1  0.17630531  0.33380105  0.62721189  1
  In  In58  1  0.17006301  0.66914617  0.12491878  1
  In  In59  1  0.16957921  0.66455461  0.63146809  1
  In  In60  1  0.48758164  0.01010231  0.13082963  1
  In  In61  1  0.51465239  -0.01041801  0.62375733  1
  In  In62  1  0.49210103  0.32988611  0.11869755  1
  In  In63  1  0.48850839  0.33011283  0.63347288  1
  In  In64  1  0.49671003  0.65125192  0.11661110  1
  In  In65  1  0.49023555  0.67939882  0.63431892  1
  In  In66  1  0.82404701  -0.00967597  0.12352845  1
  In  In67  1  0.82139493  -0.00698137  0.61500506  1
  In  In68  1  0.84076220  0.33809599  0.11943187  1
  In  In69  1  0.83967941  0.33433583  0.61795103  1
  In  In70  1  0.83587997  0.67782507  0.11403962  1
  In  In71  1  0.83312766  0.66727957  0.62629276  1
  In  In72  1  0.49303874  0.83305380  0.00190891  1
  In  In73  1  0.00088655  -0.00763886  0.74629526  1
  In  In74  1  0.66204164  0.67130034  0.25347691  1
  In  In75  1  0.16331637  0.83475459  0.49427009  1
  In  In76  1  0.50104901  0.16376992  0.50557461  1
  In  In77  1  0.00104026  0.34217854  0.25438135  1
  In  In78  1  0.00799741  0.33803241  0.75413764  1
  In  In79  1  0.00932911  -0.00460908  0.24448983  1
  In  In80  1  0.65794041  0.33085718  0.24896833  1
  In  In81  1  0.16142714  0.50327872  0.50597997  1
  In  In82  1  0.66336189  0.34305158  0.75339932  1
  In  In83  1  0.33391495  -0.00606280  0.75434095  1
  In  In84  1  0.66586803  -0.00712132  0.75485596  1
  In  In85  1  0.50433632  0.50183584  0.49704122  1
  Cu  Cu86  1  0.83227872  0.82527065  0.74823031  1
  Cu  Cu87  1  0.67212476  0.33033768  0.00134221  1
  Cu  Cu88  1  0.49638041  0.49557187  0.24369659  1
  Cu  Cu89  1  0.83661528  0.17045922  0.74850974  1
  Cu  Cu90  1  -0.00222525  0.66724061  -0.00135353  1
  Cu  Cu91  1  0.17538165  0.16977715  0.24414497  1
  Cu  Cu92  1  0.49684126  0.16000842  0.24374330  1
  Cu  Cu93  1  0.66580364  -0.00005649  0.00388054  1
  Cu  Cu94  1  -0.00488674  -0.00486831  0.00709487  1
  Cu  Cu95  1  0.16965936  0.50563712  0.24180014  1
  Cu  Cu96  1  0.50039095  0.83187330  0.25163567  1
  Cu  Cu97  1  0.66906899  0.00098504  0.49517797  1
  Cu  Cu98  1  0.48952162  0.17206823  0.75821823  1
  Cu  Cu99  1  0.00242090  0.32836848  -0.00007313  1
  Cu  Cu100  1  0.33773347  -0.00455477  0.49237325  1
  Cu  Cu101  1  0.33740762  0.33774680  0.00198809  1
  Cu  Cu102  1  0.83557937  0.51276367  0.25147311  1
  Cu  Cu103  1  0.67130729  0.33154492  0.49962203  1
  Cu  Cu104  1  0.82588502  0.16176714  0.24619146  1
  Cu  Cu105  1  0.17135773  0.50310905  0.75543730  1
  Cu  Cu106  1  0.82933608  0.51150321  0.75585483  1
  Cu  Cu107  1  0.83714764  0.82791609  0.24711359  1
  Cu  Cu108  1  0.00330142  0.00968409  0.49238341  1
  Cu  Cu109  1  0.32674938  0.66182815  -0.00025808  1
  Cu  Cu110  1  0.32620201  0.33131165  0.50110595  1
  Cu  Cu111  1  -0.00090198  0.33101977  0.49783896  1
  Cu  Cu112  1  0.16796924  0.82247990  0.75488649  1
  Cu  Cu113  1  0.49947644  0.50509105  0.75726643  1
  Cu  Cu114  1  0.17083557  0.16523440  0.75829484  1
  Se  Se115  1  0.08439928  0.08118175  0.05171685  1
  Se  Se116  1  0.09072093  0.08729166  0.54660223  1
  Se  Se117  1  0.08217607  0.41712993  0.05171995  1
  Se  Se118  1  0.07212299  0.40907161  0.56516521  1
  Se  Se119  1  0.08331129  0.74664195  0.05388809  1
  Se  Se120  1  0.08149538  0.73981001  0.55672849  1
  Se  Se121  1  0.42313091  0.08783477  0.05272684  1
  Se  Se122  1  0.40903374  0.07160323  0.56368874  1
  Se  Se123  1  0.41894608  0.42490170  0.05398910  1
  Se  Se124  1  0.40891640  0.41200089  0.55832018  1
  Se  Se125  1  0.40306934  0.74423446  0.06191976  1
  Se  Se126  1  0.42491343  0.74962812  0.55006235  1
  Se  Se127  1  0.75128248  0.08354910  0.05625145  1
  Se  Se128  1  0.74971484  0.08782622  0.54783406  1
  Se  Se129  1  0.75465401  0.41716109  0.05176742  1
  Se  Se130  1  0.75495123  0.41600255  0.55116582  1
  Se  Se131  1  0.73693265  0.74194422  0.04837359  1
  Se  Se132  1  0.78272631  0.77549585  0.55878032  1
  Se  Se133  1  0.25294592  0.25359081  0.05439444  1
  Se  Se134  1  0.24495262  0.24616093  0.55360694  1
  Se  Se135  1  0.24330868  0.57850297  0.05367229  1
  Se  Se136  1  0.26122027  0.59121137  0.55746870  1
  Se  Se137  1  0.25468565  0.90290801  0.05144095  1
  Se  Se138  1  0.25800861  0.91870429  0.55833644  1
  Se  Se139  1  0.58351159  0.25113338  0.05393662  1
  Se  Se140  1  0.59038321  0.26023273  0.56403505  1
  Se  Se141  1  0.58235723  0.58873062  0.04091578  1
  Se  Se142  1  0.58268250  0.58671008  0.56578028  1
  Se  Se143  1  0.58457304  0.92033060  0.06468902  1
  Se  Se144  1  0.58150238  0.91617999  0.54339828  1
  Se  Se145  1  0.91768429  0.24707025  0.05397192  1
  Se  Se146  1  0.91570049  0.24531030  0.55080191  1
  Se  Se147  1  0.91336822  0.58226650  0.05124946  1
  Se  Se148  1  0.90902718  0.57869619  0.55587331  1
  Se  Se149  1  0.90998566  0.90988225  0.05623175  1
  Se  Se150  1  0.92832126  0.93024692  0.55499161  1
  Se  Se151  1  0.08681166  0.25217379  0.44567912  1
  Se  Se152  1  0.08812233  0.24494211  0.94909103  1
  Se  Se153  1  0.08254047  0.59506542  0.44029758  1
  Se  Se154  1  0.08392718  0.58156804  0.94921473  1
  Se  Se155  1  0.07648994  0.92519012  0.43062609  1
  Se  Se156  1  0.07923697  0.91367946  0.95194871  1
  Se  Se157  1  0.41137962  0.25270955  0.44314944  1
  Se  Se158  1  0.42015442  0.25230212  0.94880864  1
  Se  Se159  1  0.40674155  0.58553599  0.44023424  1
  Se  Se160  1  0.41620800  0.58676258  0.94408384  1
  Se  Se161  1  0.41788488  0.90872550  0.44203777  1
  Se  Se162  1  0.40270289  0.92396310  0.94253175  1
  Se  Se163  1  0.75213710  0.24736362  0.44542179  1
  Se  Se164  1  0.75514432  0.24468764  0.94921536  1
  Se  Se165  1  0.74645453  0.58592298  0.45987690  1
  Se  Se166  1  0.77062509  0.56877537  0.94364928  1
  Se  Se167  1  0.75309590  0.91803684  0.44288722  1
  Se  Se168  1  0.74613111  0.91366563  0.95033303  1
  Se  Se169  1  0.25316331  0.08253069  0.44519172  1
  Se  Se170  1  0.25038829  0.08685458  0.95738825  1
  Se  Se171  1  0.25270856  0.41618111  0.44052395  1
  Se  Se172  1  0.25238950  0.41940023  0.94779365  1
  Se  Se173  1  0.25476429  0.74475209  0.43759374  1
  Se  Se174  1  0.24550870  0.74855746  0.94745276  1
  Se  Se175  1  0.58247083  0.07844605  0.43663596  1
  Se  Se176  1  0.58085438  0.08323893  0.95267659  1
  Se  Se177  1  0.59531271  0.40884474  0.43622226  1
  Se  Se178  1  0.58643001  0.41286363  0.94883463  1
  Se  Se179  1  0.60504966  0.73022916  0.44602682  1
  Se  Se180  1  0.57966149  0.74828712  0.93684236  1
  Se  Se181  1  0.91398079  0.08861082  0.44080553  1
  Se  Se182  1  0.91506814  0.08038236  0.95056770  1
  Se  Se183  1  0.91885658  0.41776752  0.44554057  1
  Se  Se184  1  0.92009878  0.41107335  0.94555101  1
  Se  Se185  1  0.91572045  0.76114851  0.45187396  1
  Se  Se186  1  0.91397278  0.75087316  0.94476214  1
  Se  Se187  1  0.25620662  0.25387890  0.29961433  1
  Se  Se188  1  0.25212444  0.25170230  0.80788725  1
  Se  Se189  1  0.25222062  0.58547876  0.29989127  1
  Se  Se190  1  0.25423454  0.58823198  0.80683213  1
  Se  Se191  1  0.24791208  0.91288831  0.29519492  1
  Se  Se192  1  0.23680428  0.91165473  0.81412609  1
  Se  Se193  1  0.57115898  0.23794902  0.31155971  1
  Se  Se194  1  0.57999635  0.24637995  0.81344811  1
  Se  Se195  1  0.57342022  0.57260335  0.30984368  1
  Se  Se196  1  0.58453644  0.58849865  0.80729554  1
  Se  Se197  1  0.58872423  0.91198835  0.30332952  1
  Se  Se198  1  0.56798615  0.90433350  0.80701870  1
  Se  Se199  1  0.90574338  0.24447011  0.30495340  1
  Se  Se200  1  0.91548170  0.24497827  0.81119360  1
  Se  Se201  1  0.91129882  0.59558979  0.30978684  1
  Se  Se202  1  0.92097229  0.59163915  0.80270992  1
  Se  Se203  1  0.91629615  0.91144477  0.30687532  1
  Se  Se204  1  0.90876013  0.90936580  0.80925651  1
  Se  Se205  1  0.09214751  0.09332945  0.30552920  1
  Se  Se206  1  0.08900556  0.08027646  0.81155018  1
  Se  Se207  1  0.09349520  0.43244110  0.31208319  1
  Se  Se208  1  0.08994251  0.42754839  0.81796630  1
  Se  Se209  1  0.08954535  0.76138605  0.29374309  1
  Se  Se210  1  0.07989907  0.74275113  0.80586468  1
  Se  Se211  1  0.41334255  0.07856504  0.30053620  1
  Se  Se212  1  0.41697766  0.08666142  0.81769264  1
  Se  Se213  1  0.41243730  0.41009389  0.29453108  1
  Se  Se214  1  0.41423320  0.41810100  0.80377668  1
  Se  Se215  1  0.41966527  0.74675037  0.30487130  1
  Se  Se216  1  0.41169882  0.75654825  0.79700680  1
  Se  Se217  1  0.74577528  0.07689425  0.29877210  1
  Se  Se218  1  0.75829205  0.08951988  0.80925488  1
  Se  Se219  1  0.75404997  0.42496476  0.30498716  1
  Se  Se220  1  0.74881391  0.43160783  0.81537372  1
  Se  Se221  1  0.75945963  0.75169138  0.31298329  1
  Se  Se222  1  0.74616151  0.74932553  0.80443474  1
  Se  Se223  1  0.25320691  0.08387074  0.18992017  1
  Se  Se224  1  0.24157610  0.08293325  0.69219118  1
  Se  Se225  1  0.25253388  0.41634284  0.19578488  1
  Se  Se226  1  0.24919792  0.41516576  0.70065391  1
  Se  Se227  1  0.26743243  0.72947060  0.19549975  1
  Se  Se228  1  0.25427678  0.74738115  0.69809457  1
  Se  Se229  1  0.58725155  0.07758166  0.19819166  1
  Se  Se230  1  0.57157840  0.09209738  0.69863065  1
  Se  Se231  1  0.58479792  0.42718487  0.18325784  1
  Se  Se232  1  0.57568840  0.42983884  0.68865559  1
  Se  Se233  1  0.57338113  0.75303933  0.18613507  1
  Se  Se234  1  0.59238170  0.75649907  0.68956706  1
  Se  Se235  1  0.91389755  0.08761744  0.18903610  1
  Se  Se236  1  0.90879144  0.08508307  0.68850094  1
  Se  Se237  1  0.91450337  0.43139141  0.19153912  1
  Se  Se238  1  0.90481544  0.42092387  0.69907914  1
  Se  Se239  1  0.91613085  0.74265116  0.19375661  1
  Se  Se240  1  0.92144538  0.74515608  0.69793478  1
  Se  Se241  1  0.08861540  0.25206787  0.19195731  1
  Se  Se242  1  0.08774349  0.23783038  0.69369540  1
  Se  Se243  1  0.08125285  0.58937437  0.19563812  1
  Se  Se244  1  0.08631066  0.58053361  0.69856392  1
  Se  Se245  1  0.09398307  0.91349313  0.17870496  1
  Se  Se246  1  0.09144091  0.89915352  0.68874213  1
  Se  Se247  1  0.41838218  0.25044997  0.19406169  1
  Se  Se248  1  0.40605275  0.25236394  0.70396123  1
  Se  Se249  1  0.41583998  0.58399872  0.19420487  1
  Se  Se250  1  0.41606135  0.58501670  0.69960316  1
  Se  Se251  1  0.41744357  0.91816734  0.20033194  1
  Se  Se252  1  0.42418255  0.91040330  0.69073527  1
  Se  Se253  1  0.75302396  0.24893204  0.18750487  1
  Se  Se254  1  0.75237781  0.24838503  0.69165401  1
  Se  Se255  1  0.75032050  0.58366640  0.18950929  1
  Se  Se256  1  0.74680168  0.59003687  0.69844263  1
  Se  Se257  1  0.74976251  0.91199821  0.19985762  1
  Se  Se258  1  0.75170682  0.90793238  0.69006569  1
