# generated using pymatgen
data_In86Cu29Se144
_symmetry_space_group_name_H-M   'P 1'
_cell_length_a   17.57364011
_cell_length_b   17.57111945
_cell_length_c   23.42743418
_cell_angle_alpha   89.97458584
_cell_angle_beta   90.00981448
_cell_angle_gamma   89.99533781
_symmetry_Int_Tables_number   1
_chemical_formula_structural   In86Cu29Se144
_chemical_formula_sum   'In86 Cu29 Se144'
_cell_volume   7234.12210880
_cell_formula_units_Z   1
loop_
 _symmetry_equiv_pos_site_id
 _symmetry_equiv_pos_as_xyz
  1  'x, y, z'
loop_
 _atom_site_type_symbol
 _atom_site_label
 _atom_site_symmetry_multiplicity
 _atom_site_fract_x
 _atom_site_fract_y
 _atom_site_fract_z
 _atom_site_occupancy
  In  In0  1  -0.00046410  0.16795295  0.11913902  1
  In  In1  1  0.00838777  0.17009756  0.62779269  1
  In  In2  1  0.00568553  0.48888444  0.13866844  1
  In  In3  1  0.00447477  0.49739705  0.62148434  1
  In  In4  1  -0.03958372  0.87117842  0.16766655  1
  In  In5  1  -0.00319276  0.81556200  0.62552476  1
  In  In6  1  0.34186248  0.18672885  0.11734674  1
  In  In7  1  0.34911012  0.16460851  0.62924502  1
  In  In8  1  0.32191438  0.49769405  0.12098727  1
  In  In9  1  0.32832900  0.49962322  0.62528186  1
  In  In10  1  0.33965409  0.83321113  0.12844121  1
  In  In11  1  0.31357727  0.81025232  0.60136276  1
  In  In12  1  0.66437606  0.15659480  0.11750356  1
  In  In13  1  0.65244882  0.16525775  0.62857498  1
  In  In14  1  0.65720251  0.50652739  0.12229576  1
  In  In15  1  0.66662479  0.49868468  0.61427268  1
  In  In16  1  0.69036016  0.84182955  0.12222774  1
  In  In17  1  0.66121592  0.84622072  0.63028515  1
  In  In18  1  0.15803505  -0.00582272  0.37286218  1
  In  In19  1  0.17510712  0.00555188  0.87853256  1
  In  In20  1  0.17394020  0.34022676  0.36856951  1
  In  In21  1  0.16585261  0.33794862  0.87395118  1
  In  In22  1  0.16716972  0.66968097  0.38890913  1
  In  In23  1  0.15878098  0.65631999  0.86716910  1
  In  In24  1  0.51017934  -0.00504534  0.37895709  1
  In  In25  1  0.51310139  0.00146171  0.87456784  1
  In  In26  1  0.48522506  0.34614903  0.38232000  1
  In  In27  1  0.49236331  0.34171490  0.88177298  1
  In  In28  1  0.50249389  0.66315595  0.38751347  1
  In  In29  1  0.48489029  0.66626254  0.86718871  1
  In  In30  1  0.83311668  -0.00478754  0.34745130  1
  In  In31  1  0.81246356  0.01363689  0.89774730  1
  In  In32  1  0.84745016  0.33856073  0.36275178  1
  In  In33  1  0.83903822  0.31331062  0.87520089  1
  In  In34  1  0.83540138  0.65266788  0.36952109  1
  In  In35  1  0.84988127  0.66416609  0.87895828  1
  In  In36  1  -0.00602002  0.16311808  0.35753610  1
  In  In37  1  -0.01379746  0.17882109  0.88302470  1
  In  In38  1  0.00091942  0.50173412  0.37115871  1
  In  In39  1  0.01090033  0.50819248  0.87193680  1
  In  In40  1  0.00440958  0.83439890  0.36717243  1
  In  In41  1  -0.00368115  0.82037572  0.87494810  1
  In  In42  1  0.33460113  0.18669329  0.37246407  1
  In  In43  1  0.32042840  0.18085924  0.88671917  1
  In  In44  1  0.34146070  0.49248271  0.38799823  1
  In  In45  1  0.33187248  0.49659122  0.87083100  1
  In  In46  1  0.34313187  0.81757521  0.39340523  1
  In  In47  1  0.34097335  0.82784784  0.86784648  1
  In  In48  1  0.66826395  0.15731188  0.36879691  1
  In  In49  1  0.67221300  0.15165739  0.89142849  1
  In  In50  1  0.66114906  0.50180736  0.38227232  1
  In  In51  1  0.66382569  0.48253189  0.87911599  1
  In  In52  1  0.66488346  0.83415486  0.37154649  1
  In  In53  1  0.66407589  0.85621029  0.87577547  1
  In  In54  1  0.14727256  0.00228115  0.12590399  1
  In  In55  1  0.17696196  0.00126615  0.62088510  1
  In  In56  1  0.16511882  0.33727160  0.12300595  1
  In  In57  1  0.15780526  0.34495000  0.63231180  1
  In  In58  1  0.16039176  0.65400184  0.11984278  1
  In  In59  1  0.16927505  0.65608818  0.62059848  1
  In  In60  1  0.50422515  0.01620766  0.12318786  1
  In  In61  1  0.50203015  0.00138137  0.62022616  1
  In  In62  1  0.49349765  0.33399286  0.12475376  1
  In  In63  1  0.49662582  0.32514405  0.62386560  1
  In  In64  1  0.50280585  0.66457212  0.12445408  1
  In  In65  1  0.47348167  0.64665606  0.60285219  1
  In  In66  1  0.83185752  0.00906405  0.12346205  1
  In  In67  1  0.82700206  -0.01193541  0.62926568  1
  In  In68  1  0.85377372  0.33057281  0.13233981  1
  In  In69  1  0.82925866  0.34149903  0.62479357  1
  In  In70  1  0.83666330  0.67710017  0.13308502  1
  In  In71  1  0.84870715  0.66387303  0.62649746  1
  In  In72  1  0.66883437  0.32482040  0.75425360  1
  In  In73  1  0.17012925  0.16986477  0.49422005  1
  In  In74  1  0.66905377  0.66693976  0.25696496  1
  In  In75  1  0.66538504  0.67241227  0.74667036  1
  In  In76  1  0.66646103  0.33289475  0.24504632  1
  In  In77  1  0.83547173  0.17092468  0.48767592  1
  In  In78  1  0.82933054  0.82812949  0.49407743  1
  In  In79  1  0.15930181  0.83208130  0.00241083  1
  In  In80  1  0.33614172  0.66161204  0.26224497  1
  In  In81  1  0.32412910  0.00526759  0.25341958  1
  In  In82  1  0.83182891  0.49649195  0.00470502  1
  In  In83  1  0.34042047  -0.00300114  0.75000408  1
  In  In84  1  0.50249274  0.83284192  -0.00104473  1
  In  In85  1  -0.00622380  0.00125739  0.75375052  1
  Cu  Cu86  1  0.16257001  0.17141765  0.24299586  1
  Cu  Cu87  1  0.84639924  0.49909586  0.74802478  1
  Cu  Cu88  1  0.66888787  0.00922508  0.49797028  1
  Cu  Cu89  1  0.33395360  0.33226616  0.50520745  1
  Cu  Cu90  1  0.00074325  -0.00836924  0.49031700  1
  Cu  Cu91  1  0.82952003  0.83515631  0.75319586  1
  Cu  Cu92  1  0.66313091  0.33480750  0.49986089  1
  Cu  Cu93  1  0.50038317  0.17197290  0.24586841  1
  Cu  Cu94  1  0.16192155  0.82483161  0.74121427  1
  Cu  Cu95  1  0.00259439  0.33946706  0.49466628  1
  Cu  Cu96  1  0.66947406  0.67014213  0.49849422  1
  Cu  Cu97  1  0.16546169  0.49396688  0.25035458  1
  Cu  Cu98  1  0.66321063  0.66789084  0.00180865  1
  Cu  Cu99  1  0.16836803  0.50021306  0.74799699  1
  Cu  Cu100  1  -0.00513995  -0.00126184  0.00912750  1
  Cu  Cu101  1  0.00607361  0.33758383  0.00156189  1
  Cu  Cu102  1  0.50150703  0.16566658  0.75318831  1
  Cu  Cu103  1  0.33863761  0.00107601  0.50010691  1
  Cu  Cu104  1  0.16613998  0.17848719  0.75609504  1
  Cu  Cu105  1  0.33190282  0.00599922  0.00330294  1
  Cu  Cu106  1  0.00049234  0.67016654  0.00559925  1
  Cu  Cu107  1  0.17162573  0.82177298  0.25633548  1
  Cu  Cu108  1  0.51438145  0.84188627  0.25259172  1
  Cu  Cu109  1  0.66078363  0.32785850  0.00403356  1
  Cu  Cu110  1  0.49306500  0.82916365  0.74123335  1
  Cu  Cu111  1  0.00470689  0.65561981  0.50182839  1
  Cu  Cu112  1  0.49631514  0.50026533  0.74711100  1
  Cu  Cu113  1  0.32968310  0.34062227  -0.00041083  1
  Cu  Cu114  1  0.32890329  0.65509574  -0.00889431  1
  Se  Se115  1  0.08586331  0.08680331  0.04857656  1
  Se  Se116  1  0.07553425  0.07628494  0.55195660  1
  Se  Se117  1  0.08188252  0.42542979  0.05607607  1
  Se  Se118  1  0.08864637  0.41629500  0.55060605  1
  Se  Se119  1  0.07180432  0.75368230  0.06887357  1
  Se  Se120  1  0.08259358  0.74496128  0.55464873  1
  Se  Se121  1  0.41646390  0.08914945  0.05421031  1
  Se  Se122  1  0.41949540  0.08703980  0.55217212  1
  Se  Se123  1  0.41435306  0.42044467  0.05537307  1
  Se  Se124  1  0.41754390  0.41516482  0.55910251  1
  Se  Se125  1  0.40426619  0.73921319  0.05289082  1
  Se  Se126  1  0.44018888  0.77351944  0.55417864  1
  Se  Se127  1  0.75179478  0.08270084  0.04832663  1
  Se  Se128  1  0.75224894  0.08374022  0.55852510  1
  Se  Se129  1  0.74323711  0.40569019  0.06569607  1
  Se  Se130  1  0.75338126  0.41583850  0.54869487  1
  Se  Se131  1  0.75263779  0.74268314  0.05489452  1
  Se  Se132  1  0.74499008  0.74596947  0.56536363  1
  Se  Se133  1  0.24531891  0.25497419  0.05084606  1
  Se  Se134  1  0.25323355  0.25091722  0.56540312  1
  Se  Se135  1  0.24359011  0.57953418  0.04786964  1
  Se  Se136  1  0.26194630  0.58802359  0.55113134  1
  Se  Se137  1  0.25539348  0.92196096  0.06246355  1
  Se  Se138  1  0.24582313  0.92058546  0.54574124  1
  Se  Se139  1  0.57634844  0.24783995  0.05849072  1
  Se  Se140  1  0.58435368  0.24861080  0.55385938  1
  Se  Se141  1  0.57647736  0.58411876  0.04937425  1
  Se  Se142  1  0.58467505  0.58250500  0.54720861  1
  Se  Se143  1  0.58916732  0.92136155  0.05986546  1
  Se  Se144  1  0.59011807  0.92175911  0.55157852  1
  Se  Se145  1  0.91785728  0.25474381  0.05044277  1
  Se  Se146  1  0.92501886  0.25502306  0.55451125  1
  Se  Se147  1  0.92203557  0.58457133  0.06444991  1
  Se  Se148  1  0.91454161  0.57705781  0.55296995  1
  Se  Se149  1  0.91875890  0.91148285  0.06474243  1
  Se  Se150  1  0.92178765  0.91806908  0.55648358  1
  Se  Se151  1  0.07322010  0.25061303  0.43347388  1
  Se  Se152  1  0.08480183  0.25330162  0.94434343  1
  Se  Se153  1  0.08582188  0.57234630  0.44680672  1
  Se  Se154  1  0.08207077  0.58949138  0.94808702  1
  Se  Se155  1  0.08662811  0.90572861  0.44404243  1
  Se  Se156  1  0.07250257  0.92537371  0.93990381  1
  Se  Se157  1  0.41696817  0.24912005  0.45118592  1
  Se  Se158  1  0.41628321  0.25337636  0.95113310  1
  Se  Se159  1  0.40509098  0.59506835  0.45115215  1
  Se  Se160  1  0.41966247  0.57835133  0.94040428  1
  Se  Se161  1  0.42384806  0.91786688  0.44803088  1
  Se  Se162  1  0.40609394  0.92309866  0.94078418  1
  Se  Se163  1  0.74270632  0.26328597  0.43277351  1
  Se  Se164  1  0.74966813  0.25218304  0.94992215  1
  Se  Se165  1  0.75112854  0.58568164  0.44527925  1
  Se  Se166  1  0.74310270  0.58651644  0.93989748  1
  Se  Se167  1  0.75170300  0.93176696  0.43624305  1
  Se  Se168  1  0.75585110  0.90013836  0.95321788  1
  Se  Se169  1  0.25994345  0.07730310  0.43430074  1
  Se  Se170  1  0.24482771  0.08776617  0.95282861  1
  Se  Se171  1  0.24751778  0.40929998  0.44931527  1
  Se  Se172  1  0.24663168  0.42234585  0.94359286  1
  Se  Se173  1  0.25433380  0.74310742  0.45922978  1
  Se  Se174  1  0.25187840  0.74722208  0.93759776  1
  Se  Se175  1  0.58381197  0.09051863  0.44516114  1
  Se  Se176  1  0.57678714  0.07718236  0.95427427  1
  Se  Se177  1  0.57699817  0.42040225  0.45022978  1
  Se  Se178  1  0.57998778  0.41677449  0.95401989  1
  Se  Se179  1  0.58912648  0.75609490  0.44553543  1
  Se  Se180  1  0.58722586  0.74268282  0.93326202  1
  Se  Se181  1  0.91963822  0.06966229  0.43145139  1
  Se  Se182  1  0.91777846  0.08573875  0.95297957  1
  Se  Se183  1  0.91534226  0.41800554  0.44085866  1
  Se  Se184  1  0.92199003  0.41457029  0.93866220  1
  Se  Se185  1  0.92550516  0.73875311  0.44062112  1
  Se  Se186  1  0.91586941  0.75193221  0.95305010  1
  Se  Se187  1  0.24791751  0.25123445  0.29792725  1
  Se  Se188  1  0.25574641  0.25769674  0.80579517  1
  Se  Se189  1  0.24157639  0.57208653  0.31623030  1
  Se  Se190  1  0.25267785  0.58406734  0.80128313  1
  Se  Se191  1  0.25563625  0.89964781  0.31623676  1
  Se  Se192  1  0.23830927  0.90698675  0.80427193  1
  Se  Se193  1  0.57367640  0.25261373  0.31210558  1
  Se  Se194  1  0.57875714  0.24259839  0.81866526  1
  Se  Se195  1  0.57045263  0.57752976  0.30877740  1
  Se  Se196  1  0.58272563  0.57309699  0.80795537  1
  Se  Se197  1  0.59573034  0.92859023  0.30264772  1
  Se  Se198  1  0.57330557  0.91163231  0.79836553  1
  Se  Se199  1  0.90862717  0.24419572  0.29320598  1
  Se  Se200  1  0.91903980  0.24600024  0.79916852  1
  Se  Se201  1  0.92170752  0.58307972  0.29868815  1
  Se  Se202  1  0.92248544  0.58690872  0.80258935  1
  Se  Se203  1  0.92608102  0.90946359  0.29204593  1
  Se  Se204  1  0.90661903  0.91461560  0.81669780  1
  Se  Se205  1  0.09068716  0.08123174  0.29948798  1
  Se  Se206  1  0.08817022  0.09038962  0.81193277  1
  Se  Se207  1  0.07875512  0.41070195  0.30229274  1
  Se  Se208  1  0.08310375  0.41834819  0.80240832  1
  Se  Se209  1  0.08915290  0.73901251  0.30981057  1
  Se  Se210  1  0.08049379  0.74847789  0.80179557  1
  Se  Se211  1  0.42255884  0.09021727  0.31005742  1
  Se  Se212  1  0.41611078  0.09140980  0.81585849  1
  Se  Se213  1  0.40516112  0.41569886  0.30685844  1
  Se  Se214  1  0.41838885  0.41401436  0.80254199  1
  Se  Se215  1  0.43316029  0.75972426  0.31068826  1
  Se  Se216  1  0.40911711  0.74499414  0.79240163  1
  Se  Se217  1  0.76110517  0.10114734  0.29633341  1
  Se  Se218  1  0.75017945  0.08340115  0.81345505  1
  Se  Se219  1  0.74859045  0.42807400  0.30755900  1
  Se  Se220  1  0.76376608  0.42112915  0.80832913  1
  Se  Se221  1  0.76480157  0.76054397  0.30742328  1
  Se  Se222  1  0.75296650  0.75243295  0.81530905  1
  Se  Se223  1  0.24669784  0.09240360  0.18331937  1
  Se  Se224  1  0.24330920  0.09288417  0.69673634  1
  Se  Se225  1  0.25033488  0.41478481  0.19542763  1
  Se  Se226  1  0.25392194  0.41445103  0.69833132  1
  Se  Se227  1  0.25084893  0.74775101  0.19211782  1
  Se  Se228  1  0.24959501  0.74681671  0.68880856  1
  Se  Se229  1  0.58560850  0.08673445  0.19814878  1
  Se  Se230  1  0.57821944  0.07800917  0.69871957  1
  Se  Se231  1  0.57168711  0.42832904  0.19430993  1
  Se  Se232  1  0.58424898  0.42048755  0.69197946  1
  Se  Se233  1  0.58490602  0.75847482  0.18851734  1
  Se  Se234  1  0.57030737  0.74544168  0.68091684  1
  Se  Se235  1  0.93845752  0.06896941  0.18742430  1
  Se  Se236  1  0.90858119  0.08873861  0.68820468  1
  Se  Se237  1  0.90667078  0.42561237  0.20473756  1
  Se  Se238  1  0.92188595  0.41295277  0.69174798  1
  Se  Se239  1  0.93320214  0.73458127  0.20291363  1
  Se  Se240  1  0.91379510  0.75030120  0.70255279  1
  Se  Se241  1  0.07905775  0.25419880  0.18980019  1
  Se  Se242  1  0.08003004  0.25455377  0.69952301  1
  Se  Se243  1  0.08680617  0.58406271  0.19981972  1
  Se  Se244  1  0.08315835  0.58167874  0.69271323  1
  Se  Se245  1  0.09614166  0.91290312  0.20380582  1
  Se  Se246  1  0.08562986  0.91533057  0.68720082  1
  Se  Se247  1  0.41290156  0.25598891  0.19916560  1
  Se  Se248  1  0.41904612  0.25160696  0.70183452  1
  Se  Se249  1  0.41755672  0.57934854  0.19091913  1
  Se  Se250  1  0.41554734  0.58431213  0.69311364  1
  Se  Se251  1  0.42517872  0.91760310  0.19586508  1
  Se  Se252  1  0.41038511  0.90654262  0.67948509  1
  Se  Se253  1  0.75377195  0.24226658  0.18588010  1
  Se  Se254  1  0.75663693  0.23926873  0.68987316  1
  Se  Se255  1  0.75205941  0.57608968  0.19189531  1
  Se  Se256  1  0.75514794  0.57397983  0.69149113  1
  Se  Se257  1  0.75732305  0.92175519  0.19702244  1
  Se  Se258  1  0.74366316  0.91960162  0.70469092  1
