# generated using pymatgen
data_In86Cu29Se144
_symmetry_space_group_name_H-M   'P 1'
_cell_length_a   17.56817777
_cell_length_b   17.56832277
_cell_length_c   23.43357141
_cell_angle_alpha   90.02212366
_cell_angle_beta   89.99120129
_cell_angle_gamma   89.99727054
_symmetry_Int_Tables_number   1
_chemical_formula_structural   In86Cu29Se144
_chemical_formula_sum   'In86 Cu29 Se144'
_cell_volume   7232.61693444
_cell_formula_units_Z   1
loop_
 _symmetry_equiv_pos_site_id
 _symmetry_equiv_pos_as_xyz
  1  'x, y, z'
loop_
 _atom_site_type_symbol
 _atom_site_label
 _atom_site_symmetry_multiplicity
 _atom_site_fract_x
 _atom_site_fract_y
 _atom_site_fract_z
 _atom_site_occupancy
  In  In0  1  0.01116477  0.18082092  0.12451730  1
  In  In1  1  -0.00603644  0.16414724  0.61743496  1
  In  In2  1  0.00172178  0.49768105  0.12239544  1
  In  In3  1  0.00115760  0.51517645  0.63186096  1
  In  In4  1  -0.00777473  0.81263529  0.13195924  1
  In  In5  1  0.00325831  0.82415165  0.62044601  1
  In  In6  1  0.32310870  0.16465740  0.13544442  1
  In  In7  1  0.33719964  0.16650417  0.62047011  1
  In  In8  1  0.33838284  0.51019660  0.11799475  1
  In  In9  1  0.32414375  0.49319364  0.63092510  1
  In  In10  1  0.32325528  0.84698402  0.13244869  1
  In  In11  1  0.34513323  0.84320413  0.61257657  1
  In  In12  1  0.66907106  0.15328522  0.12592126  1
  In  In13  1  0.67293554  0.17474535  0.62527812  1
  In  In14  1  0.66570580  0.50653859  0.10417334  1
  In  In15  1  0.68727015  0.48059129  0.64416029  1
  In  In16  1  0.67724490  0.84597187  0.12804905  1
  In  In17  1  0.66251479  0.84118368  0.63142769  1
  In  In18  1  0.17172250  -0.00503566  0.37698240  1
  In  In19  1  0.16182314  0.00213709  0.88738590  1
  In  In20  1  0.15331828  0.33504127  0.37266043  1
  In  In21  1  0.17463158  0.32679516  0.88279360  1
  In  In22  1  0.17005498  0.67278019  0.36260525  1
  In  In23  1  0.15661986  0.66875424  0.88276559  1
  In  In24  1  0.49350774  0.00630203  0.37375908  1
  In  In25  1  0.51141179  -0.00470622  0.87422596  1
  In  In26  1  0.48766108  0.31781440  0.37761305  1
  In  In27  1  0.51183511  0.34094444  0.86522312  1
  In  In28  1  0.50180137  0.67725264  0.37388275  1
  In  In29  1  0.50756297  0.65809750  0.87933444  1
  In  In30  1  0.83472009  0.00966944  0.37567401  1
  In  In31  1  0.83051855  0.00898743  0.87453468  1
  In  In32  1  0.83912171  0.32457725  0.38297521  1
  In  In33  1  0.82603177  0.34079896  0.87689714  1
  In  In34  1  0.83176507  0.65429133  0.37523497  1
  In  In35  1  0.81537570  0.63623798  0.85216998  1
  In  In36  1  -0.00307643  0.17439779  0.37856090  1
  In  In37  1  -0.00443132  0.17109856  0.88561082  1
  In  In38  1  -0.00575641  0.49238112  0.36488089  1
  In  In39  1  -0.01434920  0.51138917  0.88195787  1
  In  In40  1  0.01000078  0.83838862  0.37174845  1
  In  In41  1  0.01140504  0.82488930  0.87889972  1
  In  In42  1  0.34162397  0.15247062  0.38120195  1
  In  In43  1  0.32208509  0.16806581  0.87712608  1
  In  In44  1  0.31826020  0.49808363  0.36729126  1
  In  In45  1  0.34383875  0.49008443  0.88538846  1
  In  In46  1  0.33046889  0.83233392  0.36869417  1
  In  In47  1  0.32612665  0.82447173  0.87826524  1
  In  In48  1  0.66512065  0.15723199  0.38488477  1
  In  In49  1  0.68676617  0.18236166  0.85396516  1
  In  In50  1  0.67419396  0.51145232  0.38061026  1
  In  In51  1  0.67357783  0.49737983  0.87318197  1
  In  In52  1  0.64938109  0.83848975  0.38556994  1
  In  In53  1  0.67004982  0.83386987  0.86414034  1
  In  In54  1  0.17315015  0.01204667  0.12418795  1
  In  In55  1  0.17171458  0.00230224  0.61260333  1
  In  In56  1  0.15817855  0.32064995  0.11996279  1
  In  In57  1  0.17595830  0.33069957  0.63063717  1
  In  In58  1  0.16224233  0.66832511  0.12223909  1
  In  In59  1  0.16323177  0.67102861  0.62415792  1
  In  In60  1  0.50399798  0.00399076  0.14228663  1
  In  In61  1  0.54692489  0.03216866  0.57959520  1
  In  In62  1  0.49188415  0.33980138  0.12233523  1
  In  In63  1  0.50778039  0.32207888  0.63331921  1
  In  In64  1  0.50275357  0.65507577  0.12184890  1
  In  In65  1  0.50941919  0.68105653  0.61999305  1
  In  In66  1  0.81775837  0.00024499  0.13045296  1
  In  In67  1  0.81797707  0.01203257  0.62574091  1
  In  In68  1  0.84147637  0.34556264  0.11584865  1
  In  In69  1  0.82524434  0.32514619  0.62235761  1
  In  In70  1  0.83815210  0.66370928  0.12349342  1
  In  In71  1  0.84284239  0.65526458  0.63511058  1
  In  In72  1  -0.00645851  -0.00212805  0.74089782  1
  In  In73  1  0.50165301  0.16897957  0.00243042  1
  In  In74  1  0.33937442  0.66353960  0.75461945  1
  In  In75  1  0.34116584  -0.00023160  0.74474013  1
  In  In76  1  0.83757294  0.82419194  0.00515062  1
  In  In77  1  -0.00225702  0.00158266  0.25486179  1
  In  In78  1  0.33034644  0.32974916  0.24588524  1
  In  In79  1  0.66734665  0.32911319  0.25567005  1
  In  In80  1  0.67064190  0.67661266  0.24590392  1
  In  In81  1  0.16153372  0.49889539  0.50067685  1
  In  In82  1  0.50415068  0.49862774  0.50187269  1
  In  In83  1  0.83381303  0.83976563  0.50249238  1
  In  In84  1  -0.00751106  0.34013767  0.75889434  1
  In  In85  1  0.49745707  0.83125607  -0.00421940  1
  Cu  Cu86  1  0.49977944  0.50175799  0.75602532  1
  Cu  Cu87  1  0.83818048  0.17577843  0.25390361  1
  Cu  Cu88  1  0.32900631  -0.01058111  0.49212316  1
  Cu  Cu89  1  -0.00424471  0.65985577  0.00121187  1
  Cu  Cu90  1  -0.00085708  0.00030099  0.00448653  1
  Cu  Cu91  1  0.66514088  0.33317632  0.50643975  1
  Cu  Cu92  1  0.00276578  0.66714303  0.50136164  1
  Cu  Cu93  1  0.00191288  0.00529396  0.49414763  1
  Cu  Cu94  1  0.32255167  0.67245174  0.00191895  1
  Cu  Cu95  1  0.33251613  0.32006798  0.50519047  1
  Cu  Cu96  1  0.16820962  0.49810040  0.75436610  1
  Cu  Cu97  1  0.32609310  0.00349195  0.00713032  1
  Cu  Cu98  1  0.16159975  0.82992300  0.24760190  1
  Cu  Cu99  1  0.33514527  0.33700927  0.00367378  1
  Cu  Cu100  1  0.33319308  0.67178094  0.49066276  1
  Cu  Cu101  1  0.15973721  0.16870478  0.75613999  1
  Cu  Cu102  1  0.66912253  0.33292052  -0.01039005  1
  Cu  Cu103  1  0.16365310  0.50676919  0.24214540  1
  Cu  Cu104  1  0.67473497  0.66264120  0.50593132  1
  Cu  Cu105  1  0.84142769  0.49788549  0.24610082  1
  Cu  Cu106  1  0.66842130  0.00425305  0.00076160  1
  Cu  Cu107  1  0.50111812  0.50029438  0.24252586  1
  Cu  Cu108  1  0.50696885  0.83925547  0.74438122  1
  Cu  Cu109  1  -0.00610395  0.33706976  0.49932499  1
  Cu  Cu110  1  0.17120689  0.82848552  0.75240520  1
  Cu  Cu111  1  0.84254422  0.82992228  0.74460805  1
  Cu  Cu112  1  0.49928932  0.16331201  0.73905277  1
  Cu  Cu113  1  0.00471804  0.33177535  -0.00014651  1
  Cu  Cu114  1  0.49441098  0.83474605  0.25687176  1
  Se  Se115  1  0.08276034  0.08621164  0.05615066  1
  Se  Se116  1  0.08407276  0.08799739  0.55069111  1
  Se  Se117  1  0.08702553  0.41551238  0.05394211  1
  Se  Se118  1  0.07511660  0.41024363  0.56502408  1
  Se  Se119  1  0.07446682  0.74928827  0.05326172  1
  Se  Se120  1  0.09054552  0.75139438  0.54863157  1
  Se  Se121  1  0.41554383  0.07643263  0.06374933  1
  Se  Se122  1  0.40553789  0.06749844  0.55628535  1
  Se  Se123  1  0.42125379  0.42412545  0.04983687  1
  Se  Se124  1  0.41032759  0.40921114  0.56125896  1
  Se  Se125  1  0.40706076  0.75008558  0.06184828  1
  Se  Se126  1  0.41925660  0.74721087  0.54800850  1
  Se  Se127  1  0.75570526  0.08533834  0.05170902  1
  Se  Se128  1  0.74317551  0.08665752  0.55150454  1
  Se  Se129  1  0.75183678  0.41672679  0.04510386  1
  Se  Se130  1  0.74975669  0.41896512  0.55503211  1
  Se  Se131  1  0.73528717  0.74104560  0.06036050  1
  Se  Se132  1  0.75371282  0.74492472  0.56578066  1
  Se  Se133  1  0.25904134  0.24772831  0.05759454  1
  Se  Se134  1  0.24144940  0.24345302  0.55644795  1
  Se  Se135  1  0.24317325  0.58310581  0.05280848  1
  Se  Se136  1  0.26029513  0.59006591  0.55597017  1
  Se  Se137  1  0.24244286  0.91583606  0.05514764  1
  Se  Se138  1  0.24406106  0.90751701  0.54755502  1
  Se  Se139  1  0.59504474  0.25986823  0.06060226  1
  Se  Se140  1  0.57889719  0.24881382  0.55449899  1
  Se  Se141  1  0.57435411  0.58588941  0.04252651  1
  Se  Se142  1  0.59593061  0.57905137  0.56590725  1
  Se  Se143  1  0.58316107  0.92610202  0.05824620  1
  Se  Se144  1  0.57670621  0.89398135  0.55163018  1
  Se  Se145  1  0.91944331  0.24972485  0.05383493  1
  Se  Se146  1  0.91194107  0.25021641  0.55150262  1
  Se  Se147  1  0.91181262  0.57661285  0.05371401  1
  Se  Se148  1  0.92034952  0.58439257  0.55505424  1
  Se  Se149  1  0.92020916  0.92102925  0.06656322  1
  Se  Se150  1  0.92533400  0.93060666  0.56284700  1
  Se  Se151  1  0.08188680  0.25551514  0.44882714  1
  Se  Se152  1  0.08944512  0.24472902  0.95032643  1
  Se  Se153  1  0.07893768  0.58791249  0.43590501  1
  Se  Se154  1  0.08323980  0.57686669  0.95018574  1
  Se  Se155  1  0.08388114  0.91598619  0.44668926  1
  Se  Se156  1  0.07951658  0.91421388  0.95124154  1
  Se  Se157  1  0.41883451  0.23844889  0.45391710  1
  Se  Se158  1  0.41463221  0.25820565  0.93933108  1
  Se  Se159  1  0.40951866  0.58111533  0.43640187  1
  Se  Se160  1  0.40954626  0.59496438  0.94656993  1
  Se  Se161  1  0.41575304  0.91061690  0.43854415  1
  Se  Se162  1  0.40483543  0.92909973  0.94053180  1
  Se  Se163  1  0.74537457  0.25061605  0.44769011  1
  Se  Se164  1  0.75132900  0.24334062  0.94204462  1
  Se  Se165  1  0.75927567  0.57972842  0.45463276  1
  Se  Se166  1  0.75575567  0.58095180  0.94221592  1
  Se  Se167  1  0.74211350  0.92885894  0.44550388  1
  Se  Se168  1  0.74639649  0.91621984  0.94441563  1
  Se  Se169  1  0.24596724  0.08227736  0.44841702  1
  Se  Se170  1  0.24712311  0.08837506  0.95124139  1
  Se  Se171  1  0.25710893  0.40604659  0.44518380  1
  Se  Se172  1  0.24842626  0.41830867  0.95120898  1
  Se  Se173  1  0.24516928  0.74962228  0.43866726  1
  Se  Se174  1  0.23912889  0.75639354  0.95003023  1
  Se  Se175  1  0.57463248  0.07909548  0.45086849  1
  Se  Se176  1  0.59383775  0.08665949  0.93850919  1
  Se  Se177  1  0.58904649  0.40677464  0.43684072  1
  Se  Se178  1  0.58254708  0.41848096  0.94248338  1
  Se  Se179  1  0.58557749  0.73880496  0.45245043  1
  Se  Se180  1  0.59794839  0.74803187  0.94172813  1
  Se  Se181  1  0.91492938  0.08943516  0.44670851  1
  Se  Se182  1  0.91470512  0.07931541  0.94873030  1
  Se  Se183  1  0.91630083  0.42333573  0.44406189  1
  Se  Se184  1  0.91765762  0.41179487  0.94626287  1
  Se  Se185  1  0.92166294  0.74751917  0.44054853  1
  Se  Se186  1  0.91632320  0.73676114  0.93669714  1
  Se  Se187  1  0.25027589  0.24726379  0.31637772  1
  Se  Se188  1  0.24854267  0.25084808  0.80371182  1
  Se  Se189  1  0.25122023  0.58552142  0.29519149  1
  Se  Se190  1  0.24818756  0.57840638  0.81647295  1
  Se  Se191  1  0.24390040  0.91421138  0.30116626  1
  Se  Se192  1  0.24492502  0.91679779  0.80999523  1
  Se  Se193  1  0.57495702  0.23723136  0.30944790  1
  Se  Se194  1  0.57883598  0.24669451  0.79646225  1
  Se  Se195  1  0.58099363  0.57861245  0.30553165  1
  Se  Se196  1  0.58638632  0.58401265  0.80553439  1
  Se  Se197  1  0.57967023  0.91690681  0.30835460  1
  Se  Se198  1  0.58970374  0.92328114  0.79845778  1
  Se  Se199  1  0.92189731  0.25903218  0.30509801  1
  Se  Se200  1  0.90719087  0.23961715  0.81079651  1
  Se  Se201  1  0.91743863  0.58738205  0.30023211  1
  Se  Se202  1  0.92667856  0.57878453  0.79553118  1
  Se  Se203  1  0.90478185  0.90840091  0.30956092  1
  Se  Se204  1  0.91637056  0.90854652  0.81162850  1
  Se  Se205  1  0.08873473  0.09077058  0.31211554  1
  Se  Se206  1  0.08070298  0.08355221  0.81087574  1
  Se  Se207  1  0.08643036  0.41933891  0.29718353  1
  Se  Se208  1  0.08935416  0.42227437  0.81812901  1
  Se  Se209  1  0.07445503  0.74798547  0.29835662  1
  Se  Se210  1  0.08631395  0.74576709  0.80307307  1
  Se  Se211  1  0.40787646  0.07939166  0.30100745  1
  Se  Se212  1  0.42504246  0.09129341  0.81091142  1
  Se  Se213  1  0.42493069  0.42171921  0.30680279  1
  Se  Se214  1  0.41244439  0.41727122  0.80399624  1
  Se  Se215  1  0.41257945  0.74280972  0.30162284  1
  Se  Se216  1  0.42969958  0.76187554  0.80976189  1
  Se  Se217  1  0.75362035  0.09401797  0.30741075  1
  Se  Se218  1  0.74184417  0.06728709  0.79985381  1
  Se  Se219  1  0.75801778  0.42515595  0.31050184  1
  Se  Se220  1  0.74184693  0.40650036  0.80171552  1
  Se  Se221  1  0.74773034  0.75699971  0.31986302  1
  Se  Se222  1  0.75472651  0.75080192  0.79814955  1
  Se  Se223  1  0.25253247  0.07527725  0.20369457  1
  Se  Se224  1  0.23870627  0.08787073  0.69373115  1
  Se  Se225  1  0.24617239  0.42310009  0.18443425  1
  Se  Se226  1  0.25116214  0.41188033  0.70478172  1
  Se  Se227  1  0.24666060  0.74876038  0.19303623  1
  Se  Se228  1  0.25788884  0.75733293  0.69006659  1
  Se  Se229  1  0.59626780  0.08209117  0.20340446  1
  Se  Se230  1  0.58035229  0.08158016  0.68215357  1
  Se  Se231  1  0.58728844  0.42311611  0.18719136  1
  Se  Se232  1  0.57827573  0.41548347  0.70057143  1
  Se  Se233  1  0.57229545  0.76202404  0.18772850  1
  Se  Se234  1  0.58857597  0.74670459  0.69894985  1
  Se  Se235  1  0.91268331  0.09250366  0.19043199  1
  Se  Se236  1  0.90374769  0.09947688  0.69498758  1
  Se  Se237  1  0.92238522  0.41207201  0.19407360  1
  Se  Se238  1  0.91037837  0.42208070  0.68916832  1
  Se  Se239  1  0.89241984  0.75413937  0.19892079  1
  Se  Se240  1  0.92931754  0.74696410  0.69573008  1
  Se  Se241  1  0.09478884  0.24504884  0.20117027  1
  Se  Se242  1  0.07908985  0.24622715  0.69416917  1
  Se  Se243  1  0.07601452  0.58865006  0.19181326  1
  Se  Se244  1  0.09450459  0.58654699  0.69910135  1
  Se  Se245  1  0.08183525  0.91289723  0.18807695  1
  Se  Se246  1  0.09650455  0.91073200  0.68904016  1
  Se  Se247  1  0.43114469  0.24116465  0.19317065  1
  Se  Se248  1  0.40803593  0.24853678  0.69590192  1
  Se  Se249  1  0.41567159  0.58601128  0.19509736  1
  Se  Se250  1  0.42623603  0.57863100  0.68716188  1
  Se  Se251  1  0.41305636  0.91924573  0.20185662  1
  Se  Se252  1  0.43267601  0.91949907  0.68251202  1
  Se  Se253  1  0.75821745  0.25023081  0.18817087  1
  Se  Se254  1  0.74082767  0.26199860  0.69877558  1
  Se  Se255  1  0.74830587  0.56977888  0.18978422  1
  Se  Se256  1  0.74235739  0.59331126  0.70036321  1
  Se  Se257  1  0.74400783  0.92319592  0.20536343  1
  Se  Se258  1  0.75753823  0.91607537  0.69610822  1
