# generated using pymatgen
data_In86Cu29Se144
_symmetry_space_group_name_H-M   'P 1'
_cell_length_a   17.57743770
_cell_length_b   17.57847616
_cell_length_c   23.43698705
_cell_angle_alpha   89.99880628
_cell_angle_beta   90.00134607
_cell_angle_gamma   89.98888969
_symmetry_Int_Tables_number   1
_chemical_formula_structural   In86Cu29Se144
_chemical_formula_sum   'In86 Cu29 Se144'
_cell_volume   7241.66721725
_cell_formula_units_Z   1
loop_
 _symmetry_equiv_pos_site_id
 _symmetry_equiv_pos_as_xyz
  1  'x, y, z'
loop_
 _atom_site_type_symbol
 _atom_site_label
 _atom_site_symmetry_multiplicity
 _atom_site_fract_x
 _atom_site_fract_y
 _atom_site_fract_z
 _atom_site_occupancy
  In  In0  1  -0.00450686  0.16277008  0.12986871  1
  In  In1  1  0.00162155  0.17124814  0.61484538  1
  In  In2  1  0.01128933  0.50315015  0.11830443  1
  In  In3  1  0.00655796  0.48901444  0.62599450  1
  In  In4  1  -0.00790089  0.81516869  0.12500745  1
  In  In5  1  0.01047159  0.82416794  0.62186083  1
  In  In6  1  0.34690076  0.15642373  0.13648907  1
  In  In7  1  0.33857764  0.17379802  0.62380694  1
  In  In8  1  0.33630735  0.50341919  0.12283156  1
  In  In9  1  0.33186331  0.49814928  0.63181516  1
  In  In10  1  0.33401017  0.83507159  0.12384395  1
  In  In11  1  0.32541577  0.83404597  0.62112150  1
  In  In12  1  0.65051479  0.16287857  0.11984405  1
  In  In13  1  0.66582182  0.16528271  0.62654868  1
  In  In14  1  0.67910064  0.52084310  0.09750652  1
  In  In15  1  0.67203536  0.49842790  0.64424125  1
  In  In16  1  0.65430201  0.83891596  0.12348127  1
  In  In17  1  0.66076132  0.83205063  0.63697970  1
  In  In18  1  0.17211489  -0.00504842  0.38026429  1
  In  In19  1  0.16898430  -0.00197149  0.87855186  1
  In  In20  1  0.17936454  0.32837439  0.38363503  1
  In  In21  1  0.17721956  0.33656280  0.87317091  1
  In  In22  1  0.17148734  0.66537103  0.37174935  1
  In  In23  1  0.17787311  0.65686849  0.88516582  1
  In  In24  1  0.50931185  0.00924955  0.36873016  1
  In  In25  1  0.51248412  -0.00582501  0.88859559  1
  In  In26  1  0.48855822  0.33406614  0.37393912  1
  In  In27  1  0.50032269  0.33303718  0.87266722  1
  In  In28  1  0.49967822  0.67011012  0.36134403  1
  In  In29  1  0.50061389  0.67024420  0.88576175  1
  In  In30  1  0.83109815  0.00951422  0.37434164  1
  In  In31  1  0.82411697  0.01294203  0.87702363  1
  In  In32  1  0.82283606  0.32923628  0.37745070  1
  In  In33  1  0.80979916  0.36470068  0.88378088  1
  In  In34  1  0.83277387  0.66202775  0.35983056  1
  In  In35  1  0.81289083  0.65437415  0.87637348  1
  In  In36  1  -0.00293609  0.17307056  0.38342517  1
  In  In37  1  0.00461373  0.17066455  0.86904948  1
  In  In38  1  0.00864090  0.51693191  0.36799749  1
  In  In39  1  -0.00769973  0.50431597  0.89099508  1
  In  In40  1  0.01056639  0.82413470  0.37373108  1
  In  In41  1  0.01030344  0.83747329  0.88281317  1
  In  In42  1  0.33600452  0.16767250  0.37649645  1
  In  In43  1  0.34573384  0.19057632  0.85548175  1
  In  In44  1  0.33058825  0.48926251  0.36446113  1
  In  In45  1  0.33104643  0.50241962  0.87772180  1
  In  In46  1  0.32502685  0.82706227  0.36426035  1
  In  In47  1  0.34769394  0.82736668  0.88701315  1
  In  In48  1  0.67063955  0.16227790  0.38220190  1
  In  In49  1  0.64175373  0.15511065  0.85252283  1
  In  In50  1  0.66049405  0.50055163  0.36643346  1
  In  In51  1  0.66298955  0.49966512  0.87747803  1
  In  In52  1  0.66269382  0.82976477  0.36734258  1
  In  In53  1  0.65283873  0.82157745  0.87971084  1
  In  In54  1  0.18361266  0.00176356  0.12923370  1
  In  In55  1  0.17259140  0.00059285  0.61240420  1
  In  In56  1  0.17550521  0.35300959  0.11771117  1
  In  In57  1  0.17257800  0.33587953  0.62200863  1
  In  In58  1  0.16893221  0.66682314  0.12451453  1
  In  In59  1  0.17727795  0.66847959  0.61851538  1
  In  In60  1  0.50219789  -0.00360493  0.12301953  1
  In  In61  1  0.50114727  0.01658096  0.62923229  1
  In  In62  1  0.49483474  0.33105155  0.11851525  1
  In  In63  1  0.51072130  0.30735054  0.64856707  1
  In  In64  1  0.50083653  0.66599438  0.11984318  1
  In  In65  1  0.50281826  0.65675851  0.63678046  1
  In  In66  1  0.82174186  -0.01144109  0.12406485  1
  In  In67  1  0.81523796  0.00343058  0.62946872  1
  In  In68  1  0.83197995  0.34024095  0.11878940  1
  In  In69  1  0.83814808  0.32820348  0.62558071  1
  In  In70  1  0.83684192  0.65370258  0.13476213  1
  In  In71  1  0.82401246  0.65805637  0.62943192  1
  In  In72  1  0.49317987  0.49484329  0.50386608  1
  In  In73  1  0.66461090  0.33918722  0.24227348  1
  In  In74  1  0.83992599  0.49610606  0.50210566  1
  In  In75  1  0.82897525  0.82748154  -0.00386622  1
  In  In76  1  0.83942598  0.84093513  0.49804793  1
  In  In77  1  0.00591226  0.33642398  0.24116704  1
  In  In78  1  -0.00699500  0.33592569  0.74916220  1
  In  In79  1  0.00286680  -0.00762446  0.26276403  1
  In  In80  1  0.33898295  0.00022923  0.74365612  1
  In  In81  1  0.83062024  0.17742403  -0.00027240  1
  In  In82  1  -0.00474151  0.66748728  0.76051736  1
  In  In83  1  -0.00006346  0.00045310  0.75459227  1
  In  In84  1  0.17908833  0.16952476  -0.00877880  1
  In  In85  1  0.49211208  0.83567287  0.49856021  1
  Cu  Cu86  1  0.33680430  0.33072278  0.50295816  1
  Cu  Cu87  1  0.82697699  0.83263669  0.75484677  1
  Cu  Cu88  1  0.33125948  0.00198042  0.49768931  1
  Cu  Cu89  1  0.16447110  0.82901686  0.24770135  1
  Cu  Cu90  1  0.33931000  0.00246711  0.00469720  1
  Cu  Cu91  1  0.01023477  -0.00017638  0.00133529  1
  Cu  Cu92  1  0.00702125  0.33686270  0.50023240  1
  Cu  Cu93  1  0.17815129  0.82962593  0.74699154  1
  Cu  Cu94  1  0.82578377  0.17288737  0.74859404  1
  Cu  Cu95  1  0.33056252  0.66153304  0.49530890  1
  Cu  Cu96  1  0.33096768  0.66796106  0.00455344  1
  Cu  Cu97  1  0.82229417  0.82711410  0.24400291  1
  Cu  Cu98  1  0.50280009  0.50609555  0.24030716  1
  Cu  Cu99  1  0.00463940  0.66775825  0.00549763  1
  Cu  Cu100  1  0.65866083  0.33026099  -0.00605820  1
  Cu  Cu101  1  0.48969322  0.50378756  0.76237974  1
  Cu  Cu102  1  0.66089618  0.01003128  0.50209161  1
  Cu  Cu103  1  0.01271033  0.66653004  0.49716630  1
  Cu  Cu104  1  0.82443193  0.16227870  0.25360612  1
  Cu  Cu105  1  -0.00173373  0.00326315  0.49593789  1
  Cu  Cu106  1  0.49914927  0.82568186  0.75933235  1
  Cu  Cu107  1  0.17165890  0.50496901  0.24553044  1
  Cu  Cu108  1  0.67015088  0.66317047  0.50193983  1
  Cu  Cu109  1  0.17743435  0.17502078  0.25480060  1
  Cu  Cu110  1  0.16602019  0.50215469  0.75240898  1
  Cu  Cu111  1  0.49472833  0.83532061  0.24244343  1
  Cu  Cu112  1  0.49999039  0.16696381  0.24833804  1
  Cu  Cu113  1  0.33527513  0.33483937  -0.00373054  1
  Cu  Cu114  1  0.66136707  0.32460250  0.50566642  1
  Se  Se115  1  0.08682133  0.08391103  0.06040087  1
  Se  Se116  1  0.08386721  0.08450049  0.54963453  1
  Se  Se117  1  0.07866434  0.40997284  0.04909881  1
  Se  Se118  1  0.09009461  0.42067970  0.55217296  1
  Se  Se119  1  0.08746891  0.75432668  0.05491855  1
  Se  Se120  1  0.09388694  0.75244288  0.54949845  1
  Se  Se121  1  0.42132591  0.08852034  0.05629901  1
  Se  Se122  1  0.41317679  0.08109886  0.55524920  1
  Se  Se123  1  0.41558586  0.41919467  0.05145934  1
  Se  Se124  1  0.41808382  0.40147406  0.56923462  1
  Se  Se125  1  0.41624124  0.75371375  0.05399568  1
  Se  Se126  1  0.41416091  0.73503545  0.55933962  1
  Se  Se127  1  0.74487136  0.07825106  0.05449060  1
  Se  Se128  1  0.75127081  0.08781116  0.55337277  1
  Se  Se129  1  0.74833745  0.40947998  0.04479509  1
  Se  Se130  1  0.73937611  0.41397558  0.56066107  1
  Se  Se131  1  0.75056703  0.74501524  0.06684914  1
  Se  Se132  1  0.74565868  0.75076656  0.55834269  1
  Se  Se133  1  0.26287212  0.25102505  0.06184691  1
  Se  Se134  1  0.24934319  0.24736510  0.55335747  1
  Se  Se135  1  0.24697951  0.58122808  0.05428823  1
  Se  Se136  1  0.25608481  0.57637771  0.55448307  1
  Se  Se137  1  0.25100379  0.92009727  0.05335469  1
  Se  Se138  1  0.24982704  0.91061833  0.54562464  1
  Se  Se139  1  0.57731767  0.24788512  0.04904451  1
  Se  Se140  1  0.57595432  0.24650439  0.55992115  1
  Se  Se141  1  0.56147472  0.57159769  0.04658169  1
  Se  Se142  1  0.59223951  0.58173691  0.56127925  1
  Se  Se143  1  0.58716960  0.92393361  0.04998184  1
  Se  Se144  1  0.58763435  0.91979990  0.55956873  1
  Se  Se145  1  0.93178946  0.25731860  0.05794599  1
  Se  Se146  1  0.91640491  0.25604328  0.54950911  1
  Se  Se147  1  0.91786525  0.58581341  0.05674186  1
  Se  Se148  1  0.92855540  0.59356449  0.56062335  1
  Se  Se149  1  0.92394687  0.92120267  0.05656154  1
  Se  Se150  1  0.92435345  0.92780834  0.56549674  1
  Se  Se151  1  0.08830547  0.24965060  0.44855596  1
  Se  Se152  1  0.07862575  0.25770482  0.94076716  1
  Se  Se153  1  0.09292690  0.58067243  0.44462573  1
  Se  Se154  1  0.08693020  0.58212537  0.95252334  1
  Se  Se155  1  0.07767619  0.91610130  0.44363727  1
  Se  Se156  1  0.09490712  0.91510823  0.95204909  1
  Se  Se157  1  0.42017538  0.24909442  0.44774297  1
  Se  Se158  1  0.41511673  0.24911393  0.94194560  1
  Se  Se159  1  0.41641392  0.58740690  0.43592136  1
  Se  Se160  1  0.41135648  0.58416201  0.94865397  1
  Se  Se161  1  0.40850647  0.92351509  0.43382157  1
  Se  Se162  1  0.42389000  0.91512777  0.95498585  1
  Se  Se163  1  0.75075031  0.24826302  0.45127211  1
  Se  Se164  1  0.73658746  0.24823933  0.93175504  1
  Se  Se165  1  0.74756071  0.58421208  0.44012308  1
  Se  Se166  1  0.74745588  0.57433214  0.95215384  1
  Se  Se167  1  0.73700106  0.92328530  0.44239581  1
  Se  Se168  1  0.74176257  0.92403869  0.94181051  1
  Se  Se169  1  0.24809367  0.08739739  0.44516063  1
  Se  Se170  1  0.27153086  0.08018114  0.93409528  1
  Se  Se171  1  0.26072071  0.41975895  0.44751731  1
  Se  Se172  1  0.24776229  0.41844756  0.94804066  1
  Se  Se173  1  0.25259664  0.74992962  0.44211436  1
  Se  Se174  1  0.24910656  0.75391251  0.95004559  1
  Se  Se175  1  0.57521719  0.08931902  0.44819500  1
  Se  Se176  1  0.58619916  0.09820886  0.94407469  1
  Se  Se177  1  0.59107585  0.40973394  0.44212545  1
  Se  Se178  1  0.57527517  0.41788416  0.94520677  1
  Se  Se179  1  0.58637421  0.74080897  0.44314647  1
  Se  Se180  1  0.58507088  0.74616393  0.95765720  1
  Se  Se181  1  0.91109977  0.08604662  0.44674869  1
  Se  Se182  1  0.92886182  0.08058801  0.94375316  1
  Se  Se183  1  0.92787222  0.41227099  0.43502793  1
  Se  Se184  1  0.91761926  0.40634533  0.94987503  1
  Se  Se185  1  0.91835597  0.73683384  0.44101338  1
  Se  Se186  1  0.92359834  0.73759838  0.93749610  1
  Se  Se187  1  0.26003429  0.25892557  0.30678747  1
  Se  Se188  1  0.23547548  0.24744561  0.79863885  1
  Se  Se189  1  0.25585051  0.58545591  0.30157221  1
  Se  Se190  1  0.24965293  0.58579275  0.80518271  1
  Se  Se191  1  0.24205689  0.91820740  0.30130354  1
  Se  Se192  1  0.25382672  0.91056916  0.80980866  1
  Se  Se193  1  0.58267402  0.24803311  0.30843305  1
  Se  Se194  1  0.59008986  0.26958560  0.79746514  1
  Se  Se195  1  0.58629480  0.58603663  0.29680482  1
  Se  Se196  1  0.57684177  0.58632461  0.81216709  1
  Se  Se197  1  0.57861938  0.91337610  0.30208503  1
  Se  Se198  1  0.58059961  0.91308273  0.81014095  1
  Se  Se199  1  0.91077082  0.24641135  0.30470545  1
  Se  Se200  1  0.90266611  0.24946318  0.81255732  1
  Se  Se201  1  0.91768215  0.57860099  0.29719498  1
  Se  Se202  1  0.90590246  0.57008094  0.81062968  1
  Se  Se203  1  0.90191710  0.90013674  0.31294507  1
  Se  Se204  1  0.90892363  0.90941752  0.81520647  1
  Se  Se205  1  0.08950003  0.09670878  0.31155107  1
  Se  Se206  1  0.09905342  0.09099736  0.80420012  1
  Se  Se207  1  0.09566073  0.41857793  0.30734229  1
  Se  Se208  1  0.08002503  0.42784336  0.81205177  1
  Se  Se209  1  0.08332314  0.74290705  0.30036462  1
  Se  Se210  1  0.09579435  0.75704445  0.81067190  1
  Se  Se211  1  0.41618714  0.08590118  0.30442754  1
  Se  Se212  1  0.42696867  0.07856240  0.81153534  1
  Se  Se213  1  0.42600204  0.41940285  0.29716339  1
  Se  Se214  1  0.40671352  0.41397478  0.80817012  1
  Se  Se215  1  0.41243998  0.75008138  0.29609784  1
  Se  Se216  1  0.41373793  0.74428531  0.81051403  1
  Se  Se217  1  0.73984901  0.07984219  0.30482744  1
  Se  Se218  1  0.74843720  0.08031549  0.79787659  1
  Se  Se219  1  0.76132071  0.42334711  0.30385297  1
  Se  Se220  1  0.73586676  0.41849167  0.80014291  1
  Se  Se221  1  0.74014305  0.74334211  0.29913987  1
  Se  Se222  1  0.74601352  0.75045080  0.80955235  1
  Se  Se223  1  0.25434263  0.08284815  0.20422502  1
  Se  Se224  1  0.24152141  0.08572099  0.68806129  1
  Se  Se225  1  0.25566280  0.41886897  0.19543997  1
  Se  Se226  1  0.24489154  0.41558454  0.69839766  1
  Se  Se227  1  0.25125522  0.75077412  0.19317093  1
  Se  Se228  1  0.25731561  0.74469514  0.69334092  1
  Se  Se229  1  0.58241090  0.08168862  0.19601492  1
  Se  Se230  1  0.59111800  0.08092269  0.69916282  1
  Se  Se231  1  0.58275622  0.42786410  0.17825246  1
  Se  Se232  1  0.56814826  0.42569923  0.69956599  1
  Se  Se233  1  0.57971740  0.74969082  0.19242870  1
  Se  Se234  1  0.58364673  0.74366698  0.70308898  1
  Se  Se235  1  0.90869372  0.07859823  0.19781603  1
  Se  Se236  1  0.91303168  0.09250895  0.69145525  1
  Se  Se237  1  0.91079769  0.42601083  0.18878697  1
  Se  Se238  1  0.90199866  0.43256401  0.69383152  1
  Se  Se239  1  0.91547423  0.74462846  0.20165594  1
  Se  Se240  1  0.91047204  0.75914619  0.69287143  1
  Se  Se241  1  0.09925070  0.24303704  0.18654757  1
  Se  Se242  1  0.08392759  0.24676928  0.69018850  1
  Se  Se243  1  0.08363067  0.58417983  0.19375934  1
  Se  Se244  1  0.08555816  0.58409556  0.69305544  1
  Se  Se245  1  0.08285932  0.91205372  0.18875544  1
  Se  Se246  1  0.09276443  0.91141721  0.69224890  1
  Se  Se247  1  0.42020138  0.25655649  0.19782885  1
  Se  Se248  1  0.40528230  0.24222659  0.70723672  1
  Se  Se249  1  0.41421102  0.58981964  0.19254474  1
  Se  Se250  1  0.40937586  0.58396848  0.70168216  1
  Se  Se251  1  0.41205168  0.92322417  0.19331973  1
  Se  Se252  1  0.42970079  0.90279991  0.68797791  1
  Se  Se253  1  0.75543107  0.24138305  0.18572374  1
  Se  Se254  1  0.74687203  0.25659619  0.69283073  1
  Se  Se255  1  0.73707050  0.57379294  0.18977953  1
  Se  Se256  1  0.74372068  0.59566597  0.70630052  1
  Se  Se257  1  0.74070084  0.91662395  0.19709713  1
  Se  Se258  1  0.74561072  0.91741980  0.70167795  1
