# generated using pymatgen
data_In86Cu29Se144
_symmetry_space_group_name_H-M   'P 1'
_cell_length_a   17.60896820
_cell_length_b   17.61072015
_cell_length_c   23.47192162
_cell_angle_alpha   90.00130250
_cell_angle_beta   90.00998393
_cell_angle_gamma   90.01743756
_symmetry_Int_Tables_number   1
_chemical_formula_structural   In86Cu29Se144
_chemical_formula_sum   'In86 Cu29 Se144'
_cell_volume   7278.79761884
_cell_formula_units_Z   1
loop_
 _symmetry_equiv_pos_site_id
 _symmetry_equiv_pos_as_xyz
  1  'x, y, z'
loop_
 _atom_site_type_symbol
 _atom_site_label
 _atom_site_symmetry_multiplicity
 _atom_site_fract_x
 _atom_site_fract_y
 _atom_site_fract_z
 _atom_site_occupancy
  In  In0  1  -0.00767934  0.16867547  0.12722513  1
  In  In1  1  -0.00110841  0.16380237  0.62233834  1
  In  In2  1  0.00914277  0.49705609  0.11691613  1
  In  In3  1  -0.01345285  0.50649794  0.63506495  1
  In  In4  1  0.00468095  0.82438369  0.11918960  1
  In  In5  1  0.00060229  0.82876823  0.62954038  1
  In  In6  1  0.34881862  0.17074719  0.13133755  1
  In  In7  1  0.33977982  0.17817854  0.61751455  1
  In  In8  1  0.33090353  0.49996036  0.12535984  1
  In  In9  1  0.34028360  0.49618224  0.62893608  1
  In  In10  1  0.33015121  0.83296370  0.10693775  1
  In  In11  1  0.32609088  0.82894815  0.62231181  1
  In  In12  1  0.65427242  0.16193523  0.14421481  1
  In  In13  1  0.66329550  0.14923416  0.60605190  1
  In  In14  1  0.65854362  0.50559808  0.14214043  1
  In  In15  1  0.67312035  0.51044531  0.61763619  1
  In  In16  1  0.65357283  0.84228356  0.13148717  1
  In  In17  1  0.66232219  0.83703180  0.61782950  1
  In  In18  1  0.16999571  -0.00019052  0.38448210  1
  In  In19  1  0.16034454  0.00142136  0.87100705  1
  In  In20  1  0.16423114  0.32477996  0.37498434  1
  In  In21  1  0.17522822  0.34169395  0.86454728  1
  In  In22  1  0.17302758  0.67442320  0.37732916  1
  In  In23  1  0.16898636  0.66400135  0.87117179  1
  In  In24  1  0.51415809  -0.01167457  0.39134111  1
  In  In25  1  0.50269137  -0.01547741  0.87524258  1
  In  In26  1  0.50138221  0.33621164  0.37015844  1
  In  In27  1  0.49729642  0.34400692  0.87279724  1
  In  In28  1  0.51685414  0.65163762  0.38608768  1
  In  In29  1  0.51771179  0.68629058  0.86117338  1
  In  In30  1  0.78180261  0.02632509  0.42734689  1
  In  In31  1  0.82725032  -0.00553774  0.86013536  1
  In  In32  1  0.82082007  0.34749574  0.38917688  1
  In  In33  1  0.83640261  0.32283813  0.87075756  1
  In  In34  1  0.81417924  0.68689371  0.39026309  1
  In  In35  1  0.83436071  0.67024916  0.86724974  1
  In  In36  1  -0.00074669  0.16619649  0.38635912  1
  In  In37  1  -0.00365462  0.16160363  0.85913135  1
  In  In38  1  -0.00435013  0.49078885  0.37715076  1
  In  In39  1  0.02168229  0.51883762  0.85636583  1
  In  In40  1  -0.00853918  0.84195327  0.38411253  1
  In  In41  1  -0.00102774  0.83489925  0.86425097  1
  In  In42  1  0.32742392  0.17627751  0.38246545  1
  In  In43  1  0.32636102  0.16452679  0.86969585  1
  In  In44  1  0.35345064  0.49807182  0.37443131  1
  In  In45  1  0.32640432  0.49706844  0.86892108  1
  In  In46  1  0.33217227  0.84072083  0.38252056  1
  In  In47  1  0.35503235  0.82401268  0.88129045  1
  In  In48  1  0.65729147  0.17390762  0.38235636  1
  In  In49  1  0.67599790  0.16729728  0.87239989  1
  In  In50  1  0.66313136  0.50178715  0.37305826  1
  In  In51  1  0.65714137  0.51419535  0.87692332  1
  In  In52  1  0.66525680  0.83098566  0.37771503  1
  In  In53  1  0.66297484  0.83628018  0.87219617  1
  In  In54  1  0.17270647  -0.00904764  0.12050697  1
  In  In55  1  0.15727525  -0.00910170  0.62205844  1
  In  In56  1  0.16900675  0.34475236  0.12026340  1
  In  In57  1  0.17316634  0.32356279  0.62852420  1
  In  In58  1  0.17756116  0.66894061  0.10535116  1
  In  In59  1  0.15939551  0.67402242  0.63639048  1
  In  In60  1  0.50308944  -0.00940438  0.12320811  1
  In  In61  1  0.51245532  0.00654707  0.61163977  1
  In  In62  1  0.49706115  0.33783433  0.15267370  1
  In  In63  1  0.49380244  0.33118711  0.61794978  1
  In  In64  1  0.50174878  0.67475534  0.12577385  1
  In  In65  1  0.49884184  0.66799551  0.62406473  1
  In  In66  1  0.81677488  -0.00765298  0.12726529  1
  In  In67  1  0.83414410  -0.00371547  0.61940276  1
  In  In68  1  0.82555367  0.32928197  0.13376472  1
  In  In69  1  0.83806204  0.33738125  0.61674327  1
  In  In70  1  0.83341494  0.66529817  0.12601450  1
  In  In71  1  0.83024240  0.66579130  0.62676333  1
  In  In72  1  0.83094378  0.83341266  -0.00713714  1
  In  In73  1  0.16641957  0.15936897  -0.01100780  1
  In  In74  1  -0.00567822  0.33066144  0.24928223  1
  In  In75  1  0.34095818  0.66399595  0.24471112  1
  In  In76  1  0.35011779  0.00272235  0.25402313  1
  In  In77  1  0.33660025  0.00069818  0.74765384  1
  In  In78  1  0.49417236  0.50403774  0.00827501  1
  In  In79  1  0.50221022  0.15887116  0.01159645  1
  In  In80  1  -0.00139214  0.66555057  0.24459567  1
  In  In81  1  0.66940874  0.33341256  0.73884391  1
  In  In82  1  0.84017558  0.50302270  -0.00581303  1
  In  In83  1  0.83163601  0.16636499  0.00968128  1
  In  In84  1  -0.01205294  -0.00040028  0.26119671  1
  In  In85  1  0.16429807  0.50284360  0.51002228  1
  Cu  Cu86  1  0.17456256  0.16611695  0.25370335  1
  Cu  Cu87  1  0.00029300  0.66451389  0.50969965  1
  Cu  Cu88  1  0.00827273  0.34080786  -0.00816813  1
  Cu  Cu89  1  0.66159815  0.33545795  0.49959775  1
  Cu  Cu90  1  0.66499880  0.33772150  0.01389079  1
  Cu  Cu91  1  0.33279972  0.00525890  0.50402816  1
  Cu  Cu92  1  -0.00216508  0.33051737  0.50132700  1
  Cu  Cu93  1  0.17061684  0.83067137  0.75072867  1
  Cu  Cu94  1  0.33378579  0.32607891  -0.00268094  1
  Cu  Cu95  1  0.82915601  0.50985874  0.25639979  1
  Cu  Cu96  1  0.33453434  0.67524599  0.49993719  1
  Cu  Cu97  1  0.49962853  0.82526297  0.25707218  1
  Cu  Cu98  1  0.81600352  0.83799549  0.25605726  1
  Cu  Cu99  1  0.50720054  0.83613657  0.74548223  1
  Cu  Cu100  1  0.33753535  0.65581207  -0.00857006  1
  Cu  Cu101  1  0.82400883  0.16122327  0.26644881  1
  Cu  Cu102  1  0.50613867  0.16820200  0.73759694  1
  Cu  Cu103  1  0.16784924  0.49524349  0.74436946  1
  Cu  Cu104  1  0.83167403  0.16061876  0.74168697  1
  Cu  Cu105  1  0.49678654  0.50658873  0.75085691  1
  Cu  Cu106  1  0.33511087  0.34159513  0.49902539  1
  Cu  Cu107  1  -0.00435555  0.00129279  -0.00911133  1
  Cu  Cu108  1  0.83063367  0.83329985  0.74177249  1
  Cu  Cu109  1  0.16487268  0.16690511  0.74716095  1
  Cu  Cu110  1  0.00845594  -0.00625881  0.50700575  1
  Cu  Cu111  1  0.82710451  0.49452989  0.74759493  1
  Cu  Cu112  1  0.17724257  0.49874572  0.24346295  1
  Cu  Cu113  1  0.16548390  0.83209624  0.24715244  1
  Cu  Cu114  1  0.66374064  0.66552641  0.50182013  1
  Se  Se115  1  0.07105878  0.07912861  0.05760615  1
  Se  Se116  1  0.08840524  0.08574358  0.55408007  1
  Se  Se117  1  0.09235124  0.42022497  0.04566725  1
  Se  Se118  1  0.07312727  0.41121469  0.56621096  1
  Se  Se119  1  0.08308200  0.74920408  0.04852522  1
  Se  Se120  1  0.08631193  0.74852706  0.55875407  1
  Se  Se121  1  0.40046817  0.06929551  0.05954435  1
  Se  Se122  1  0.41955194  0.09009918  0.55155359  1
  Se  Se123  1  0.41517138  0.39847480  0.06295719  1
  Se  Se124  1  0.41870875  0.42454224  0.55153084  1
  Se  Se125  1  0.41561332  0.73884483  0.05047102  1
  Se  Se126  1  0.41885970  0.75554411  0.55520853  1
  Se  Se127  1  0.73152442  0.08093949  0.06191263  1
  Se  Se128  1  0.75913926  0.07691085  0.54317599  1
  Se  Se129  1  0.75036088  0.42192604  0.06411510  1
  Se  Se130  1  0.74768212  0.41712227  0.55232315  1
  Se  Se131  1  0.74674782  0.75293005  0.06279599  1
  Se  Se132  1  0.74954765  0.74662053  0.55581982  1
  Se  Se133  1  0.25343376  0.24586925  0.05758421  1
  Se  Se134  1  0.25048980  0.25550021  0.54915753  1
  Se  Se135  1  0.25693540  0.57191893  0.04675796  1
  Se  Se136  1  0.25618146  0.59586140  0.56359489  1
  Se  Se137  1  0.22903369  0.90247018  0.04674467  1
  Se  Se138  1  0.24946877  0.91777995  0.55455272  1
  Se  Se139  1  0.58385136  0.25850601  0.07057702  1
  Se  Se140  1  0.58150552  0.24997349  0.55279485  1
  Se  Se141  1  0.59506429  0.58952835  0.05990501  1
  Se  Se142  1  0.57730223  0.58252429  0.55269837  1
  Se  Se143  1  0.57903046  0.91086881  0.05186921  1
  Se  Se144  1  0.59184741  0.92216465  0.54367401  1
  Se  Se145  1  0.92706207  0.26946682  0.05702350  1
  Se  Se146  1  0.91408458  0.24408608  0.55175217  1
  Se  Se147  1  0.92904686  0.59440424  0.05566160  1
  Se  Se148  1  0.91321629  0.58052871  0.55716775  1
  Se  Se149  1  0.91900691  0.92661628  0.05934144  1
  Se  Se150  1  0.92220412  0.91010937  0.55700868  1
  Se  Se151  1  0.08581218  0.25150397  0.44990643  1
  Se  Se152  1  0.07632353  0.25120293  0.93203907  1
  Se  Se153  1  0.07747266  0.58951248  0.44144401  1
  Se  Se154  1  0.08947798  0.57854968  0.94049406  1
  Se  Se155  1  0.08905494  0.91141423  0.44869425  1
  Se  Se156  1  0.07571674  0.91863158  0.93736228  1
  Se  Se157  1  0.41753423  0.25918850  0.44431222  1
  Se  Se158  1  0.41773977  0.24887583  0.94026715  1
  Se  Se159  1  0.41442856  0.58532552  0.45023737  1
  Se  Se160  1  0.42313454  0.58431556  0.93027475  1
  Se  Se161  1  0.41434791  0.91625325  0.45374725  1
  Se  Se162  1  0.42112730  0.91797517  0.94978658  1
  Se  Se163  1  0.74960893  0.25042194  0.45194198  1
  Se  Se164  1  0.74232388  0.26142665  0.94970946  1
  Se  Se165  1  0.74649910  0.58064182  0.44714898  1
  Se  Se166  1  0.74481851  0.59677708  0.94435512  1
  Se  Se167  1  0.77276311  0.88275313  0.44373605  1
  Se  Se168  1  0.74410480  0.93248846  0.94119559  1
  Se  Se169  1  0.24819185  0.08821225  0.44993919  1
  Se  Se170  1  0.26343070  0.06665216  0.94079144  1
  Se  Se171  1  0.24923434  0.42026616  0.44003733  1
  Se  Se172  1  0.25478075  0.41060110  0.94247451  1
  Se  Se173  1  0.24697712  0.75617292  0.44905884  1
  Se  Se174  1  0.25798993  0.74361639  0.93919262  1
  Se  Se175  1  0.58925095  0.08212609  0.45453094  1
  Se  Se176  1  0.58870145  0.08441475  0.93894465  1
  Se  Se177  1  0.58132609  0.41893652  0.44273467  1
  Se  Se178  1  0.58973948  0.41258731  0.94771521  1
  Se  Se179  1  0.58127109  0.75247720  0.45020099  1
  Se  Se180  1  0.58596946  0.75248092  0.94281090  1
  Se  Se181  1  0.92609026  0.06711613  0.44518181  1
  Se  Se182  1  0.91324749  0.08300371  0.93682635  1
  Se  Se183  1  0.91712340  0.42165710  0.45348072  1
  Se  Se184  1  0.92480613  0.41448333  0.93048210  1
  Se  Se185  1  0.92222060  0.74633716  0.45063223  1
  Se  Se186  1  0.92548284  0.74378430  0.93939419  1
  Se  Se187  1  0.25253955  0.25430812  0.30427923  1
  Se  Se188  1  0.25255227  0.24843111  0.79944514  1
  Se  Se189  1  0.24689347  0.57920752  0.30906937  1
  Se  Se190  1  0.24915235  0.58129743  0.79899697  1
  Se  Se191  1  0.24431030  0.91461134  0.30541702  1
  Se  Se192  1  0.25233905  0.91001504  0.81082436  1
  Se  Se193  1  0.59105463  0.25560901  0.30547104  1
  Se  Se194  1  0.57850137  0.24847959  0.80605101  1
  Se  Se195  1  0.58026552  0.58289956  0.30373531  1
  Se  Se196  1  0.58887199  0.58734253  0.79723565  1
  Se  Se197  1  0.57968248  0.91273400  0.30902915  1
  Se  Se198  1  0.58794005  0.92172587  0.79907953  1
  Se  Se199  1  0.90874283  0.24768738  0.31700777  1
  Se  Se200  1  0.91162949  0.24784659  0.79494860  1
  Se  Se201  1  0.91349140  0.58559586  0.31441740  1
  Se  Se202  1  0.90994338  0.57987954  0.80045224  1
  Se  Se203  1  0.89617220  0.91369586  0.31735576  1
  Se  Se204  1  0.91647738  0.91740859  0.79522024  1
  Se  Se205  1  0.09053360  0.08924085  0.31009362  1
  Se  Se206  1  0.08360262  0.07802667  0.79593068  1
  Se  Se207  1  0.09061858  0.42446199  0.30321616  1
  Se  Se208  1  0.08170524  0.41028428  0.79602410  1
  Se  Se209  1  0.08370984  0.75702073  0.30780741  1
  Se  Se210  1  0.08465930  0.74702668  0.80218393  1
  Se  Se211  1  0.42422029  0.08293378  0.32715415  1
  Se  Se212  1  0.43043439  0.09099657  0.80622745  1
  Se  Se213  1  0.41500418  0.41446948  0.29968850  1
  Se  Se214  1  0.41589888  0.41739707  0.80087995  1
  Se  Se215  1  0.41769928  0.74928639  0.31729682  1
  Se  Se216  1  0.41855329  0.75371981  0.79622759  1
  Se  Se217  1  0.74914317  0.07995712  0.32602188  1
  Se  Se218  1  0.74464257  0.08541449  0.79765282  1
  Se  Se219  1  0.75390125  0.41814575  0.30725629  1
  Se  Se220  1  0.74719924  0.42091148  0.81305713  1
  Se  Se221  1  0.74138711  0.74295772  0.30459736  1
  Se  Se222  1  0.75020445  0.75656188  0.80397996  1
  Se  Se223  1  0.24662068  0.08217634  0.19214093  1
  Se  Se224  1  0.24816103  0.08938546  0.68535067  1
  Se  Se225  1  0.25624142  0.40980975  0.19418754  1
  Se  Se226  1  0.25383115  0.41233579  0.69396536  1
  Se  Se227  1  0.24506803  0.75368642  0.18743797  1
  Se  Se228  1  0.25658506  0.74864645  0.69977626  1
  Se  Se229  1  0.55575045  0.08198505  0.19852026  1
  Se  Se230  1  0.58900584  0.08344533  0.68844924  1
  Se  Se231  1  0.60953713  0.39762773  0.20465754  1
  Se  Se232  1  0.57509990  0.42687783  0.68761700  1
  Se  Se233  1  0.58373279  0.74762074  0.19999225  1
  Se  Se234  1  0.58659842  0.75088242  0.68998002  1
  Se  Se235  1  0.90063333  0.09145977  0.19604683  1
  Se  Se236  1  0.91726088  0.07809666  0.69020180  1
  Se  Se237  1  0.91009622  0.43267613  0.19211392  1
  Se  Se238  1  0.91059623  0.40916801  0.69765776  1
  Se  Se239  1  0.90584998  0.76727474  0.19523464  1
  Se  Se240  1  0.91642339  0.74457414  0.69673085  1
  Se  Se241  1  0.09252840  0.24254953  0.19097661  1
  Se  Se242  1  0.07989812  0.24803846  0.69317294  1
  Se  Se243  1  0.09874846  0.58163420  0.18565172  1
  Se  Se244  1  0.07998150  0.58235040  0.69989374  1
  Se  Se245  1  0.08017497  0.91498640  0.19414425  1
  Se  Se246  1  0.08510416  0.91317183  0.69856500  1
  Se  Se247  1  0.42056437  0.23896698  0.20956030  1
  Se  Se248  1  0.41760834  0.25359007  0.69393190  1
  Se  Se249  1  0.43271371  0.56970842  0.19083963  1
  Se  Se250  1  0.41399579  0.58890929  0.69569481  1
  Se  Se251  1  0.41501306  0.89552863  0.19150917  1
  Se  Se252  1  0.42670502  0.91659618  0.68410940  1
  Se  Se253  1  0.75204235  0.24207812  0.20230852  1
  Se  Se254  1  0.75234397  0.23848898  0.67962317  1
  Se  Se255  1  0.75182493  0.59238446  0.19881081  1
  Se  Se256  1  0.74626475  0.58248812  0.69684933  1
  Se  Se257  1  0.73600735  0.92441044  0.20294214  1
  Se  Se258  1  0.74802668  0.91693682  0.68856742  1
