# generated using pymatgen
data_In86Cu29Se144
_symmetry_space_group_name_H-M   'P 1'
_cell_length_a   17.58922169
_cell_length_b   17.58732577
_cell_length_c   23.44664660
_cell_angle_alpha   89.96303563
_cell_angle_beta   89.95132151
_cell_angle_gamma   90.01184409
_symmetry_Int_Tables_number   1
_chemical_formula_structural   In86Cu29Se144
_chemical_formula_sum   'In86 Cu29 Se144'
_cell_volume   7253.15422299
_cell_formula_units_Z   1
loop_
 _symmetry_equiv_pos_site_id
 _symmetry_equiv_pos_as_xyz
  1  'x, y, z'
loop_
 _atom_site_type_symbol
 _atom_site_label
 _atom_site_symmetry_multiplicity
 _atom_site_fract_x
 _atom_site_fract_y
 _atom_site_fract_z
 _atom_site_occupancy
  In  In0  1  -0.00811689  0.16389740  0.12105495  1
  In  In1  1  -0.00275472  0.19117952  0.61698977  1
  In  In2  1  0.01165509  0.50082940  0.13469673  1
  In  In3  1  -0.00480372  0.48940771  0.61243451  1
  In  In4  1  0.01716747  0.82942814  0.13975487  1
  In  In5  1  -0.00469940  0.83986453  0.62162519  1
  In  In6  1  0.32296622  0.17741295  0.12229451  1
  In  In7  1  0.34080104  0.16410841  0.62904585  1
  In  In8  1  0.34877812  0.50421045  0.12825592  1
  In  In9  1  0.33035475  0.49662934  0.62605258  1
  In  In10  1  0.31145456  0.84911734  0.14352789  1
  In  In11  1  0.33224306  0.83610642  0.63426426  1
  In  In12  1  0.67757375  0.15967179  0.13443138  1
  In  In13  1  0.65879497  0.16951811  0.61412779  1
  In  In14  1  0.64873142  0.50189526  0.13110502  1
  In  In15  1  0.66829237  0.50544939  0.61689446  1
  In  In16  1  0.67407350  0.83787807  0.13249664  1
  In  In17  1  0.66867090  0.82479982  0.62425390  1
  In  In18  1  0.16372960  -0.00492408  0.35481779  1
  In  In19  1  0.17348081  -0.01207697  0.88526568  1
  In  In20  1  0.17174041  0.33673077  0.38291521  1
  In  In21  1  0.15701141  0.32630231  0.85965261  1
  In  In22  1  0.15943489  0.66282923  0.36734964  1
  In  In23  1  0.18052901  0.66496253  0.87796058  1
  In  In24  1  0.51840249  0.02778415  0.35015318  1
  In  In25  1  0.50165738  -0.00190976  0.86731619  1
  In  In26  1  0.51318028  0.32270664  0.39354783  1
  In  In27  1  0.50025713  0.35059469  0.87548301  1
  In  In28  1  0.48674286  0.65795653  0.37468961  1
  In  In29  1  0.48930597  0.65550962  0.86753090  1
  In  In30  1  0.82943599  0.00207238  0.37819164  1
  In  In31  1  0.83589666  0.01094069  0.87029206  1
  In  In32  1  0.81588270  0.35277294  0.40004021  1
  In  In33  1  0.83381858  0.31801679  0.87040582  1
  In  In34  1  0.84447168  0.65354124  0.38018464  1
  In  In35  1  0.83261297  0.67553074  0.86884888  1
  In  In36  1  -0.00487039  0.15770069  0.37483894  1
  In  In37  1  -0.00564590  0.16734941  0.87568195  1
  In  In38  1  -0.01296007  0.50970897  0.38724842  1
  In  In39  1  0.01835009  0.49378100  0.86675297  1
  In  In40  1  -0.00283059  0.82362934  0.36628770  1
  In  In41  1  -0.00451369  0.84746263  0.88098232  1
  In  In42  1  0.34321720  0.16808891  0.37273182  1
  In  In43  1  0.32560846  0.15464312  0.87016694  1
  In  In44  1  0.32917232  0.50151471  0.38861754  1
  In  In45  1  0.33279032  0.51239131  0.86343741  1
  In  In46  1  0.32786830  0.83731961  0.36247049  1
  In  In47  1  0.33071361  0.82485795  0.87398796  1
  In  In48  1  0.66882492  0.17095487  0.38029715  1
  In  In49  1  0.68263943  0.16619411  0.87283463  1
  In  In50  1  0.67101750  0.48692071  0.38575384  1
  In  In51  1  0.65143066  0.49333490  0.87215094  1
  In  In52  1  0.66801185  0.84772775  0.37207202  1
  In  In53  1  0.66551938  0.83146015  0.86508637  1
  In  In54  1  0.16285699  0.00478072  0.12560589  1
  In  In55  1  0.17550678  0.00643523  0.62606600  1
  In  In56  1  0.17848104  0.33340480  0.12015370  1
  In  In57  1  0.15370024  0.34920656  0.64477992  1
  In  In58  1  0.16370895  0.67572694  0.13808586  1
  In  In59  1  0.18280089  0.66156029  0.63302268  1
  In  In60  1  0.50545402  0.00619817  0.13728898  1
  In  In61  1  0.49739384  0.00917690  0.62569309  1
  In  In62  1  0.50001400  0.34574352  0.12993531  1
  In  In63  1  0.49629888  0.32380142  0.61406454  1
  In  In64  1  0.48769447  0.64734481  0.12595778  1
  In  In65  1  0.50047258  0.66191679  0.62921127  1
  In  In66  1  0.83078676  0.01175375  0.13436305  1
  In  In67  1  0.82507461  -0.00952323  0.61310340  1
  In  In68  1  0.84057439  0.32155115  0.12710826  1
  In  In69  1  0.83636938  0.34890406  0.59807338  1
  In  In70  1  0.83376156  0.67932339  0.13208124  1
  In  In71  1  0.82256849  0.65274380  0.61345951  1
  In  In72  1  0.49527912  0.83640723  0.48693135  1
  In  In73  1  0.16812528  0.16888680  0.50078343  1
  In  In74  1  0.34342909  0.33655569  0.25310798  1
  In  In75  1  0.17155626  0.49650907  -0.00565980  1
  In  In76  1  0.83344208  0.49689343  0.00175233  1
  In  In77  1  0.83515316  0.84274683  0.01062601  1
  In  In78  1  0.16479784  0.82882809  0.49574998  1
  In  In79  1  -0.00073093  0.00363704  0.74787631  1
  In  In80  1  -0.00105448  0.66261575  0.75059213  1
  In  In81  1  -0.00831454  0.33756539  0.25647839  1
  In  In82  1  0.49990146  0.16802708  0.00424832  1
  In  In83  1  0.66631090  0.32915719  0.74118577  1
  In  In84  1  0.49837056  0.83043625  0.00697582  1
  In  In85  1  0.66728922  0.66214347  0.25675928  1
  Cu  Cu86  1  0.65758131  0.65898915  -0.00332356  1
  Cu  Cu87  1  0.32601623  -0.00456673  0.00336557  1
  Cu  Cu88  1  0.50315638  0.83821914  0.74732703  1
  Cu  Cu89  1  0.00423817  0.67267828  0.01166278  1
  Cu  Cu90  1  0.33325719  0.66593673  -0.00125919  1
  Cu  Cu91  1  0.66039435  0.00117981  0.49389078  1
  Cu  Cu92  1  0.33018046  0.33517704  0.50592442  1
  Cu  Cu93  1  0.66734162  0.33243146  -0.00250623  1
  Cu  Cu94  1  0.83219547  0.49395154  0.73661168  1
  Cu  Cu95  1  -0.00367343  -0.00214115  0.49730972  1
  Cu  Cu96  1  0.17557126  0.16196013  0.74825585  1
  Cu  Cu97  1  0.50123520  0.82928725  0.25273292  1
  Cu  Cu98  1  0.33877035  0.00552722  0.49483896  1
  Cu  Cu99  1  0.82019891  0.82817011  0.74019968  1
  Cu  Cu100  1  0.67600593  0.00747163  0.00310835  1
  Cu  Cu101  1  0.67033894  0.67003763  0.49940021  1
  Cu  Cu102  1  0.00031460  0.32544028  -0.00622192  1
  Cu  Cu103  1  0.33296482  0.33318301  -0.00276819  1
  Cu  Cu104  1  0.83979086  0.84043296  0.25284547  1
  Cu  Cu105  1  0.00607510  0.00627460  0.00374718  1
  Cu  Cu106  1  0.82588848  0.17256282  0.25702227  1
  Cu  Cu107  1  0.33499671  0.66173070  0.50413986  1
  Cu  Cu108  1  0.16399428  0.16730624  0.24418298  1
  Cu  Cu109  1  0.17215339  0.83147460  0.75814493  1
  Cu  Cu110  1  0.00223129  0.66732207  0.49663107  1
  Cu  Cu111  1  0.50429691  0.16793639  0.74557145  1
  Cu  Cu112  1  0.49537684  0.50421878  0.74653410  1
  Cu  Cu113  1  0.83325915  0.16516424  0.74354361  1
  Cu  Cu114  1  0.16851626  0.50786251  0.25719529  1
  Se  Se115  1  0.08728920  0.09344318  0.05462652  1
  Se  Se116  1  0.07477579  0.07553782  0.56062568  1
  Se  Se117  1  0.07472509  0.40958303  0.05532978  1
  Se  Se118  1  0.08822691  0.40352479  0.55579172  1
  Se  Se119  1  0.09019076  0.75363539  0.06110599  1
  Se  Se120  1  0.08072216  0.74072141  0.56328811  1
  Se  Se121  1  0.41021935  0.07397385  0.06143622  1
  Se  Se122  1  0.41762361  0.08741941  0.55201573  1
  Se  Se123  1  0.41332926  0.41281588  0.05495546  1
  Se  Se124  1  0.41666667  0.42041939  0.55450673  1
  Se  Se125  1  0.40521952  0.74546258  0.06519290  1
  Se  Se126  1  0.41093676  0.75283317  0.55809409  1
  Se  Se127  1  0.75781860  0.08988293  0.05650205  1
  Se  Se128  1  0.74372371  0.08073493  0.55033093  1
  Se  Se129  1  0.74366091  0.41099645  0.06315741  1
  Se  Se130  1  0.72671274  0.41250835  0.54238811  1
  Se  Se131  1  0.73674912  0.74166865  0.05585663  1
  Se  Se132  1  0.75399798  0.75436922  0.55041355  1
  Se  Se133  1  0.24551520  0.24943394  0.04461552  1
  Se  Se134  1  0.25064157  0.25454718  0.56731490  1
  Se  Se135  1  0.25329112  0.58396302  0.06075735  1
  Se  Se136  1  0.24785604  0.58085126  0.55534944  1
  Se  Se137  1  0.24369835  0.91385405  0.05833274  1
  Se  Se138  1  0.25901680  0.92236263  0.55342646  1
  Se  Se139  1  0.59116287  0.25487228  0.06347136  1
  Se  Se140  1  0.59047597  0.26052818  0.54364778  1
  Se  Se141  1  0.57682225  0.57868265  0.05288463  1
  Se  Se142  1  0.58192544  0.59252524  0.55310554  1
  Se  Se143  1  0.59377050  0.92661161  0.06011144  1
  Se  Se144  1  0.58222167  0.91806282  0.55549431  1
  Se  Se145  1  0.91413299  0.24837993  0.04908955  1
  Se  Se146  1  0.89959278  0.23695274  0.54361347  1
  Se  Se147  1  0.92240209  0.58821626  0.06451324  1
  Se  Se148  1  0.91688169  0.58130065  0.54778386  1
  Se  Se149  1  0.92800410  0.92770175  0.06875760  1
  Se  Se150  1  0.91449384  0.90972920  0.54700444  1
  Se  Se151  1  0.07362615  0.25376114  0.44198927  1
  Se  Se152  1  0.08670851  0.24837540  0.93863959  1
  Se  Se153  1  0.08943848  0.58560025  0.44579198  1
  Se  Se154  1  0.07371518  0.59228571  0.94373389  1
  Se  Se155  1  0.08109360  0.92443331  0.43710123  1
  Se  Se156  1  0.08225475  0.91371716  0.95368639  1
  Se  Se157  1  0.40822861  0.24798926  0.45146043  1
  Se  Se158  1  0.41429319  0.25284168  0.93718642  1
  Se  Se159  1  0.42266477  0.57901052  0.45485705  1
  Se  Se160  1  0.41168000  0.58012267  0.94342511  1
  Se  Se161  1  0.41182925  0.92997351  0.42755669  1
  Se  Se162  1  0.41395217  0.92287118  0.94349428  1
  Se  Se163  1  0.76211160  0.23506099  0.45186339  1
  Se  Se164  1  0.75297599  0.24944553  0.94761982  1
  Se  Se165  1  0.75139563  0.58254717  0.44749082  1
  Se  Se166  1  0.74607656  0.58726348  0.93777576  1
  Se  Se167  1  0.74852581  0.91558893  0.44854979  1
  Se  Se168  1  0.74633485  0.92138063  0.93974171  1
  Se  Se169  1  0.24648677  0.07433783  0.43548795  1
  Se  Se170  1  0.24921347  0.08366189  0.94894547  1
  Se  Se171  1  0.24428179  0.41866422  0.45613436  1
  Se  Se172  1  0.25544569  0.40779910  0.93104627  1
  Se  Se173  1  0.26108828  0.74306833  0.43966885  1
  Se  Se174  1  0.24947521  0.75311921  0.95011574  1
  Se  Se175  1  0.57508967  0.08353391  0.44259846  1
  Se  Se176  1  0.59031813  0.07929096  0.94106055  1
  Se  Se177  1  0.59592364  0.40593178  0.46215729  1
  Se  Se178  1  0.58151355  0.41963212  0.95222679  1
  Se  Se179  1  0.59092117  0.74273222  0.43381440  1
  Se  Se180  1  0.58352680  0.74580457  0.93837599  1
  Se  Se181  1  0.91300705  0.08373204  0.44845280  1
  Se  Se182  1  0.91768847  0.07971941  0.94573105  1
  Se  Se183  1  0.92658875  0.41313930  0.45619300  1
  Se  Se184  1  0.92415775  0.41252364  0.93559520  1
  Se  Se185  1  0.91965925  0.75135188  0.44379721  1
  Se  Se186  1  0.91932862  0.74495197  0.94821167  1
  Se  Se187  1  0.24113093  0.24748187  0.30683054  1
  Se  Se188  1  0.25636418  0.24800866  0.80125226  1
  Se  Se189  1  0.25903470  0.58162747  0.31099817  1
  Se  Se190  1  0.23023461  0.57658187  0.80075341  1
  Se  Se191  1  0.24430669  0.90963905  0.29004044  1
  Se  Se192  1  0.25444522  0.91890598  0.80832720  1
  Se  Se193  1  0.57011809  0.23872245  0.31440264  1
  Se  Se194  1  0.57937097  0.24631642  0.81205537  1
  Se  Se195  1  0.58078595  0.57025002  0.31562151  1
  Se  Se196  1  0.58381146  0.58244623  0.80076232  1
  Se  Se197  1  0.58787965  0.91760060  0.29634334  1
  Se  Se198  1  0.58881264  0.92112892  0.79925298  1
  Se  Se199  1  0.90329545  0.25237947  0.31908193  1
  Se  Se200  1  0.91854949  0.24498128  0.79864283  1
  Se  Se201  1  0.92839934  0.58759550  0.30496610  1
  Se  Se202  1  0.90597184  0.56834191  0.80778045  1
  Se  Se203  1  0.91870075  0.92395177  0.30890133  1
  Se  Se204  1  0.90387207  0.90622559  0.80127378  1
  Se  Se205  1  0.07768013  0.08942461  0.29860478  1
  Se  Se206  1  0.09339760  0.08297405  0.81106185  1
  Se  Se207  1  0.08886663  0.42332982  0.31416755  1
  Se  Se208  1  0.07859733  0.41093462  0.79070793  1
  Se  Se209  1  0.10557460  0.76984162  0.30423137  1
  Se  Se210  1  0.08161883  0.75833099  0.81459990  1
  Se  Se211  1  0.39731015  0.07420762  0.29971799  1
  Se  Se212  1  0.42127130  0.08557775  0.80237666  1
  Se  Se213  1  0.42295505  0.41395672  0.32650729  1
  Se  Se214  1  0.41607777  0.41921910  0.80197997  1
  Se  Se215  1  0.41715578  0.74695583  0.30427674  1
  Se  Se216  1  0.42044790  0.75460058  0.80360850  1
  Se  Se217  1  0.74620353  0.08326270  0.30845164  1
  Se  Se218  1  0.75041137  0.08194511  0.79704621  1
  Se  Se219  1  0.75729400  0.41811639  0.31290969  1
  Se  Se220  1  0.75502321  0.41944418  0.80617638  1
  Se  Se221  1  0.75990033  0.75551809  0.31192321  1
  Se  Se222  1  0.74381287  0.74278508  0.79756607  1
  Se  Se223  1  0.25150364  0.08863448  0.19174467  1
  Se  Se224  1  0.25951454  0.07704770  0.69822656  1
  Se  Se225  1  0.24440220  0.42560699  0.19453831  1
  Se  Se226  1  0.26823081  0.40249642  0.69801519  1
  Se  Se227  1  0.28060653  0.72222337  0.19309148  1
  Se  Se228  1  0.25470015  0.74939635  0.70324861  1
  Se  Se229  1  0.58773020  0.08793695  0.20262034  1
  Se  Se230  1  0.58856717  0.08827940  0.69139680  1
  Se  Se231  1  0.58307887  0.41476223  0.20338364  1
  Se  Se232  1  0.57537195  0.42294120  0.68648199  1
  Se  Se233  1  0.57817220  0.74869494  0.18909671  1
  Se  Se234  1  0.58210129  0.74993028  0.69449531  1
  Se  Se235  1  0.91491198  0.09612192  0.20118878  1
  Se  Se236  1  0.91359466  0.08644226  0.68089078  1
  Se  Se237  1  0.90629100  0.42788504  0.19249881  1
  Se  Se238  1  0.91032340  0.40927769  0.68294791  1
  Se  Se239  1  0.92006332  0.75198563  0.20149632  1
  Se  Se240  1  0.90937270  0.74967982  0.68671309  1
  Se  Se241  1  0.08576136  0.25556803  0.18908570  1
  Se  Se242  1  0.08335099  0.23958906  0.69881601  1
  Se  Se243  1  0.08191542  0.58874742  0.20468632  1
  Se  Se244  1  0.08110590  0.57520914  0.68593235  1
  Se  Se245  1  0.07756632  0.93454984  0.19956770  1
  Se  Se246  1  0.09379014  0.90741607  0.69319011  1
  Se  Se247  1  0.42445938  0.24114161  0.19073242  1
  Se  Se248  1  0.42234923  0.25341720  0.69451270  1
  Se  Se249  1  0.42627280  0.57003267  0.20687395  1
  Se  Se250  1  0.40870762  0.58706171  0.69532489  1
  Se  Se251  1  0.42172587  0.91523533  0.19786714  1
  Se  Se252  1  0.41920488  0.92227933  0.69523715  1
  Se  Se253  1  0.74959283  0.25718282  0.19928601  1
  Se  Se254  1  0.76007762  0.24806982  0.68015234  1
  Se  Se255  1  0.75589544  0.57804207  0.19072250  1
  Se  Se256  1  0.74648372  0.58204968  0.69258332  1
  Se  Se257  1  0.75226865  0.92097266  0.20085509  1
  Se  Se258  1  0.74428360  0.91998599  0.68991145  1
