# generated using pymatgen
data_In86Cu29Se144
_symmetry_space_group_name_H-M   'P 1'
_cell_length_a   17.59529304
_cell_length_b   17.59594935
_cell_length_c   23.46061834
_cell_angle_alpha   90.00991486
_cell_angle_beta   90.01006916
_cell_angle_gamma   90.00829833
_symmetry_Int_Tables_number   1
_chemical_formula_structural   In86Cu29Se144
_chemical_formula_sum   'In86 Cu29 Se144'
_cell_volume   7263.54521162
_cell_formula_units_Z   1
loop_
 _symmetry_equiv_pos_site_id
 _symmetry_equiv_pos_as_xyz
  1  'x, y, z'
loop_
 _atom_site_type_symbol
 _atom_site_label
 _atom_site_symmetry_multiplicity
 _atom_site_fract_x
 _atom_site_fract_y
 _atom_site_fract_z
 _atom_site_occupancy
  In  In0  1  -0.00101477  0.17030610  0.11338576  1
  In  In1  1  -0.01182605  0.18220225  0.63599668  1
  In  In2  1  -0.00425286  0.49337702  0.11749649  1
  In  In3  1  -0.00439988  0.49449926  0.62384530  1
  In  In4  1  -0.00949674  0.84354908  0.11901078  1
  In  In5  1  -0.00968947  0.85043777  0.63617633  1
  In  In6  1  0.32716002  0.17484470  0.13263752  1
  In  In7  1  0.35493933  0.16524529  0.61692042  1
  In  In8  1  0.33319366  0.48277820  0.11162725  1
  In  In9  1  0.33694087  0.49782080  0.61604986  1
  In  In10  1  0.34621470  0.82888213  0.13004444  1
  In  In11  1  0.33824318  0.83745884  0.61895717  1
  In  In12  1  0.66774611  0.16248761  0.13147298  1
  In  In13  1  0.66971189  0.16780927  0.62662162  1
  In  In14  1  0.65118156  0.48542573  0.11191147  1
  In  In15  1  0.66846957  0.49451503  0.61930321  1
  In  In16  1  0.67648455  0.84326225  0.12048314  1
  In  In17  1  0.68055636  0.85075293  0.61980407  1
  In  In18  1  0.17500151  -0.00704813  0.36955954  1
  In  In19  1  0.16435719  0.01402558  0.87778649  1
  In  In20  1  0.18240186  0.33070072  0.37344745  1
  In  In21  1  0.14807594  0.34856033  0.88546214  1
  In  In22  1  0.15831171  0.66488107  0.37605567  1
  In  In23  1  0.16050508  0.64906430  0.87481415  1
  In  In24  1  0.50212031  -0.00050598  0.37441281  1
  In  In25  1  0.50110335  -0.00686186  0.87630249  1
  In  In26  1  0.50282357  0.33007736  0.37399891  1
  In  In27  1  0.51404153  0.32827438  0.88070541  1
  In  In28  1  0.50398924  0.66315402  0.38254866  1
  In  In29  1  0.50714226  0.66357322  0.87814282  1
  In  In30  1  0.81907067  0.01651792  0.38772273  1
  In  In31  1  0.82972362  0.00112631  0.86980172  1
  In  In32  1  0.81412234  0.34557682  0.39069333  1
  In  In33  1  0.83048101  0.32639476  0.87461885  1
  In  In34  1  0.83288812  0.66806332  0.38445291  1
  In  In35  1  0.82562099  0.66986202  0.88012213  1
  In  In36  1  -0.01357926  0.16080855  0.37905850  1
  In  In37  1  -0.00597096  0.16562071  0.87011250  1
  In  In38  1  -0.00132036  0.50309023  0.38418503  1
  In  In39  1  0.00545908  0.48521467  0.87618807  1
  In  In40  1  -0.00186378  0.82710852  0.37900597  1
  In  In41  1  -0.02111927  0.83835735  0.87087855  1
  In  In42  1  0.33923496  0.17191264  0.36747188  1
  In  In43  1  0.33198626  0.15945497  0.88308017  1
  In  In44  1  0.34561162  0.48703933  0.37992702  1
  In  In45  1  0.33103824  0.49112446  0.88481450  1
  In  In46  1  0.33787971  0.86114665  0.36893814  1
  In  In47  1  0.34433950  0.84138136  0.88096636  1
  In  In48  1  0.66905984  0.16775315  0.37329508  1
  In  In49  1  0.67899253  0.18193700  0.86813507  1
  In  In50  1  0.66831651  0.49166469  0.38425059  1
  In  In51  1  0.68030580  0.47861851  0.89277559  1
  In  In52  1  0.65577651  0.84564509  0.38376543  1
  In  In53  1  0.66325974  0.84106743  0.87571373  1
  In  In54  1  0.16246476  0.01237127  0.12704178  1
  In  In55  1  0.16776520  -0.00568581  0.62890982  1
  In  In56  1  0.17982412  0.33812356  0.11155132  1
  In  In57  1  0.15495322  0.33380512  0.62716531  1
  In  In58  1  0.17756302  0.65331062  0.12323272  1
  In  In59  1  0.17479145  0.66318699  0.62389960  1
  In  In60  1  0.51169402  -0.00787619  0.13389490  1
  In  In61  1  0.52464082  0.03545581  0.59940178  1
  In  In62  1  0.49889282  0.33392043  0.12791880  1
  In  In63  1  0.52130146  0.34376129  0.60788371  1
  In  In64  1  0.49707728  0.66768266  0.12109023  1
  In  In65  1  0.50103331  0.66662625  0.61754341  1
  In  In66  1  0.82984715  -0.00068717  0.11842060  1
  In  In67  1  0.82852992  0.00144652  0.62815988  1
  In  In68  1  0.81709997  0.32148040  0.10962960  1
  In  In69  1  0.82942318  0.33425214  0.62361980  1
  In  In70  1  0.82713968  0.66248313  0.11896330  1
  In  In71  1  0.83339928  0.66648335  0.62107976  1
  In  In72  1  0.16200879  0.17066019  0.49751724  1
  In  In73  1  0.33602958  0.00205401  0.74937014  1
  In  In74  1  0.33544135  0.66374444  0.76086933  1
  In  In75  1  0.49932249  0.17019919  0.00481548  1
  In  In76  1  0.66909890  0.66772312  0.25623039  1
  In  In77  1  0.33077831  0.32907408  0.75180549  1
  In  In78  1  -0.00262697  0.66854586  0.25736149  1
  In  In79  1  0.00132726  0.00202444  0.25063577  1
  In  In80  1  0.16642192  0.82893715  0.49764559  1
  In  In81  1  0.33366832  0.66434078  0.24649579  1
  In  In82  1  0.16464144  0.82731204  0.00295987  1
  In  In83  1  -0.00153464  0.66111050  0.74632815  1
  In  In84  1  -0.00098587  0.33154136  0.24723556  1
  In  In85  1  0.66370744  0.66758511  0.75613616  1
  Cu  Cu86  1  0.83245432  0.16575700  0.74881395  1
  Cu  Cu87  1  0.33360644  0.66278377  0.00300223  1
  Cu  Cu88  1  0.17206978  0.49397964  0.24581194  1
  Cu  Cu89  1  0.82762263  0.16989182  0.25071713  1
  Cu  Cu90  1  0.83303201  0.49170230  0.75206941  1
  Cu  Cu91  1  -0.00607539  0.32745669  -0.00537693  1
  Cu  Cu92  1  0.50111823  0.16270062  0.25182747  1
  Cu  Cu93  1  -0.00842545  0.00211913  -0.00518038  1
  Cu  Cu94  1  0.33306836  0.66584979  0.49779618  1
  Cu  Cu95  1  0.50004638  0.48661242  0.24872020  1
  Cu  Cu96  1  0.66760117  0.66334110  0.50209571  1
  Cu  Cu97  1  -0.00532978  0.00304422  0.50935214  1
  Cu  Cu98  1  -0.00441161  0.33770095  0.50620143  1
  Cu  Cu99  1  -0.00300230  0.66190525  -0.00673467  1
  Cu  Cu100  1  0.33770949  -0.00109852  0.00481954  1
  Cu  Cu101  1  0.82149396  0.48986480  0.25136746  1
  Cu  Cu102  1  0.50371644  0.83597628  0.25339390  1
  Cu  Cu103  1  0.66916536  -0.00001363  0.49921646  1
  Cu  Cu104  1  0.17426059  0.17054593  0.24705225  1
  Cu  Cu105  1  0.16327843  0.16639425  0.75222652  1
  Cu  Cu106  1  0.51187764  0.17135032  0.74544458  1
  Cu  Cu107  1  0.66465258  0.67643757  -0.00036088  1
  Cu  Cu108  1  0.16269657  0.83194382  0.75088433  1
  Cu  Cu109  1  0.50514073  0.49163323  0.74483867  1
  Cu  Cu110  1  0.33528768  0.33411444  0.49489714  1
  Cu  Cu111  1  0.50917558  0.84553028  0.74389510  1
  Cu  Cu112  1  0.66670349  0.00431986  -0.00022017  1
  Cu  Cu113  1  0.00068735  0.66620941  0.50424631  1
  Cu  Cu114  1  0.83226579  0.84422886  0.24987313  1
  Se  Se115  1  0.07933008  0.07801975  0.05043970  1
  Se  Se116  1  0.07847199  0.08359465  0.56553879  1
  Se  Se117  1  0.07762059  0.40896291  0.05120588  1
  Se  Se118  1  0.08548711  0.41900717  0.55354665  1
  Se  Se119  1  0.07323637  0.73641878  0.06235982  1
  Se  Se120  1  0.07538531  0.75046968  0.56699225  1
  Se  Se121  1  0.41638988  0.07670072  0.06755304  1
  Se  Se122  1  0.40138828  0.06720242  0.54512253  1
  Se  Se123  1  0.43922838  0.42309566  0.05116412  1
  Se  Se124  1  0.42025797  0.41700144  0.54831046  1
  Se  Se125  1  0.41510067  0.75108969  0.05215318  1
  Se  Se126  1  0.41467807  0.74955171  0.55215906  1
  Se  Se127  1  0.74718585  0.08791123  0.05511075  1
  Se  Se128  1  0.74994652  0.08318190  0.55605970  1
  Se  Se129  1  0.76685113  0.43803749  0.05528853  1
  Se  Se130  1  0.74919818  0.41247710  0.55144223  1
  Se  Se131  1  0.75321928  0.75469665  0.05290010  1
  Se  Se132  1  0.74823936  0.74920334  0.55557922  1
  Se  Se133  1  0.24489962  0.23286835  0.05303195  1
  Se  Se134  1  0.25649613  0.25667235  0.55988046  1
  Se  Se135  1  0.24926772  0.57438350  0.04898146  1
  Se  Se136  1  0.25042787  0.58323040  0.55141408  1
  Se  Se137  1  0.25416789  0.91776369  0.06294020  1
  Se  Se138  1  0.25398720  0.92716185  0.55170029  1
  Se  Se139  1  0.59523861  0.25674785  0.05974580  1
  Se  Se140  1  0.56148217  0.21933858  0.55922993  1
  Se  Se141  1  0.58349370  0.59110380  0.05300507  1
  Se  Se142  1  0.58323302  0.57977212  0.55373966  1
  Se  Se143  1  0.58458201  0.91935293  0.05401046  1
  Se  Se144  1  0.58357960  0.91528143  0.55130630  1
  Se  Se145  1  0.90906997  0.24331849  0.04563098  1
  Se  Se146  1  0.91506329  0.24918201  0.55518319  1
  Se  Se147  1  0.91569765  0.58307871  0.05325419  1
  Se  Se148  1  0.91664558  0.58151573  0.55577029  1
  Se  Se149  1  0.90911389  0.91648677  0.04657372  1
  Se  Se150  1  0.91177384  0.91548556  0.55769233  1
  Se  Se151  1  0.07164189  0.26305821  0.43722893  1
  Se  Se152  1  0.07903304  0.24274701  0.94279074  1
  Se  Se153  1  0.08557979  0.58515449  0.45055928  1
  Se  Se154  1  0.08179981  0.57408700  0.94772722  1
  Se  Se155  1  0.07485419  0.92913531  0.44385530  1
  Se  Se156  1  0.07777403  0.91751895  0.94047779  1
  Se  Se157  1  0.41582028  0.24757402  0.44290012  1
  Se  Se158  1  0.40794453  0.25877845  0.94464332  1
  Se  Se159  1  0.41742275  0.58027513  0.44708037  1
  Se  Se160  1  0.41465699  0.58643270  0.94229723  1
  Se  Se161  1  0.43111961  0.90617130  0.44377928  1
  Se  Se162  1  0.42386847  0.91789929  0.95322188  1
  Se  Se163  1  0.76322053  0.23089712  0.44519863  1
  Se  Se164  1  0.74164098  0.25822632  0.94770180  1
  Se  Se165  1  0.75140370  0.58092677  0.44838827  1
  Se  Se166  1  0.74620182  0.58782428  0.94924698  1
  Se  Se167  1  0.75494662  0.91190788  0.44981959  1
  Se  Se168  1  0.74866228  0.92131863  0.94373144  1
  Se  Se169  1  0.25219823  0.08243746  0.43800193  1
  Se  Se170  1  0.25092336  0.07862478  0.95324461  1
  Se  Se171  1  0.24708692  0.41856662  0.44728899  1
  Se  Se172  1  0.24970812  0.40816908  0.95078310  1
  Se  Se173  1  0.26016467  0.74746809  0.43357690  1
  Se  Se174  1  0.25513234  0.74107610  0.93768780  1
  Se  Se175  1  0.58730278  0.08144962  0.44207241  1
  Se  Se176  1  0.58740769  0.08527538  0.93901242  1
  Se  Se177  1  0.57509603  0.41589608  0.44632919  1
  Se  Se178  1  0.56688118  0.42714049  0.95175200  1
  Se  Se179  1  0.58571575  0.74801517  0.44857764  1
  Se  Se180  1  0.58073817  0.75646875  0.94378455  1
  Se  Se181  1  0.91270919  0.08778280  0.45626965  1
  Se  Se182  1  0.91002018  0.08534406  0.94040327  1
  Se  Se183  1  0.91385890  0.42126225  0.45021465  1
  Se  Se184  1  0.91237286  0.41441547  0.94295755  1
  Se  Se185  1  0.91823706  0.75102787  0.45126502  1
  Se  Se186  1  0.91516062  0.75067614  0.94566906  1
  Se  Se187  1  0.25711073  0.25594671  0.29781052  1
  Se  Se188  1  0.24441261  0.24092376  0.81469873  1
  Se  Se189  1  0.24585765  0.57535005  0.31000807  1
  Se  Se190  1  0.24379966  0.56392850  0.80598734  1
  Se  Se191  1  0.24376995  0.91245635  0.29521626  1
  Se  Se192  1  0.24503407  0.91086150  0.81219948  1
  Se  Se193  1  0.58451694  0.24783029  0.30376633  1
  Se  Se194  1  0.58757497  0.25872584  0.80075000  1
  Se  Se195  1  0.57543132  0.57253683  0.30778283  1
  Se  Se196  1  0.58170423  0.56725312  0.81142003  1
  Se  Se197  1  0.58917259  0.92003644  0.30308983  1
  Se  Se198  1  0.58755611  0.92545152  0.80252298  1
  Se  Se199  1  0.90713847  0.24988884  0.31100801  1
  Se  Se200  1  0.91491962  0.25192940  0.80137984  1
  Se  Se201  1  0.90319325  0.57201454  0.30876476  1
  Se  Se202  1  0.90805758  0.57757421  0.81155928  1
  Se  Se203  1  0.91123458  0.91858342  0.31528278  1
  Se  Se204  1  0.91630119  0.92539548  0.79863890  1
  Se  Se205  1  0.09072571  0.09724246  0.30997241  1
  Se  Se206  1  0.08092030  0.08035411  0.80270699  1
  Se  Se207  1  0.08687902  0.42335583  0.30960961  1
  Se  Se208  1  0.08500113  0.41511692  0.80077138  1
  Se  Se209  1  0.09416086  0.76412467  0.30506469  1
  Se  Se210  1  0.08649543  0.75190467  0.81216122  1
  Se  Se211  1  0.41659095  0.07882936  0.30371555  1
  Se  Se212  1  0.42785212  0.09587046  0.80723736  1
  Se  Se213  1  0.41387868  0.40787205  0.30263618  1
  Se  Se214  1  0.42413802  0.41889323  0.80986708  1
  Se  Se215  1  0.42376968  0.75070029  0.30959603  1
  Se  Se216  1  0.43110649  0.76417140  0.80579968  1
  Se  Se217  1  0.75033583  0.08030515  0.30311802  1
  Se  Se218  1  0.74561052  0.08522602  0.80137450  1
  Se  Se219  1  0.74074466  0.41038539  0.30786522  1
  Se  Se220  1  0.74588436  0.41410551  0.80679543  1
  Se  Se221  1  0.75813793  0.76179696  0.31312419  1
  Se  Se222  1  0.75734370  0.76151510  0.80656869  1
  Se  Se223  1  0.25307284  0.07875065  0.19843461  1
  Se  Se224  1  0.24947644  0.09755606  0.68864206  1
  Se  Se225  1  0.25336629  0.41355775  0.18986032  1
  Se  Se226  1  0.24861808  0.42238437  0.68904778  1
  Se  Se227  1  0.23917882  0.75507752  0.19057544  1
  Se  Se228  1  0.25063002  0.75788709  0.69479476  1
  Se  Se229  1  0.58855929  0.08006912  0.20176290  1
  Se  Se230  1  0.58629902  0.07866215  0.69390198  1
  Se  Se231  1  0.59032275  0.41147251  0.19578388  1
  Se  Se232  1  0.58989793  0.41206050  0.69162903  1
  Se  Se233  1  0.58140084  0.75501535  0.19154136  1
  Se  Se234  1  0.58196631  0.75493225  0.68757981  1
  Se  Se235  1  0.91370925  0.09402468  0.19070039  1
  Se  Se236  1  0.91730578  0.08191389  0.69673313  1
  Se  Se237  1  0.90512662  0.41765790  0.18875901  1
  Se  Se238  1  0.91582682  0.41382800  0.69451204  1
  Se  Se239  1  0.90850748  0.75753982  0.19284549  1
  Se  Se240  1  0.90420204  0.75573922  0.69688884  1
  Se  Se241  1  0.09027735  0.24512591  0.18629287  1
  Se  Se242  1  0.08215343  0.25499861  0.70254731  1
  Se  Se243  1  0.08414259  0.57496184  0.19353716  1
  Se  Se244  1  0.09448432  0.57442924  0.69165844  1
  Se  Se245  1  0.08643800  0.90838325  0.18976038  1
  Se  Se246  1  0.08445744  0.92256831  0.70226229  1
  Se  Se247  1  0.42084798  0.24892813  0.19740777  1
  Se  Se248  1  0.42885993  0.25284002  0.68855972  1
  Se  Se249  1  0.42199192  0.57063527  0.18917332  1
  Se  Se250  1  0.42301716  0.57793060  0.69312654  1
  Se  Se251  1  0.41755564  0.91672857  0.20032131  1
  Se  Se252  1  0.42568736  0.92126989  0.68458430  1
  Se  Se253  1  0.75001475  0.25520078  0.19497243  1
  Se  Se254  1  0.75030204  0.25142571  0.69576064  1
  Se  Se255  1  0.74904006  0.57631302  0.19105347  1
  Se  Se256  1  0.75473177  0.57781850  0.69443619  1
  Se  Se257  1  0.75049116  0.92523011  0.19476512  1
  Se  Se258  1  0.74836500  0.92092163  0.69990468  1
