# generated using pymatgen
data_In86Cu29Se144
_symmetry_space_group_name_H-M   'P 1'
_cell_length_a   17.56799905
_cell_length_b   17.56494152
_cell_length_c   23.41987070
_cell_angle_alpha   89.99927888
_cell_angle_beta   89.98497275
_cell_angle_gamma   90.01240023
_symmetry_Int_Tables_number   1
_chemical_formula_structural   In86Cu29Se144
_chemical_formula_sum   'In86 Cu29 Se144'
_cell_volume   7226.92379587
_cell_formula_units_Z   1
loop_
 _symmetry_equiv_pos_site_id
 _symmetry_equiv_pos_as_xyz
  1  'x, y, z'
loop_
 _atom_site_type_symbol
 _atom_site_label
 _atom_site_symmetry_multiplicity
 _atom_site_fract_x
 _atom_site_fract_y
 _atom_site_fract_z
 _atom_site_occupancy
  In  In0  1  0.00156444  0.16404704  0.12446668  1
  In  In1  1  -0.00286201  0.17057250  0.62625849  1
  In  In2  1  0.00161205  0.50998013  0.11576774  1
  In  In3  1  0.00113240  0.50225003  0.61489024  1
  In  In4  1  -0.01259042  0.83695620  0.12172503  1
  In  In5  1  0.01959349  0.81383732  0.63537929  1
  In  In6  1  0.33501609  0.15622376  0.12295142  1
  In  In7  1  0.32246164  0.17133415  0.62699814  1
  In  In8  1  0.35983955  0.52620807  0.09584698  1
  In  In9  1  0.33764250  0.49920771  0.61837871  1
  In  In10  1  0.33779031  0.81387572  0.12798205  1
  In  In11  1  0.33464854  0.83059093  0.62759029  1
  In  In12  1  0.66026091  0.17983005  0.13227406  1
  In  In13  1  0.68289746  0.16816368  0.62565370  1
  In  In14  1  0.66339918  0.49683218  0.12500179  1
  In  In15  1  0.65767896  0.49105980  0.62191246  1
  In  In16  1  0.63857419  0.79788479  0.09095299  1
  In  In17  1  0.65896840  0.83809075  0.62289921  1
  In  In18  1  0.16011961  0.00614750  0.39086534  1
  In  In19  1  0.17160587  0.00057591  0.85896474  1
  In  In20  1  0.15841844  0.34383153  0.40484930  1
  In  In21  1  0.16183566  0.35034683  0.86768568  1
  In  In22  1  0.18043833  0.65127985  0.39226471  1
  In  In23  1  0.16608863  0.66140959  0.86742220  1
  In  In24  1  0.48500203  0.00537274  0.37573613  1
  In  In25  1  0.49590802  -0.00249826  0.87427150  1
  In  In26  1  0.51771446  0.33394774  0.37096237  1
  In  In27  1  0.50968735  0.32356506  0.87510035  1
  In  In28  1  0.50193477  0.66574879  0.37306204  1
  In  In29  1  0.48968036  0.67269819  0.89722362  1
  In  In30  1  0.84684611  -0.00456140  0.37763372  1
  In  In31  1  0.83278147  -0.00789422  0.86961698  1
  In  In32  1  0.82033937  0.35379661  0.39083702  1
  In  In33  1  0.83671992  0.34410603  0.86504469  1
  In  In34  1  0.82087147  0.66231876  0.37343967  1
  In  In35  1  0.83822534  0.66197750  0.88245431  1
  In  In36  1  -0.01613737  0.18955947  0.40947768  1
  In  In37  1  -0.00013859  0.17135114  0.85982586  1
  In  In38  1  -0.00193408  0.50183533  0.40372291  1
  In  In39  1  -0.00286915  0.50553734  0.86708552  1
  In  In40  1  -0.00051882  0.84241825  0.38078802  1
  In  In41  1  -0.00370147  0.82471214  0.86101646  1
  In  In42  1  0.32834861  0.16423810  0.37874373  1
  In  In43  1  0.35577405  0.16108868  0.86436424  1
  In  In44  1  0.32684858  0.50730006  0.38492006  1
  In  In45  1  0.32264512  0.50467887  0.88203092  1
  In  In46  1  0.34546102  0.82258764  0.38101662  1
  In  In47  1  0.33450449  0.82936809  0.87068860  1
  In  In48  1  0.65491446  0.18959164  0.37272713  1
  In  In49  1  0.64638732  0.17874190  0.87100841  1
  In  In50  1  0.66352855  0.50161184  0.37361818  1
  In  In51  1  0.67268339  0.50140771  0.88265670  1
  In  In52  1  0.66894590  0.81231818  0.37034345  1
  In  In53  1  0.66910602  0.82728540  0.88898557  1
  In  In54  1  0.16384983  0.00312092  0.12651415  1
  In  In55  1  0.16933764  -0.00251321  0.62978519  1
  In  In56  1  0.15506242  0.34838059  0.13047497  1
  In  In57  1  0.15042303  0.31840024  0.60207739  1
  In  In58  1  0.17976658  0.66200753  0.12738175  1
  In  In59  1  0.16489497  0.67259083  0.62040758  1
  In  In60  1  0.50561978  -0.00090992  0.11562306  1
  In  In61  1  0.50456210  -0.01736214  0.62755237  1
  In  In62  1  0.50449812  0.33989531  0.12175972  1
  In  In63  1  0.49047370  0.34879752  0.62900933  1
  In  In64  1  0.50054106  0.66575389  0.12370344  1
  In  In65  1  0.48692031  0.65517030  0.62260513  1
  In  In66  1  0.83983019  -0.01012997  0.11980272  1
  In  In67  1  0.83545145  0.01736515  0.62322094  1
  In  In68  1  0.81706508  0.33675068  0.13090107  1
  In  In69  1  0.83916008  0.33610580  0.62122359  1
  In  In70  1  0.80226765  0.64158004  0.09564650  1
  In  In71  1  0.85274659  0.65720481  0.62209918  1
  In  In72  1  0.83216792  0.83040236  0.50448454  1
  In  In73  1  0.66806211  0.66299502  0.76182777  1
  In  In74  1  0.18000334  0.17650700  -0.01159041  1
  In  In75  1  0.66631958  -0.00447923  0.24561416  1
  In  In76  1  0.32508312  0.33685556  0.74519319  1
  In  In77  1  -0.00432328  0.66821342  0.25888463  1
  In  In78  1  -0.00160524  0.34227154  0.26949650  1
  In  In79  1  0.33477106  0.33949507  0.25073568  1
  In  In80  1  0.49634361  0.17343775  0.50117142  1
  In  In81  1  0.33673902  -0.00151904  0.26060777  1
  In  In82  1  0.82830162  0.17048411  0.00752432  1
  In  In83  1  0.66679035  0.00511091  0.75521566  1
  In  In84  1  0.00483472  0.00008072  0.24945660  1
  In  In85  1  0.17006340  0.82708933  -0.00355831  1
  Cu  Cu86  1  0.00089952  -0.00331939  0.51011287  1
  Cu  Cu87  1  0.17431984  0.82227827  0.25774517  1
  Cu  Cu88  1  0.33873906  0.67632592  0.50232313  1
  Cu  Cu89  1  0.50434429  0.82820658  0.24768999  1
  Cu  Cu90  1  0.83300705  0.50145281  0.74655249  1
  Cu  Cu91  1  0.33241367  0.32828907  -0.00864530  1
  Cu  Cu92  1  0.00376807  0.66837200  -0.01048094  1
  Cu  Cu93  1  0.66960011  0.33694597  0.50064434  1
  Cu  Cu94  1  0.84154502  0.83703619  0.74662126  1
  Cu  Cu95  1  0.82943224  0.49580061  0.24907455  1
  Cu  Cu96  1  0.49391310  0.50147005  0.75200714  1
  Cu  Cu97  1  0.17740292  0.50796160  0.25863693  1
  Cu  Cu98  1  0.66247781  0.65934745  0.49924064  1
  Cu  Cu99  1  0.82383932  0.81989494  0.23933258  1
  Cu  Cu100  1  0.66635987  0.33375147  0.00266124  1
  Cu  Cu101  1  0.33041132  -0.00349767  0.50526508  1
  Cu  Cu102  1  0.66575195  0.00327151  -0.00912239  1
  Cu  Cu103  1  -0.00408627  0.34775281  -0.00662991  1
  Cu  Cu104  1  0.17173607  0.82896199  0.74761517  1
  Cu  Cu105  1  0.66282741  -0.00184070  0.49948754  1
  Cu  Cu106  1  0.00183140  0.00246209  -0.01164097  1
  Cu  Cu107  1  0.50261419  0.50652741  0.24459841  1
  Cu  Cu108  1  0.16240672  0.50315515  0.74111083  1
  Cu  Cu109  1  0.16624056  0.16886789  0.74155396  1
  Cu  Cu110  1  0.34202587  -0.00691734  -0.00248352  1
  Cu  Cu111  1  0.83676270  0.17914973  0.74583505  1
  Cu  Cu112  1  0.82246208  0.16711668  0.25938662  1
  Cu  Cu113  1  0.16137661  0.17146166  0.26590237  1
  Cu  Cu114  1  0.49699944  0.82255675  0.75261856  1
  Se  Se115  1  0.08343074  0.08240044  0.04800285  1
  Se  Se116  1  0.08363166  0.08094653  0.56309810  1
  Se  Se117  1  0.08396521  0.42124553  0.05083561  1
  Se  Se118  1  0.09264844  0.42901676  0.54549964  1
  Se  Se119  1  0.07710276  0.74293220  0.06080853  1
  Se  Se120  1  0.07843681  0.74875026  0.54882122  1
  Se  Se121  1  0.41874495  0.08386579  0.05022629  1
  Se  Se122  1  0.41587658  0.07576637  0.56311383  1
  Se  Se123  1  0.41732262  0.40753257  0.04734934  1
  Se  Se124  1  0.42252806  0.41933440  0.54915551  1
  Se  Se125  1  0.41917571  0.74996416  0.05301355  1
  Se  Se126  1  0.42448474  0.75680457  0.55666655  1
  Se  Se127  1  0.73715482  0.07618336  0.06346504  1
  Se  Se128  1  0.74744681  0.08250955  0.54907568  1
  Se  Se129  1  0.75196930  0.41672682  0.05354122  1
  Se  Se130  1  0.75218205  0.42061125  0.55411223  1
  Se  Se131  1  0.77820094  0.77839235  0.06196774  1
  Se  Se132  1  0.74131418  0.73725327  0.56362070  1
  Se  Se133  1  0.25355652  0.26114256  0.06466454  1
  Se  Se134  1  0.26883741  0.26150774  0.55198704  1
  Se  Se135  1  0.23263968  0.57062707  0.05273944  1
  Se  Se136  1  0.25691213  0.59229927  0.55592659  1
  Se  Se137  1  0.25568857  0.92180311  0.06119481  1
  Se  Se138  1  0.24910593  0.91310032  0.55933334  1
  Se  Se139  1  0.58321121  0.24841626  0.05386236  1
  Se  Se140  1  0.58945214  0.25782548  0.56307470  1
  Se  Se141  1  0.59099142  0.58776060  0.05758871  1
  Se  Se142  1  0.57776162  0.57942366  0.55552681  1
  Se  Se143  1  0.58028350  0.91789001  0.04255567  1
  Se  Se144  1  0.57997626  0.91188949  0.54765727  1
  Se  Se145  1  0.92647612  0.26388906  0.06054658  1
  Se  Se146  1  0.90329453  0.23489244  0.55564518  1
  Se  Se147  1  0.91929634  0.58375239  0.04303957  1
  Se  Se148  1  0.90641437  0.57093523  0.54420124  1
  Se  Se149  1  0.92143906  0.91973386  0.04402841  1
  Se  Se150  1  0.92007485  0.91420573  0.56935973  1
  Se  Se151  1  0.10778891  0.22619502  0.45900139  1
  Se  Se152  1  0.07271456  0.25780392  0.93793663  1
  Se  Se153  1  0.07758928  0.59761478  0.46004942  1
  Se  Se154  1  0.08421313  0.58156230  0.93852690  1
  Se  Se155  1  0.08189196  0.91375732  0.45504422  1
  Se  Se156  1  0.08506630  0.92067387  0.93266602  1
  Se  Se157  1  0.41345230  0.26224441  0.43652621  1
  Se  Se158  1  0.41814195  0.24430983  0.94262328  1
  Se  Se159  1  0.41877402  0.59076115  0.44662709  1
  Se  Se160  1  0.41686023  0.56842147  0.95296140  1
  Se  Se161  1  0.41601288  0.91974979  0.44801402  1
  Se  Se162  1  0.41944893  0.90781952  0.94180496  1
  Se  Se163  1  0.74682883  0.24787259  0.44672159  1
  Se  Se164  1  0.74723980  0.25623455  0.93844419  1
  Se  Se165  1  0.74844701  0.57890496  0.44665154  1
  Se  Se166  1  0.74258668  0.59644178  0.94930796  1
  Se  Se167  1  0.74252105  0.91659364  0.43789664  1
  Se  Se168  1  0.75660616  0.92052778  0.94654877  1
  Se  Se169  1  0.25283995  0.08624234  0.45331405  1
  Se  Se170  1  0.26154829  0.07227571  0.93593844  1
  Se  Se171  1  0.25587687  0.42399813  0.45910945  1
  Se  Se172  1  0.24240448  0.41220111  0.94723285  1
  Se  Se173  1  0.25032355  0.75775866  0.45032226  1
  Se  Se174  1  0.25885073  0.73430855  0.94139859  1
  Se  Se175  1  0.58671238  0.08153453  0.43852070  1
  Se  Se176  1  0.58005522  0.08467290  0.94000893  1
  Se  Se177  1  0.58522125  0.41787773  0.44639160  1
  Se  Se178  1  0.58401906  0.41271887  0.94411601  1
  Se  Se179  1  0.58432613  0.74746047  0.44570822  1
  Se  Se180  1  0.59456719  0.74031648  0.95655434  1
  Se  Se181  1  0.91266855  0.07450624  0.45585063  1
  Se  Se182  1  0.91795765  0.08950627  0.93735096  1
  Se  Se183  1  0.94591049  0.37603779  0.44494647  1
  Se  Se184  1  0.91138489  0.42586789  0.93880826  1
  Se  Se185  1  0.91626022  0.74316320  0.43890637  1
  Se  Se186  1  0.92129481  0.75796798  0.94210463  1
  Se  Se187  1  0.23999831  0.25952174  0.31856817  1
  Se  Se188  1  0.24222999  0.24236255  0.81173625  1
  Se  Se189  1  0.25962312  0.59334359  0.30903982  1
  Se  Se190  1  0.24916251  0.57492884  0.80109716  1
  Se  Se191  1  0.24090298  0.91374737  0.31884157  1
  Se  Se192  1  0.25772696  0.91226867  0.79873193  1
  Se  Se193  1  0.58003380  0.25294837  0.29210047  1
  Se  Se194  1  0.58095946  0.25560092  0.79282641  1
  Se  Se195  1  0.58651996  0.58631620  0.30218045  1
  Se  Se196  1  0.56975558  0.57927958  0.81730706  1
  Se  Se197  1  0.57529717  0.91082634  0.31217057  1
  Se  Se198  1  0.58544840  0.90017013  0.80952960  1
  Se  Se199  1  0.90856748  0.24229033  0.31882502  1
  Se  Se200  1  0.92205350  0.26371271  0.79648789  1
  Se  Se201  1  0.91371351  0.56501021  0.31574602  1
  Se  Se202  1  0.90992651  0.59008694  0.80175393  1
  Se  Se203  1  0.90675084  0.90098453  0.29871880  1
  Se  Se204  1  0.92294255  0.92467718  0.79859103  1
  Se  Se205  1  0.07462464  0.09175678  0.32079398  1
  Se  Se206  1  0.08296999  0.08392850  0.79591596  1
  Se  Se207  1  0.09474055  0.43341655  0.32245821  1
  Se  Se208  1  0.07749632  0.42115229  0.79534832  1
  Se  Se209  1  0.08987617  0.75154133  0.32028059  1
  Se  Se210  1  0.08552153  0.74409276  0.79753087  1
  Se  Se211  1  0.42589552  0.10500025  0.30342302  1
  Se  Se212  1  0.42660162  0.07309920  0.79553084  1
  Se  Se213  1  0.42426015  0.43065281  0.31104914  1
  Se  Se214  1  0.41403085  0.41836827  0.81279604  1
  Se  Se215  1  0.41820150  0.74894527  0.30236310  1
  Se  Se216  1  0.42147789  0.73752752  0.81058471  1
  Se  Se217  1  0.74942690  0.08007901  0.31722964  1
  Se  Se218  1  0.75854692  0.10047073  0.81147882  1
  Se  Se219  1  0.74811940  0.41386421  0.30611123  1
  Se  Se220  1  0.74455228  0.42600760  0.80283403  1
  Se  Se221  1  0.74522303  0.73569742  0.29519036  1
  Se  Se222  1  0.76035255  0.76282889  0.81076411  1
  Se  Se223  1  0.23896076  0.09183727  0.20180514  1
  Se  Se224  1  0.25418055  0.08152322  0.69852918  1
  Se  Se225  1  0.24898926  0.43152764  0.19069956  1
  Se  Se226  1  0.23638614  0.41816243  0.68019882  1
  Se  Se227  1  0.25541946  0.74122628  0.20225754  1
  Se  Se228  1  0.25305835  0.74370010  0.69467968  1
  Se  Se229  1  0.57049910  0.08733626  0.19347765  1
  Se  Se230  1  0.58206405  0.08693516  0.68711366  1
  Se  Se231  1  0.58347469  0.41508495  0.19692442  1
  Se  Se232  1  0.57998112  0.41956869  0.70057005  1
  Se  Se233  1  0.58832461  0.75190415  0.18969160  1
  Se  Se234  1  0.58076456  0.74672870  0.69204368  1
  Se  Se235  1  0.90412813  0.09127447  0.19509220  1
  Se  Se236  1  0.91704644  0.08640978  0.69912498  1
  Se  Se237  1  0.91870417  0.42161059  0.19086454  1
  Se  Se238  1  0.91815803  0.42425760  0.68965619  1
  Se  Se239  1  0.91060357  0.73997723  0.18469153  1
  Se  Se240  1  0.91788906  0.74406312  0.69742417  1
  Se  Se241  1  0.08282610  0.24715297  0.20008959  1
  Se  Se242  1  0.08590405  0.25696041  0.69061602  1
  Se  Se243  1  0.08613593  0.57728265  0.19768764  1
  Se  Se244  1  0.07944844  0.58663842  0.68754565  1
  Se  Se245  1  0.09408304  0.89949968  0.19385991  1
  Se  Se246  1  0.08484672  0.91534788  0.69918359  1
  Se  Se247  1  0.41806236  0.24576267  0.18865323  1
  Se  Se248  1  0.42219078  0.24462060  0.69360972  1
  Se  Se249  1  0.41336967  0.58121907  0.18995369  1
  Se  Se250  1  0.40848526  0.57950630  0.69759804  1
  Se  Se251  1  0.42279062  0.91366877  0.19154472  1
  Se  Se252  1  0.41923232  0.91101243  0.69972437  1
  Se  Se253  1  0.74514998  0.25304666  0.20477363  1
  Se  Se254  1  0.75091335  0.26057558  0.69453610  1
  Se  Se255  1  0.75485602  0.58077667  0.19014794  1
  Se  Se256  1  0.74917625  0.58246575  0.68878577  1
  Se  Se257  1  0.74870936  0.90629809  0.18222560  1
  Se  Se258  1  0.75575351  0.91455847  0.69019613  1
