# generated using pymatgen
data_In86Cu29Se144
_symmetry_space_group_name_H-M   'P 1'
_cell_length_a   17.60560152
_cell_length_b   17.60545688
_cell_length_c   23.46550123
_cell_angle_alpha   89.97971831
_cell_angle_beta   90.01722329
_cell_angle_gamma   90.02640263
_symmetry_Int_Tables_number   1
_chemical_formula_structural   In86Cu29Se144
_chemical_formula_sum   'In86 Cu29 Se144'
_cell_volume   7273.23986264
_cell_formula_units_Z   1
loop_
 _symmetry_equiv_pos_site_id
 _symmetry_equiv_pos_as_xyz
  1  'x, y, z'
loop_
 _atom_site_type_symbol
 _atom_site_label
 _atom_site_symmetry_multiplicity
 _atom_site_fract_x
 _atom_site_fract_y
 _atom_site_fract_z
 _atom_site_occupancy
  In  In0  1  -0.00746759  0.18146739  0.13248580  1
  In  In1  1  0.00792970  0.16271734  0.63612467  1
  In  In2  1  -0.02258710  0.50069216  0.13370434  1
  In  In3  1  -0.00971707  0.48463309  0.62073006  1
  In  In4  1  -0.02444857  0.86235376  0.14991975  1
  In  In5  1  0.00819456  0.84038263  0.62661819  1
  In  In6  1  0.36249599  0.17188904  0.12373073  1
  In  In7  1  0.33450595  0.17053103  0.62920651  1
  In  In8  1  0.33767434  0.48082541  0.12587921  1
  In  In9  1  0.32570500  0.50479582  0.63083653  1
  In  In10  1  0.33070205  0.83577419  0.12309242  1
  In  In11  1  0.33141131  0.83519754  0.63484428  1
  In  In12  1  0.66192199  0.16311206  0.12801865  1
  In  In13  1  0.66159938  0.17342593  0.62877603  1
  In  In14  1  0.66505632  0.49334223  0.12056356  1
  In  In15  1  0.66536465  0.48789955  0.62225652  1
  In  In16  1  0.69360553  0.81961080  0.14818725  1
  In  In17  1  0.68026843  0.84248819  0.62184873  1
  In  In18  1  0.17435236  0.01458885  0.37714383  1
  In  In19  1  0.17132143  0.01491817  0.85528021  1
  In  In20  1  0.16794126  0.32702386  0.38151829  1
  In  In21  1  0.15878735  0.32026045  0.85330267  1
  In  In22  1  0.15323890  0.65611142  0.38047357  1
  In  In23  1  0.17354891  0.65953580  0.87244646  1
  In  In24  1  0.50950317  0.00706280  0.37380392  1
  In  In25  1  0.50682296  0.00062688  0.87500651  1
  In  In26  1  0.48920484  0.32348858  0.35893430  1
  In  In27  1  0.49941766  0.32798614  0.87676515  1
  In  In28  1  0.50754372  0.65683169  0.36918154  1
  In  In29  1  0.49035215  0.66335585  0.87965950  1
  In  In30  1  0.84030021  -0.00156322  0.36034992  1
  In  In31  1  0.83398840  0.00864037  0.87842785  1
  In  In32  1  0.84219036  0.34218625  0.35951143  1
  In  In33  1  0.82591827  0.33345973  0.87836855  1
  In  In34  1  0.82304853  0.65730855  0.36267659  1
  In  In35  1  0.82721892  0.67053442  0.89337725  1
  In  In36  1  0.00882908  0.17134177  0.37163893  1
  In  In37  1  -0.00718756  0.16310486  0.86883394  1
  In  In38  1  0.00588530  0.48820388  0.38117148  1
  In  In39  1  -0.00576885  0.49292070  0.87702376  1
  In  In40  1  -0.00752078  0.83597935  0.36566309  1
  In  In41  1  -0.01505917  0.84275245  0.88341531  1
  In  In42  1  0.32783105  0.17170018  0.38704985  1
  In  In43  1  0.33868748  0.17117130  0.86806092  1
  In  In44  1  0.33374649  0.48518273  0.37762001  1
  In  In45  1  0.33363407  0.49658615  0.87022642  1
  In  In46  1  0.33603510  0.84620179  0.37841428  1
  In  In47  1  0.33995767  0.83251388  0.86765676  1
  In  In48  1  0.65964123  0.16471046  0.36518394  1
  In  In49  1  0.66554311  0.16577612  0.87949169  1
  In  In50  1  0.67509213  0.49864975  0.36131812  1
  In  In51  1  0.67842507  0.48900275  0.89219532  1
  In  In52  1  0.67753151  0.83945368  0.35330711  1
  In  In53  1  0.67032521  0.84403634  0.88219370  1
  In  In54  1  0.15853636  -0.00101515  0.12681345  1
  In  In55  1  0.16087629  0.01738213  0.64193847  1
  In  In56  1  0.16696328  0.33457047  0.13243337  1
  In  In57  1  0.16456148  0.33009632  0.62700355  1
  In  In58  1  0.16869048  0.66877302  0.12597843  1
  In  In59  1  0.17503779  0.66769846  0.62482418  1
  In  In60  1  0.51394087  0.02685962  0.10767890  1
  In  In61  1  0.48591446  0.01760524  0.63818098  1
  In  In62  1  0.49650730  0.32964023  0.12319174  1
  In  In63  1  0.51201737  0.32098401  0.63166350  1
  In  In64  1  0.53674632  0.67061832  0.11324984  1
  In  In65  1  0.49830771  0.65300861  0.62846833  1
  In  In66  1  0.83034819  0.00571701  0.12368994  1
  In  In67  1  0.83229046  0.00331125  0.63600261  1
  In  In68  1  0.83259695  0.32899588  0.12571960  1
  In  In69  1  0.82830416  0.33925480  0.63051676  1
  In  In70  1  0.80023723  0.64659425  0.09790893  1
  In  In71  1  0.84192561  0.66230597  0.62345500  1
  In  In72  1  0.16815059  0.16961512  -0.01137744  1
  In  In73  1  0.50236494  0.49153495  0.49817182  1
  In  In74  1  0.33358180  0.00546993  0.24608359  1
  In  In75  1  0.65655754  0.66735033  0.76133766  1
  In  In76  1  0.16423254  0.49338127  -0.00729452  1
  In  In77  1  0.16611932  0.83197213  0.50123796  1
  In  In78  1  0.50533199  0.83470677  0.49678916  1
  In  In79  1  0.83442627  0.17091712  0.49511229  1
  In  In80  1  0.16123868  0.83666013  -0.00095836  1
  In  In81  1  0.83329808  0.83216418  0.48368024  1
  In  In82  1  0.00172089  0.66886217  0.75289651  1
  In  In83  1  -0.00295359  0.67199396  0.24753005  1
  In  In84  1  0.50800345  0.83684552  0.00188289  1
  In  In85  1  0.33957266  0.66282047  0.24263949  1
  Cu  Cu86  1  0.16554483  0.49470581  0.25596469  1
  Cu  Cu87  1  0.16904127  0.50139356  0.74892990  1
  Cu  Cu88  1  0.16867003  0.16615014  0.25496141  1
  Cu  Cu89  1  0.33145031  0.01454784  0.51211453  1
  Cu  Cu90  1  0.50870835  0.50314854  0.24350991  1
  Cu  Cu91  1  -0.00302649  0.67299027  0.00765846  1
  Cu  Cu92  1  0.00149856  -0.00123901  0.50600127  1
  Cu  Cu93  1  0.82266097  0.50311677  0.75509690  1
  Cu  Cu94  1  0.33743687  0.66037880  0.00076513  1
  Cu  Cu95  1  -0.00489485  0.64854016  0.49912948  1
  Cu  Cu96  1  0.67100244  0.33650204  0.49601763  1
  Cu  Cu97  1  0.49534500  0.48994854  0.75161952  1
  Cu  Cu98  1  0.33089661  0.66389165  0.50656215  1
  Cu  Cu99  1  0.67180709  -0.00011832  0.00334212  1
  Cu  Cu100  1  0.66110795  0.01029007  0.49614739  1
  Cu  Cu101  1  0.82801964  0.17157870  0.75459845  1
  Cu  Cu102  1  0.83256060  0.16088094  0.24608784  1
  Cu  Cu103  1  0.16643307  0.83452636  0.74969995  1
  Cu  Cu104  1  0.67289027  0.66379094  0.48703040  1
  Cu  Cu105  1  0.50577826  0.82916028  0.75390237  1
  Cu  Cu106  1  -0.00889934  0.33886899  0.00295340  1
  Cu  Cu107  1  0.33321202  0.32669195  -0.00485434  1
  Cu  Cu108  1  0.00179729  0.32784835  0.49912667  1
  Cu  Cu109  1  -0.00265339  0.00744845  -0.00019671  1
  Cu  Cu110  1  0.83229060  0.84704491  0.75504426  1
  Cu  Cu111  1  0.66326150  0.32454621  0.00405201  1
  Cu  Cu112  1  0.50610443  0.16482600  0.75447529  1
  Cu  Cu113  1  0.33356862  0.33117027  0.50428488  1
  Cu  Cu114  1  0.49775617  0.83822822  0.24573900  1
  Se  Se115  1  0.07963297  0.08829583  0.05739275  1
  Se  Se116  1  0.08188700  0.08109629  0.56109853  1
  Se  Se117  1  0.07627570  0.41490836  0.06123040  1
  Se  Se118  1  0.08318721  0.41241303  0.55452839  1
  Se  Se119  1  0.07629394  0.75341597  0.06586438  1
  Se  Se120  1  0.06990727  0.73785256  0.55670892  1
  Se  Se121  1  0.40386157  0.07744308  0.04720946  1
  Se  Se122  1  0.42446585  0.09444778  0.55727003  1
  Se  Se123  1  0.41468096  0.41106581  0.04892849  1
  Se  Se124  1  0.41447431  0.41058180  0.56568124  1
  Se  Se125  1  0.41453382  0.74190238  0.06073647  1
  Se  Se126  1  0.41490039  0.74531339  0.55985654  1
  Se  Se127  1  0.74963750  0.09013772  0.05504058  1
  Se  Se128  1  0.74817758  0.07922661  0.55805067  1
  Se  Se129  1  0.75018636  0.40779580  0.05438574  1
  Se  Se130  1  0.75320196  0.41670440  0.55207116  1
  Se  Se131  1  0.73961952  0.76500518  0.05302475  1
  Se  Se132  1  0.74778948  0.74213342  0.55161972  1
  Se  Se133  1  0.25114084  0.25411590  0.05860943  1
  Se  Se134  1  0.25050841  0.24906435  0.55851774  1
  Se  Se135  1  0.25266867  0.58179561  0.05843052  1
  Se  Se136  1  0.24632353  0.57903081  0.55425017  1
  Se  Se137  1  0.25452838  0.92772838  0.05500760  1
  Se  Se138  1  0.25286253  0.92174011  0.56267723  1
  Se  Se139  1  0.57702708  0.24293419  0.05601165  1
  Se  Se140  1  0.58980559  0.25333239  0.55200284  1
  Se  Se141  1  0.58166755  0.56846539  0.04533696  1
  Se  Se142  1  0.59281058  0.59132256  0.55266404  1
  Se  Se143  1  0.59892303  0.91604225  0.06695045  1
  Se  Se144  1  0.58880999  0.92598032  0.55868130  1
  Se  Se145  1  0.91447677  0.24671952  0.05289508  1
  Se  Se146  1  0.92062449  0.25255256  0.56294332  1
  Se  Se147  1  0.91677998  0.57783592  0.05179923  1
  Se  Se148  1  0.90850734  0.57248069  0.55364953  1
  Se  Se149  1  0.92211736  0.92292295  0.05832972  1
  Se  Se150  1  0.91446795  0.91781731  0.55749997  1
  Se  Se151  1  0.08542240  0.24149146  0.45007580  1
  Se  Se152  1  0.07244850  0.26459691  0.93862646  1
  Se  Se153  1  0.08765310  0.56957879  0.45297620  1
  Se  Se154  1  0.07308655  0.59602587  0.94297243  1
  Se  Se155  1  0.07551965  0.91960640  0.44010970  1
  Se  Se156  1  0.08242339  0.93553404  0.93725638  1
  Se  Se157  1  0.42049775  0.25891330  0.44528111  1
  Se  Se158  1  0.41759985  0.24166277  0.94544298  1
  Se  Se159  1  0.41153328  0.59035088  0.44204311  1
  Se  Se160  1  0.41201642  0.57385097  0.94559850  1
  Se  Se161  1  0.41016256  0.93564825  0.44961198  1
  Se  Se162  1  0.41159983  0.91854713  0.94276919  1
  Se  Se163  1  0.74706835  0.25723304  0.43277823  1
  Se  Se164  1  0.74988592  0.24652713  0.94873543  1
  Se  Se165  1  0.75347310  0.57542706  0.43845236  1
  Se  Se166  1  0.74391389  0.58741204  0.95709508  1
  Se  Se167  1  0.73998975  0.93001662  0.43523119  1
  Se  Se168  1  0.75776194  0.92007286  0.94965575  1
  Se  Se169  1  0.24414837  0.08865202  0.45587544  1
  Se  Se170  1  0.25690406  0.07382129  0.93607248  1
  Se  Se171  1  0.25023122  0.41416656  0.45011714  1
  Se  Se172  1  0.24757368  0.39815381  0.93296490  1
  Se  Se173  1  0.25824500  0.74298651  0.44022023  1
  Se  Se174  1  0.25819662  0.74332607  0.94333088  1
  Se  Se175  1  0.58099855  0.09492443  0.44488183  1
  Se  Se176  1  0.58493206  0.07858002  0.94889745  1
  Se  Se177  1  0.58884769  0.41046785  0.43231117  1
  Se  Se178  1  0.58105860  0.40813347  0.94921196  1
  Se  Se179  1  0.59616776  0.75016532  0.43221777  1
  Se  Se180  1  0.59033136  0.74200920  0.94127943  1
  Se  Se181  1  0.92264301  0.07288675  0.44040965  1
  Se  Se182  1  0.91598005  0.09329763  0.94766135  1
  Se  Se183  1  0.91534793  0.40624271  0.44448517  1
  Se  Se184  1  0.90872363  0.42066347  0.94755941  1
  Se  Se185  1  0.92570219  0.73384674  0.43500203  1
  Se  Se186  1  0.91431438  0.75737041  0.95519296  1
  Se  Se187  1  0.25203160  0.24767883  0.31048443  1
  Se  Se188  1  0.24477293  0.23237326  0.79646897  1
  Se  Se189  1  0.24770435  0.58047075  0.31017657  1
  Se  Se190  1  0.25365680  0.58377506  0.80120212  1
  Se  Se191  1  0.24376997  0.91367961  0.30785391  1
  Se  Se192  1  0.25330712  0.91392372  0.80194815  1
  Se  Se193  1  0.59439705  0.26209378  0.29860972  1
  Se  Se194  1  0.58715741  0.25027818  0.80768920  1
  Se  Se195  1  0.59045140  0.58764074  0.29655879  1
  Se  Se196  1  0.57497466  0.56715193  0.81611621  1
  Se  Se197  1  0.57844609  0.92225685  0.30027744  1
  Se  Se198  1  0.58756027  0.91271981  0.80730804  1
  Se  Se199  1  0.91691378  0.23983967  0.30281344  1
  Se  Se200  1  0.91089269  0.25602350  0.80718582  1
  Se  Se201  1  0.92150915  0.57070364  0.30679036  1
  Se  Se202  1  0.90371684  0.58674102  0.81265205  1
  Se  Se203  1  0.90458880  0.89992616  0.29382390  1
  Se  Se204  1  0.91917905  0.92601061  0.80752660  1
  Se  Se205  1  0.08500210  0.07941769  0.30415894  1
  Se  Se206  1  0.08317942  0.09810637  0.79630388  1
  Se  Se207  1  0.08646345  0.40950611  0.30977618  1
  Se  Se208  1  0.08015373  0.42667048  0.80316775  1
  Se  Se209  1  0.09483453  0.75401339  0.30891236  1
  Se  Se210  1  0.08681407  0.76065146  0.81573555  1
  Se  Se211  1  0.41628250  0.09249451  0.31252936  1
  Se  Se212  1  0.42274908  0.07946733  0.80540631  1
  Se  Se213  1  0.41984256  0.42872124  0.29975121  1
  Se  Se214  1  0.41307854  0.40678853  0.80550257  1
  Se  Se215  1  0.42168627  0.75882453  0.31000331  1
  Se  Se216  1  0.42051700  0.74360677  0.80257954  1
  Se  Se217  1  0.74795679  0.08082731  0.30099957  1
  Se  Se218  1  0.74810347  0.08450938  0.80761658  1
  Se  Se219  1  0.74503304  0.40757905  0.29393573  1
  Se  Se220  1  0.74274596  0.41774790  0.80832398  1
  Se  Se221  1  0.76181635  0.75212843  0.29403759  1
  Se  Se222  1  0.75905300  0.75569767  0.81107621  1
  Se  Se223  1  0.24631516  0.09737250  0.18484667  1
  Se  Se224  1  0.27991965  0.06244955  0.69356914  1
  Se  Se225  1  0.25125360  0.41614018  0.20076916  1
  Se  Se226  1  0.24923636  0.41429453  0.69637885  1
  Se  Se227  1  0.24322891  0.76036412  0.19639294  1
  Se  Se228  1  0.24814577  0.74734413  0.69911447  1
  Se  Se229  1  0.56361722  0.09539661  0.19518091  1
  Se  Se230  1  0.59043551  0.08246604  0.69894273  1
  Se  Se231  1  0.58319770  0.41149060  0.19099835  1
  Se  Se232  1  0.58612509  0.41705415  0.69697853  1
  Se  Se233  1  0.58219157  0.74868878  0.20011433  1
  Se  Se234  1  0.58278376  0.75593238  0.68558691  1
  Se  Se235  1  0.92181460  0.08146980  0.19399962  1
  Se  Se236  1  0.91296649  0.08788609  0.70100906  1
  Se  Se237  1  0.92778630  0.39460711  0.19683563  1
  Se  Se238  1  0.90897574  0.42321506  0.70080019  1
  Se  Se239  1  0.90932252  0.73243330  0.17152144  1
  Se  Se240  1  0.90842398  0.76281984  0.69397663  1
  Se  Se241  1  0.08641676  0.25087634  0.20085368  1
  Se  Se242  1  0.07274216  0.26369487  0.69800411  1
  Se  Se243  1  0.09161389  0.57442799  0.19252616  1
  Se  Se244  1  0.08458833  0.57879419  0.68899399  1
  Se  Se245  1  0.09305721  0.91402728  0.20036101  1
  Se  Se246  1  0.08017394  0.91916099  0.70062269  1
  Se  Se247  1  0.40034681  0.27041938  0.19695376  1
  Se  Se248  1  0.42222411  0.24817603  0.69970622  1
  Se  Se249  1  0.42961040  0.58085349  0.17925826  1
  Se  Se250  1  0.41638837  0.58008028  0.70023127  1
  Se  Se251  1  0.42437396  0.91861192  0.18406246  1
  Se  Se252  1  0.42334258  0.91119755  0.69886813  1
  Se  Se253  1  0.74911075  0.24552589  0.19445025  1
  Se  Se254  1  0.74676980  0.25364270  0.69705514  1
  Se  Se255  1  0.75176671  0.57693417  0.18600714  1
  Se  Se256  1  0.74844657  0.58555389  0.69274752  1
  Se  Se257  1  0.73937902  0.94041797  0.19698900  1
  Se  Se258  1  0.74370921  0.92198980  0.70090495  1
