# generated using pymatgen
data_In86Cu29Se144
_symmetry_space_group_name_H-M   'P 1'
_cell_length_a   17.57409228
_cell_length_b   17.58023619
_cell_length_c   23.43774118
_cell_angle_alpha   89.98511612
_cell_angle_beta   90.00332579
_cell_angle_gamma   89.99820830
_symmetry_Int_Tables_number   1
_chemical_formula_structural   In86Cu29Se144
_chemical_formula_sum   'In86 Cu29 Se144'
_cell_volume   7241.24675143
_cell_formula_units_Z   1
loop_
 _symmetry_equiv_pos_site_id
 _symmetry_equiv_pos_as_xyz
  1  'x, y, z'
loop_
 _atom_site_type_symbol
 _atom_site_label
 _atom_site_symmetry_multiplicity
 _atom_site_fract_x
 _atom_site_fract_y
 _atom_site_fract_z
 _atom_site_occupancy
  In  In0  1  0.00675786  0.16250751  0.11555979  1
  In  In1  1  0.01709765  0.17819088  0.62369157  1
  In  In2  1  0.03116571  0.47858427  0.14985443  1
  In  In3  1  -0.00380722  0.49385337  0.61372793  1
  In  In4  1  0.00306273  0.83402460  0.12501705  1
  In  In5  1  0.00672924  0.81491195  0.62357920  1
  In  In6  1  0.31454639  0.18282756  0.12648860  1
  In  In7  1  0.33299608  0.16674117  0.63479014  1
  In  In8  1  0.32124210  0.50283655  0.13457356  1
  In  In9  1  0.32941125  0.50986968  0.63382478  1
  In  In10  1  0.33411703  0.83599075  0.12490346  1
  In  In11  1  0.33043943  0.83136728  0.62598741  1
  In  In12  1  0.68021153  0.16924324  0.12291853  1
  In  In13  1  0.68129109  0.18289846  0.62432872  1
  In  In14  1  0.65691098  0.49608040  0.12902853  1
  In  In15  1  0.67394411  0.48815385  0.62604354  1
  In  In16  1  0.67393924  0.82793479  0.11065171  1
  In  In17  1  0.65856894  0.84947015  0.62584019  1
  In  In18  1  0.15804305  -0.01030766  0.36445509  1
  In  In19  1  0.17327255  -0.00788821  0.89136421  1
  In  In20  1  0.16864816  0.34400408  0.36223626  1
  In  In21  1  0.17081714  0.34136550  0.87939057  1
  In  In22  1  0.17097447  0.66551322  0.36477666  1
  In  In23  1  0.17174893  0.66030696  0.88615933  1
  In  In24  1  0.48170771  -0.00601176  0.37123251  1
  In  In25  1  0.48457748  -0.00372712  0.87394770  1
  In  In26  1  0.49801276  0.33666362  0.37144701  1
  In  In27  1  0.49475934  0.33870369  0.86739083  1
  In  In28  1  0.49597401  0.67827126  0.37928265  1
  In  In29  1  0.49375416  0.68319959  0.87840400  1
  In  In30  1  0.83837638  -0.01209917  0.36865584  1
  In  In31  1  0.84356729  -0.00152230  0.88927939  1
  In  In32  1  0.83970589  0.34006075  0.36891451  1
  In  In33  1  0.82806254  0.32821464  0.87331276  1
  In  In34  1  0.82914030  0.65616337  0.37390571  1
  In  In35  1  0.84145218  0.66161625  0.88037298  1
  In  In36  1  0.00689261  0.17069116  0.36159310  1
  In  In37  1  -0.00317695  0.17410871  0.89296209  1
  In  In38  1  0.00112137  0.50026752  0.36555494  1
  In  In39  1  0.01031853  0.50426979  0.87603406  1
  In  In40  1  0.00966113  0.84572372  0.36026821  1
  In  In41  1  0.01387928  0.83195888  0.89860993  1
  In  In42  1  0.33088229  0.16391276  0.36548006  1
  In  In43  1  0.33108236  0.16801031  0.87399622  1
  In  In44  1  0.31621488  0.49448429  0.35883324  1
  In  In45  1  0.32000537  0.49262374  0.86023178  1
  In  In46  1  0.33120978  0.82827145  0.36999543  1
  In  In47  1  0.32694886  0.83612755  0.87994738  1
  In  In48  1  0.66519536  0.17709708  0.37191635  1
  In  In49  1  0.67168689  0.17988762  0.87599625  1
  In  In50  1  0.67790053  0.49949355  0.38108355  1
  In  In51  1  0.67477214  0.48716690  0.86976660  1
  In  In52  1  0.66349981  0.81873872  0.37663592  1
  In  In53  1  0.66292744  0.82441588  0.88923782  1
  In  In54  1  0.16743542  0.00199296  0.12125359  1
  In  In55  1  0.17909232  -0.00053505  0.62599650  1
  In  In56  1  0.17380947  0.32881281  0.11973198  1
  In  In57  1  0.15509811  0.33931513  0.63059715  1
  In  In58  1  0.16518212  0.66661887  0.12931421  1
  In  In59  1  0.17725789  0.67383263  0.61776598  1
  In  In60  1  0.49908520  -0.01112445  0.12283322  1
  In  In61  1  0.49406273  -0.01128323  0.62449282  1
  In  In62  1  0.49260040  0.33986322  0.13214028  1
  In  In63  1  0.50355963  0.33924371  0.63708809  1
  In  In64  1  0.48972622  0.66567338  0.12189341  1
  In  In65  1  0.47577313  0.66237843  0.62673548  1
  In  In66  1  0.85752369  0.01278172  0.09978772  1
  In  In67  1  0.82528670  0.00070242  0.62573528  1
  In  In68  1  0.84551666  0.32447206  0.12924752  1
  In  In69  1  0.82203428  0.35747067  0.64987105  1
  In  In70  1  0.84641877  0.68260869  0.11608558  1
  In  In71  1  0.84776252  0.65913677  0.62307387  1
  In  In72  1  0.00562708  0.00740867  0.75969292  1
  In  In73  1  0.83937054  0.17595907  0.49359944  1
  In  In74  1  0.00408990  0.65790507  0.75951118  1
  In  In75  1  0.65514339  0.01281978  0.75485032  1
  In  In76  1  0.49825654  0.16672296  -0.00807873  1
  In  In77  1  0.83694309  0.50644439  0.00311048  1
  In  In78  1  0.49860006  0.16953860  0.51125365  1
  In  In79  1  0.48827382  0.50407738  0.00197618  1
  In  In80  1  0.83674273  0.82249926  0.49412870  1
  In  In81  1  0.16889575  0.16753780  0.49434216  1
  In  In82  1  0.49570583  0.50267508  0.50226498  1
  In  In83  1  0.66650489  0.65998230  0.25216794  1
  In  In84  1  0.65445712  0.65614947  0.74420105  1
  In  In85  1  0.67134613  0.00025072  0.24256122  1
  Cu  Cu86  1  0.65028195  0.00052237  0.49643830  1
  Cu  Cu87  1  0.00229013  -0.01138466  0.49339841  1
  Cu  Cu88  1  0.83081770  0.50133690  0.24989105  1
  Cu  Cu89  1  0.32636693  0.66632871  0.49709143  1
  Cu  Cu90  1  -0.00223534  0.34530382  0.49769288  1
  Cu  Cu91  1  0.33769484  -0.00003282  0.00368583  1
  Cu  Cu92  1  0.49544612  0.16870726  0.24946666  1
  Cu  Cu93  1  0.17009384  0.83595265  0.75335834  1
  Cu  Cu94  1  0.00217812  0.66256006  0.00988088  1
  Cu  Cu95  1  0.49845573  0.16870207  0.75371868  1
  Cu  Cu96  1  0.16485856  0.16274235  0.24161715  1
  Cu  Cu97  1  0.17185292  0.83497034  0.24285743  1
  Cu  Cu98  1  0.49843236  0.83082338  0.24780559  1
  Cu  Cu99  1  0.66925024  -0.00181792  0.00126339  1
  Cu  Cu100  1  0.32771644  -0.01818074  0.49741438  1
  Cu  Cu101  1  0.32718687  0.67347327  0.00325960  1
  Cu  Cu102  1  0.32952348  0.33603419  0.49751801  1
  Cu  Cu103  1  0.66856909  0.33067414  0.00063590  1
  Cu  Cu104  1  0.17135534  0.17349786  0.75657980  1
  Cu  Cu105  1  0.83088253  0.83163773  0.76518534  1
  Cu  Cu106  1  0.84188532  0.83915146  0.23974682  1
  Cu  Cu107  1  0.83910815  0.16736792  0.23914239  1
  Cu  Cu108  1  0.01352806  0.65947747  0.49238217  1
  Cu  Cu109  1  0.16402204  0.50115804  0.74994096  1
  Cu  Cu110  1  0.48440266  0.83683886  0.75130582  1
  Cu  Cu111  1  0.84575853  0.17050214  0.75539039  1
  Cu  Cu112  1  0.49865843  0.49373018  0.25042296  1
  Cu  Cu113  1  0.66515995  0.66782050  0.50335387  1
  Cu  Cu114  1  0.00845524  0.33778557  0.00654842  1
  Se  Se115  1  0.07300836  0.06276064  0.04758581  1
  Se  Se116  1  0.07826088  0.07305719  0.55485476  1
  Se  Se117  1  0.08982278  0.42364734  0.05752157  1
  Se  Se118  1  0.09250313  0.41868170  0.54934299  1
  Se  Se119  1  0.08725487  0.75003175  0.05700133  1
  Se  Se120  1  0.08811411  0.74932054  0.54701451  1
  Se  Se121  1  0.41485806  0.08526308  0.06218170  1
  Se  Se122  1  0.39994968  0.07203665  0.55687341  1
  Se  Se123  1  0.40294903  0.41112931  0.06018857  1
  Se  Se124  1  0.40876602  0.40970867  0.56212292  1
  Se  Se125  1  0.41682735  0.75407633  0.05294174  1
  Se  Se126  1  0.40922099  0.74843959  0.55274922  1
  Se  Se127  1  0.75017633  0.08856074  0.04781108  1
  Se  Se128  1  0.74048792  0.07945262  0.55107870  1
  Se  Se129  1  0.74685629  0.41062458  0.06157523  1
  Se  Se130  1  0.76218393  0.41269108  0.55919989  1
  Se  Se131  1  0.74604607  0.73351416  0.04644029  1
  Se  Se132  1  0.74467969  0.74813162  0.56593070  1
  Se  Se133  1  0.24278680  0.24331571  0.04347620  1
  Se  Se134  1  0.25473195  0.25343815  0.56035204  1
  Se  Se135  1  0.25163198  0.58624007  0.05902285  1
  Se  Se136  1  0.25242934  0.57786250  0.55375691  1
  Se  Se137  1  0.25251658  0.91686211  0.05441416  1
  Se  Se138  1  0.24191455  0.90724586  0.55436258  1
  Se  Se139  1  0.58276065  0.25577881  0.06008905  1
  Se  Se140  1  0.59196969  0.26647667  0.55842256  1
  Se  Se141  1  0.58916481  0.58894525  0.05777992  1
  Se  Se142  1  0.58589734  0.59029660  0.56569647  1
  Se  Se143  1  0.58354081  0.91608555  0.05176442  1
  Se  Se144  1  0.57267038  0.91337900  0.54928336  1
  Se  Se145  1  0.91963694  0.25157587  0.05167936  1
  Se  Se146  1  0.92500083  0.25998207  0.55949132  1
  Se  Se147  1  0.93325842  0.57344829  0.07168518  1
  Se  Se148  1  0.92099767  0.58545151  0.54547989  1
  Se  Se149  1  0.89291424  0.88358168  0.05891460  1
  Se  Se150  1  0.92038355  0.91805162  0.55966202  1
  Se  Se151  1  0.07546640  0.25853483  0.43902593  1
  Se  Se152  1  0.09299460  0.25563242  0.95166930  1
  Se  Se153  1  0.09080657  0.57811356  0.43404523  1
  Se  Se154  1  0.08289095  0.58109569  0.95251331  1
  Se  Se155  1  0.08835526  0.90856237  0.44206245  1
  Se  Se156  1  0.07202890  0.93666447  0.96205388  1
  Se  Se157  1  0.40871771  0.25143641  0.44197666  1
  Se  Se158  1  0.40883224  0.26529570  0.94233446  1
  Se  Se159  1  0.40488119  0.58384930  0.43678129  1
  Se  Se160  1  0.40163717  0.59156909  0.93936146  1
  Se  Se161  1  0.41690172  0.90555619  0.44437028  1
  Se  Se162  1  0.41725926  0.91382915  0.94940595  1
  Se  Se163  1  0.74203268  0.26479863  0.44168911  1
  Se  Se164  1  0.75592996  0.24832399  0.95091522  1
  Se  Se165  1  0.75094327  0.58653214  0.45218572  1
  Se  Se166  1  0.73854665  0.58541145  0.94154329  1
  Se  Se167  1  0.74038791  0.92172069  0.44168647  1
  Se  Se168  1  0.75166582  0.91262178  0.94820448  1
  Se  Se169  1  0.25563817  0.07068671  0.43775921  1
  Se  Se170  1  0.25861045  0.08605674  0.94924437  1
  Se  Se171  1  0.24969373  0.41463003  0.43885324  1
  Se  Se172  1  0.24479738  0.43737926  0.94408627  1
  Se  Se173  1  0.24668598  0.74820862  0.43959527  1
  Se  Se174  1  0.24195187  0.75773121  0.95101018  1
  Se  Se175  1  0.57767478  0.08427538  0.43615772  1
  Se  Se176  1  0.59160296  0.07397284  0.93439287  1
  Se  Se177  1  0.58691351  0.41123511  0.44525199  1
  Se  Se178  1  0.58657853  0.41203554  0.94499264  1
  Se  Se179  1  0.58076317  0.75125914  0.45247932  1
  Se  Se180  1  0.57467002  0.74862600  0.95484427  1
  Se  Se181  1  0.92499362  0.07533538  0.43657899  1
  Se  Se182  1  0.91941274  0.08300025  0.95709937  1
  Se  Se183  1  0.91546838  0.42439777  0.44026241  1
  Se  Se184  1  0.92353615  0.41213604  0.94283565  1
  Se  Se185  1  0.93070841  0.74224852  0.43185429  1
  Se  Se186  1  0.91951361  0.74177376  0.95196136  1
  Se  Se187  1  0.24387065  0.24478049  0.30132827  1
  Se  Se188  1  0.25406904  0.25933665  0.80779327  1
  Se  Se189  1  0.24160957  0.58095154  0.28968070  1
  Se  Se190  1  0.24029385  0.59243173  0.80239613  1
  Se  Se191  1  0.25398232  0.91622534  0.30060744  1
  Se  Se192  1  0.24621008  0.92210380  0.80970773  1
  Se  Se193  1  0.57929237  0.25132073  0.30281467  1
  Se  Se194  1  0.58331987  0.25074511  0.80603650  1
  Se  Se195  1  0.57395357  0.57474660  0.31478486  1
  Se  Se196  1  0.57413049  0.57896533  0.81793588  1
  Se  Se197  1  0.58322903  0.90980137  0.30670735  1
  Se  Se198  1  0.57762319  0.90696234  0.80929292  1
  Se  Se199  1  0.91398823  0.24983362  0.30032177  1
  Se  Se200  1  0.92634948  0.24973447  0.81290911  1
  Se  Se201  1  0.91316889  0.58762945  0.30059869  1
  Se  Se202  1  0.90397185  0.56607318  0.80723584  1
  Se  Se203  1  0.92266531  0.92627906  0.29191152  1
  Se  Se204  1  0.92160690  0.90689421  0.81802784  1
  Se  Se205  1  0.08172569  0.07909316  0.29657995  1
  Se  Se206  1  0.09468818  0.09352671  0.82057806  1
  Se  Se207  1  0.06957106  0.40643375  0.29665301  1
  Se  Se208  1  0.08452090  0.41780028  0.80590647  1
  Se  Se209  1  0.08791281  0.75371271  0.29741253  1
  Se  Se210  1  0.08727687  0.75929274  0.81494494  1
  Se  Se211  1  0.41371034  0.07981265  0.29806208  1
  Se  Se212  1  0.41411107  0.08451711  0.80368544  1
  Se  Se213  1  0.41201250  0.41058881  0.30095425  1
  Se  Se214  1  0.42088173  0.42536744  0.79913688  1
  Se  Se215  1  0.41757044  0.74518311  0.30091363  1
  Se  Se216  1  0.40552702  0.75291076  0.80669991  1
  Se  Se217  1  0.75916884  0.09150708  0.30617636  1
  Se  Se218  1  0.76387560  0.08582063  0.81242468  1
  Se  Se219  1  0.74652360  0.42002113  0.30400467  1
  Se  Se220  1  0.75566139  0.41154150  0.79966364  1
  Se  Se221  1  0.76142783  0.76105034  0.30263214  1
  Se  Se222  1  0.74590492  0.74453776  0.81214691  1
  Se  Se223  1  0.25307819  0.08021713  0.19215347  1
  Se  Se224  1  0.24605873  0.08478241  0.70049535  1
  Se  Se225  1  0.24864169  0.40654578  0.19631283  1
  Se  Se226  1  0.24674234  0.41739417  0.69551580  1
  Se  Se227  1  0.25635659  0.74941946  0.19384141  1
  Se  Se228  1  0.24701804  0.75031066  0.69721319  1
  Se  Se229  1  0.57768051  0.09280584  0.18719216  1
  Se  Se230  1  0.57548551  0.09710208  0.68241095  1
  Se  Se231  1  0.58603109  0.41070514  0.20117832  1
  Se  Se232  1  0.58499001  0.42764421  0.69931708  1
  Se  Se233  1  0.58449024  0.75442576  0.18952800  1
  Se  Se234  1  0.57012772  0.76146343  0.68992275  1
  Se  Se235  1  0.91814491  0.08212672  0.18572447  1
  Se  Se236  1  0.91566671  0.08901819  0.68934359  1
  Se  Se237  1  0.91398165  0.41610027  0.19925964  1
  Se  Se238  1  0.94327931  0.40996797  0.69471976  1
  Se  Se239  1  0.92431117  0.74603282  0.19669793  1
  Se  Se240  1  0.91052875  0.75502266  0.70045126  1
  Se  Se241  1  0.08396162  0.24614218  0.18661493  1
  Se  Se242  1  0.08337038  0.25225800  0.70403815  1
  Se  Se243  1  0.09431961  0.58561159  0.20704932  1
  Se  Se244  1  0.08745734  0.58285215  0.68551208  1
  Se  Se245  1  0.08570368  0.91879943  0.19244068  1
  Se  Se246  1  0.08417990  0.91054469  0.69238705  1
  Se  Se247  1  0.41060784  0.25054544  0.19544884  1
  Se  Se248  1  0.41602349  0.25267431  0.69901236  1
  Se  Se249  1  0.42165256  0.58042707  0.19514025  1
  Se  Se250  1  0.41879518  0.57935142  0.70471149  1
  Se  Se251  1  0.41725664  0.91796823  0.19734736  1
  Se  Se252  1  0.40520001  0.92256562  0.69673120  1
  Se  Se253  1  0.74857978  0.25398319  0.19695346  1
  Se  Se254  1  0.75224148  0.24922766  0.70610132  1
  Se  Se255  1  0.75743718  0.58214673  0.18529583  1
  Se  Se256  1  0.76301698  0.57904400  0.69326285  1
  Se  Se257  1  0.75780904  0.91408070  0.18031814  1
  Se  Se258  1  0.75395305  0.91326860  0.70316129  1
