# generated using pymatgen
data_In86Cu29Se144
_symmetry_space_group_name_H-M   'P 1'
_cell_length_a   17.58705988
_cell_length_b   17.58877140
_cell_length_c   23.44861034
_cell_angle_alpha   90.02717558
_cell_angle_beta   89.98445317
_cell_angle_gamma   89.98759076
_symmetry_Int_Tables_number   1
_chemical_formula_structural   In86Cu29Se144
_chemical_formula_sum   'In86 Cu29 Se144'
_cell_volume   7253.46936898
_cell_formula_units_Z   1
loop_
 _symmetry_equiv_pos_site_id
 _symmetry_equiv_pos_as_xyz
  1  'x, y, z'
loop_
 _atom_site_type_symbol
 _atom_site_label
 _atom_site_symmetry_multiplicity
 _atom_site_fract_x
 _atom_site_fract_y
 _atom_site_fract_z
 _atom_site_occupancy
  In  In0  1  -0.01079840  0.16513619  0.12364845  1
  In  In1  1  0.00086947  0.16344368  0.62533499  1
  In  In2  1  0.00200460  0.50343754  0.11617632  1
  In  In3  1  -0.00863238  0.50754315  0.63104637  1
  In  In4  1  0.01257471  0.82893114  0.12507880  1
  In  In5  1  0.00564298  0.84346995  0.62841901  1
  In  In6  1  0.33604619  0.13713663  0.12106479  1
  In  In7  1  0.31827501  0.15538527  0.61345231  1
  In  In8  1  0.33261129  0.52535591  0.12630292  1
  In  In9  1  0.33810378  0.50758291  0.62217712  1
  In  In10  1  0.32102870  0.84382303  0.12672391  1
  In  In11  1  0.31228464  0.85077053  0.64148462  1
  In  In12  1  0.66486193  0.16070716  0.12158283  1
  In  In13  1  0.65731543  0.15806810  0.61771667  1
  In  In14  1  0.66852717  0.48962682  0.12707361  1
  In  In15  1  0.66420980  0.50343767  0.61784063  1
  In  In16  1  0.67350796  0.85234287  0.13267557  1
  In  In17  1  0.68228615  0.83706039  0.62153485  1
  In  In18  1  0.16966452  -0.00857612  0.37753236  1
  In  In19  1  0.16384178  -0.00607882  0.86697599  1
  In  In20  1  0.15123108  0.32674368  0.37383055  1
  In  In21  1  0.16510786  0.34410601  0.87475153  1
  In  In22  1  0.17709994  0.67685709  0.37240361  1
  In  In23  1  0.16630926  0.67135056  0.86940367  1
  In  In24  1  0.50895765  0.00733853  0.36986261  1
  In  In25  1  0.50651318  0.00587721  0.86648383  1
  In  In26  1  0.50295310  0.33281373  0.38297126  1
  In  In27  1  0.48751976  0.32480790  0.87783082  1
  In  In28  1  0.48743125  0.66355746  0.37535211  1
  In  In29  1  0.48424272  0.67794796  0.87641150  1
  In  In30  1  0.83435154  0.00309822  0.37667659  1
  In  In31  1  0.84299697  0.00401709  0.86998040  1
  In  In32  1  0.83284106  0.32969973  0.38121452  1
  In  In33  1  0.84002205  0.32894715  0.87528763  1
  In  In34  1  0.84086126  0.66604934  0.38086023  1
  In  In35  1  0.83605853  0.65348475  0.87771766  1
  In  In36  1  0.02043704  0.13592783  0.40126866  1
  In  In37  1  -0.01221409  0.15715735  0.86896632  1
  In  In38  1  -0.00633865  0.49408428  0.37698711  1
  In  In39  1  0.00064753  0.50197239  0.86794047  1
  In  In40  1  -0.02432383  0.86921693  0.40825215  1
  In  In41  1  0.01926248  0.84094711  0.85938129  1
  In  In42  1  0.34672418  0.15536485  0.38065046  1
  In  In43  1  0.34708405  0.16333141  0.87839186  1
  In  In44  1  0.33249308  0.51687346  0.37170155  1
  In  In45  1  0.31410197  0.50598936  0.88441244  1
  In  In46  1  0.32528403  0.82668935  0.37240049  1
  In  In47  1  0.31037724  0.82841153  0.85747252  1
  In  In48  1  0.67852436  0.15728475  0.38508398  1
  In  In49  1  0.67691079  0.16215447  0.87761350  1
  In  In50  1  0.67292603  0.49448931  0.37951541  1
  In  In51  1  0.67369638  0.51382812  0.87861286  1
  In  In52  1  0.67327215  0.84681791  0.36996494  1
  In  In53  1  0.65562955  0.83873466  0.87429151  1
  In  In54  1  0.17918419  -0.01387819  0.13119377  1
  In  In55  1  0.16192190  0.00213151  0.62527434  1
  In  In56  1  0.15339019  0.33534088  0.11973298  1
  In  In57  1  0.16329514  0.31781833  0.62477533  1
  In  In58  1  0.17920845  0.68426465  0.10788685  1
  In  In59  1  0.14691401  0.68987528  0.64694611  1
  In  In60  1  0.49122830  0.00765005  0.13222125  1
  In  In61  1  0.48946024  0.00786847  0.62853015  1
  In  In62  1  0.51344790  0.32891248  0.12447869  1
  In  In63  1  0.49642944  0.33593723  0.61713742  1
  In  In64  1  0.47621045  0.66783173  0.13115090  1
  In  In65  1  0.49403160  0.66235560  0.62220306  1
  In  In66  1  0.82418130  0.00696952  0.13877150  1
  In  In67  1  0.83788756  -0.00282361  0.62406961  1
  In  In68  1  0.83677850  0.33461678  0.11782584  1
  In  In69  1  0.83921097  0.34086375  0.62109014  1
  In  In70  1  0.84681656  0.66446205  0.12438098  1
  In  In71  1  0.84673320  0.68163062  0.61443652  1
  In  In72  1  0.33425941  0.32970217  0.25183302  1
  In  In73  1  0.67091468  0.67566333  0.74991055  1
  In  In74  1  0.66779549  0.33038785  0.25177438  1
  In  In75  1  0.16896719  0.50030593  0.49787423  1
  In  In76  1  0.16655849  0.16275208  -0.00468735  1
  In  In77  1  0.66903294  0.32961343  0.74328225  1
  In  In78  1  0.49835418  0.83027377  0.49496904  1
  In  In79  1  0.50429922  0.49123810  0.00183128  1
  In  In80  1  -0.00569895  0.32933505  0.24699395  1
  In  In81  1  0.84199531  0.83253126  0.00333085  1
  In  In82  1  0.66478879  0.66903918  0.25301833  1
  In  In83  1  0.32788577  0.32873250  0.75137374  1
  In  In84  1  0.00385398  0.67503116  0.25352056  1
  In  In85  1  0.48864791  0.84104715  -0.00049386  1
  Cu  Cu86  1  0.66796634  0.66050824  0.49767978  1
  Cu  Cu87  1  0.83867868  0.83681066  0.74476458  1
  Cu  Cu88  1  0.49578405  0.83190319  0.25455717  1
  Cu  Cu89  1  0.33129959  0.00049348  0.50325216  1
  Cu  Cu90  1  0.66712781  0.66333587  0.00686085  1
  Cu  Cu91  1  0.50208783  0.16050332  0.24918668  1
  Cu  Cu92  1  0.83849832  0.16409035  0.25868789  1
  Cu  Cu93  1  0.00363954  0.66780095  0.50855678  1
  Cu  Cu94  1  0.50000169  0.83937185  0.75065715  1
  Cu  Cu95  1  0.00613574  0.66510389  -0.00723708  1
  Cu  Cu96  1  0.33477504  0.33447878  0.49834233  1
  Cu  Cu97  1  0.16496932  0.83592637  0.25123963  1
  Cu  Cu98  1  0.49272172  0.50457855  0.75183294  1
  Cu  Cu99  1  0.32987022  0.66985293  0.50266054  1
  Cu  Cu100  1  0.67519963  0.32795601  0.00032753  1
  Cu  Cu101  1  0.16557091  0.15216830  0.25591381  1
  Cu  Cu102  1  -0.00337074  0.33025749  0.50168989  1
  Cu  Cu103  1  0.66786561  -0.00156741  0.49868455  1
  Cu  Cu104  1  0.66613728  0.33372359  0.50256680  1
  Cu  Cu105  1  0.00242349  -0.00167535  -0.00497068  1
  Cu  Cu106  1  0.67035995  0.00748311  -0.00033200  1
  Cu  Cu107  1  -0.00587227  0.34016609  -0.00440187  1
  Cu  Cu108  1  0.16908784  0.50916326  0.24212961  1
  Cu  Cu109  1  0.16572732  0.49877926  0.75343836  1
  Cu  Cu110  1  0.49736054  0.16432580  0.74577518  1
  Cu  Cu111  1  0.33572648  0.32646446  0.00203131  1
  Cu  Cu112  1  0.83538146  0.50324815  0.74551659  1
  Cu  Cu113  1  0.83627344  0.15858205  0.74842580  1
  Cu  Cu114  1  0.16173972  0.16134804  0.74616837  1
  Se  Se115  1  0.08032215  0.07663098  0.06044063  1
  Se  Se116  1  0.08800248  0.08917552  0.55534670  1
  Se  Se117  1  0.08269668  0.41937050  0.04699551  1
  Se  Se118  1  0.07846616  0.41376831  0.56051421  1
  Se  Se119  1  0.08228803  0.75696832  0.04417477  1
  Se  Se120  1  0.08575909  0.75311264  0.55940187  1
  Se  Se121  1  0.42347482  0.07307360  0.04818229  1
  Se  Se122  1  0.41936985  0.08562354  0.55027635  1
  Se  Se123  1  0.40972674  0.40963309  0.06571665  1
  Se  Se124  1  0.41335822  0.42182195  0.55159909  1
  Se  Se125  1  0.40110852  0.74569851  0.05490410  1
  Se  Se126  1  0.40559819  0.75608058  0.56245040  1
  Se  Se127  1  0.75755381  0.08239523  0.05689519  1
  Se  Se128  1  0.75037125  0.07908726  0.55542090  1
  Se  Se129  1  0.75076768  0.41886583  0.05254608  1
  Se  Se130  1  0.74963013  0.41882407  0.55436886  1
  Se  Se131  1  0.74387943  0.74865378  0.06448487  1
  Se  Se132  1  0.74828133  0.74917192  0.54837127  1
  Se  Se133  1  0.25527082  0.24768659  0.06394109  1
  Se  Se134  1  0.24761356  0.25262959  0.54853676  1
  Se  Se135  1  0.23766545  0.57126084  0.05213095  1
  Se  Se136  1  0.24375918  0.59495516  0.56300809  1
  Se  Se137  1  0.25162920  0.92174935  0.04962312  1
  Se  Se138  1  0.24807832  0.91793543  0.55623539  1
  Se  Se139  1  0.58750156  0.24756963  0.05170424  1
  Se  Se140  1  0.57984708  0.25035743  0.55274569  1
  Se  Se141  1  0.58233769  0.58953730  0.06661641  1
  Se  Se142  1  0.57841063  0.58569808  0.55165508  1
  Se  Se143  1  0.58977648  0.92439868  0.05669524  1
  Se  Se144  1  0.58377596  0.92049680  0.55881257  1
  Se  Se145  1  0.91897388  0.25107570  0.05050199  1
  Se  Se146  1  0.91549652  0.24767147  0.55699957  1
  Se  Se147  1  0.91892602  0.58696451  0.04794573  1
  Se  Se148  1  0.91623474  0.57893142  0.55226799  1
  Se  Se149  1  0.92409322  0.92674253  0.06398839  1
  Se  Se150  1  0.91627473  0.91062372  0.55604809  1
  Se  Se151  1  0.08678877  0.24954050  0.45313381  1
  Se  Se152  1  0.07382026  0.25404621  0.93780784  1
  Se  Se153  1  0.07743200  0.59205812  0.43875681  1
  Se  Se154  1  0.08603575  0.58106813  0.93730553  1
  Se  Se155  1  0.10215576  0.90687410  0.45353317  1
  Se  Se156  1  0.08480064  0.91582746  0.94165179  1
  Se  Se157  1  0.41890223  0.24857348  0.44800795  1
  Se  Se158  1  0.42189002  0.24247234  0.95441964  1
  Se  Se159  1  0.41215370  0.58420956  0.45085305  1
  Se  Se160  1  0.41273029  0.58579148  0.94802383  1
  Se  Se161  1  0.41084697  0.92473016  0.43731716  1
  Se  Se162  1  0.41039090  0.91534072  0.92333607  1
  Se  Se163  1  0.75135150  0.24984966  0.45162237  1
  Se  Se164  1  0.75816173  0.24677604  0.94466958  1
  Se  Se165  1  0.75541972  0.58020875  0.44556845  1
  Se  Se166  1  0.75367493  0.58357008  0.95453480  1
  Se  Se167  1  0.75190892  0.91536469  0.44672860  1
  Se  Se168  1  0.74683526  0.91930808  0.94254812  1
  Se  Se169  1  0.25099438  0.08249844  0.44450239  1
  Se  Se170  1  0.25650398  0.07232672  0.93808462  1
  Se  Se171  1  0.25523415  0.40972352  0.43329619  1
  Se  Se172  1  0.24947474  0.40857010  0.95185651  1
  Se  Se173  1  0.24793407  0.75449665  0.45042165  1
  Se  Se174  1  0.25710702  0.74484181  0.93787282  1
  Se  Se175  1  0.58123182  0.08257524  0.44846013  1
  Se  Se176  1  0.58494866  0.08330392  0.94196377  1
  Se  Se177  1  0.58490081  0.41894707  0.44868834  1
  Se  Se178  1  0.59513943  0.40529949  0.93603838  1
  Se  Se179  1  0.59245768  0.74324068  0.43460294  1
  Se  Se180  1  0.58773948  0.74260810  0.94665578  1
  Se  Se181  1  0.89705391  0.09629621  0.44949486  1
  Se  Se182  1  0.91451419  0.08240729  0.94783004  1
  Se  Se183  1  0.91538806  0.41587928  0.44882234  1
  Se  Se184  1  0.91403762  0.42396464  0.93971221  1
  Se  Se185  1  0.91698037  0.74728958  0.45396924  1
  Se  Se186  1  0.92600190  0.74961542  0.93449214  1
  Se  Se187  1  0.24301420  0.24013387  0.31193202  1
  Se  Se188  1  0.24051024  0.23741270  0.81294845  1
  Se  Se189  1  0.24870969  0.59049946  0.29928965  1
  Se  Se190  1  0.25229331  0.58115103  0.80314167  1
  Se  Se191  1  0.25355899  0.91716469  0.30272931  1
  Se  Se192  1  0.22442500  0.90588106  0.78799174  1
  Se  Se193  1  0.57955302  0.23934519  0.31171388  1
  Se  Se194  1  0.57565928  0.24568669  0.80651007  1
  Se  Se195  1  0.57938986  0.57539814  0.31219545  1
  Se  Se196  1  0.57546607  0.58493518  0.80993599  1
  Se  Se197  1  0.58278638  0.91692766  0.30085301  1
  Se  Se198  1  0.58992209  0.92070951  0.79818835  1
  Se  Se199  1  0.92160488  0.24062272  0.31780221  1
  Se  Se200  1  0.91410142  0.24916004  0.80046926  1
  Se  Se201  1  0.91213651  0.57587129  0.30457436  1
  Se  Se202  1  0.91619473  0.58753748  0.79993828  1
  Se  Se203  1  0.92357947  0.91912599  0.31394201  1
  Se  Se204  1  0.92104423  0.91970155  0.80064429  1
  Se  Se205  1  0.08029585  0.07529885  0.31143471  1
  Se  Se206  1  0.07901018  0.08132562  0.80325996  1
  Se  Se207  1  0.08966665  0.42735166  0.30143918  1
  Se  Se208  1  0.08079157  0.41164127  0.80033426  1
  Se  Se209  1  0.08318088  0.76658022  0.31689116  1
  Se  Se210  1  0.07966532  0.73897853  0.79529401  1
  Se  Se211  1  0.41531950  0.07878175  0.30088419  1
  Se  Se212  1  0.41304651  0.08315651  0.80004817  1
  Se  Se213  1  0.42132146  0.41998264  0.31211849  1
  Se  Se214  1  0.41547308  0.42391686  0.81234713  1
  Se  Se215  1  0.41230551  0.74657813  0.30380690  1
  Se  Se216  1  0.41516826  0.75349458  0.79907653  1
  Se  Se217  1  0.74709325  0.08213909  0.30529043  1
  Se  Se218  1  0.75000756  0.08035700  0.80350959  1
  Se  Se219  1  0.76302933  0.42089213  0.30525296  1
  Se  Se220  1  0.75099292  0.42659348  0.80542116  1
  Se  Se221  1  0.76214968  0.75417111  0.30893238  1
  Se  Se222  1  0.76180173  0.76145706  0.81308671  1
  Se  Se223  1  0.25364241  0.07673055  0.20045571  1
  Se  Se224  1  0.25095641  0.08350586  0.69458247  1
  Se  Se225  1  0.24396446  0.41741218  0.18792541  1
  Se  Se226  1  0.24344451  0.42123695  0.68807914  1
  Se  Se227  1  0.24450205  0.75136461  0.19371678  1
  Se  Se228  1  0.27497306  0.72601937  0.69199889  1
  Se  Se229  1  0.58945576  0.08040892  0.19573563  1
  Se  Se230  1  0.58437431  0.08158866  0.69519417  1
  Se  Se231  1  0.57193518  0.42500738  0.19930806  1
  Se  Se232  1  0.57339841  0.42622301  0.69284463  1
  Se  Se233  1  0.57526447  0.75759463  0.18808474  1
  Se  Se234  1  0.57801836  0.75976393  0.68711422  1
  Se  Se235  1  0.92158632  0.08448482  0.20061461  1
  Se  Se236  1  0.92165756  0.07713349  0.69523873  1
  Se  Se237  1  0.91160787  0.42694163  0.18927504  1
  Se  Se238  1  0.91772204  0.41327212  0.69796836  1
  Se  Se239  1  0.90951316  0.76299664  0.19341137  1
  Se  Se240  1  0.92098060  0.75165747  0.69337973  1
  Se  Se241  1  0.09286604  0.23668397  0.19366683  1
  Se  Se242  1  0.07904150  0.24950136  0.69841067  1
  Se  Se243  1  0.08816919  0.58988046  0.18427266  1
  Se  Se244  1  0.07979320  0.58047531  0.70094114  1
  Se  Se245  1  0.08119917  0.91792587  0.19705650  1
  Se  Se246  1  0.10473331  0.90466010  0.69909525  1
  Se  Se247  1  0.42235917  0.24008859  0.18816475  1
  Se  Se248  1  0.41615730  0.24451464  0.68618734  1
  Se  Se249  1  0.41947405  0.57686519  0.20482114  1
  Se  Se250  1  0.41330646  0.58770721  0.69712082  1
  Se  Se251  1  0.41559493  0.91299117  0.19529590  1
  Se  Se252  1  0.41446910  0.92350952  0.69993571  1
  Se  Se253  1  0.76237892  0.24351784  0.19264813  1
  Se  Se254  1  0.75771009  0.23814879  0.68592425  1
  Se  Se255  1  0.75562811  0.57986579  0.19103953  1
  Se  Se256  1  0.75529922  0.58548357  0.68636061  1
  Se  Se257  1  0.75633248  0.91469207  0.20789725  1
  Se  Se258  1  0.75059325  0.91921522  0.69644767  1
