# generated using pymatgen
data_In86Cu29Se144
_symmetry_space_group_name_H-M   'P 1'
_cell_length_a   17.58932987
_cell_length_b   17.58958420
_cell_length_c   23.45027945
_cell_angle_alpha   90.00821195
_cell_angle_beta   90.01410824
_cell_angle_gamma   89.99333048
_symmetry_Int_Tables_number   1
_chemical_formula_structural   In86Cu29Se144
_chemical_formula_sum   'In86 Cu29 Se144'
_cell_volume   7255.25813831
_cell_formula_units_Z   1
loop_
 _symmetry_equiv_pos_site_id
 _symmetry_equiv_pos_as_xyz
  1  'x, y, z'
loop_
 _atom_site_type_symbol
 _atom_site_label
 _atom_site_symmetry_multiplicity
 _atom_site_fract_x
 _atom_site_fract_y
 _atom_site_fract_z
 _atom_site_occupancy
  In  In0  1  -0.00983410  0.17315273  0.13169001  1
  In  In1  1  0.00944202  0.17027768  0.61468300  1
  In  In2  1  0.00748924  0.49121241  0.13536171  1
  In  In3  1  0.00396076  0.49424694  0.63138040  1
  In  In4  1  0.00899623  0.82788328  0.13205091  1
  In  In5  1  -0.01226048  0.82698113  0.62537889  1
  In  In6  1  0.34620003  0.15372496  0.12820812  1
  In  In7  1  0.33079681  0.16710937  0.63516278  1
  In  In8  1  0.33291600  0.49597148  0.12195141  1
  In  In9  1  0.33257376  0.49768144  0.63741949  1
  In  In10  1  0.33851403  0.84041698  0.11507089  1
  In  In11  1  0.32791106  0.84181402  0.64126883  1
  In  In12  1  0.66337016  0.16579481  0.12010320  1
  In  In13  1  0.66605440  0.15511551  0.62284579  1
  In  In14  1  0.64828650  0.48959165  0.12235146  1
  In  In15  1  0.66179536  0.49585959  0.62648356  1
  In  In16  1  0.66260253  0.84555757  0.12473731  1
  In  In17  1  0.68537697  0.84180313  0.63193579  1
  In  In18  1  0.18080149  0.01774280  0.37048591  1
  In  In19  1  0.16526470  -0.01757813  0.87793579  1
  In  In20  1  0.15523032  0.32452945  0.36463483  1
  In  In21  1  0.17546536  0.34272873  0.87480530  1
  In  In22  1  0.15345464  0.67717524  0.37702478  1
  In  In23  1  0.16981063  0.66610466  0.87491336  1
  In  In24  1  0.49884458  -0.00045326  0.36414844  1
  In  In25  1  0.50036080  0.00037825  0.87216591  1
  In  In26  1  0.49535849  0.32722836  0.35544968  1
  In  In27  1  0.49389729  0.34327868  0.89430540  1
  In  In28  1  0.49766421  0.66317485  0.37158012  1
  In  In29  1  0.48334469  0.67883634  0.88481409  1
  In  In30  1  0.83619563  -0.00043128  0.37474815  1
  In  In31  1  0.83245663  0.01452045  0.87510800  1
  In  In32  1  0.82635808  0.32484647  0.36123914  1
  In  In33  1  0.83195051  0.32248190  0.87493256  1
  In  In34  1  0.85545467  0.67559127  0.37583204  1
  In  In35  1  0.83998683  0.66484605  0.86788505  1
  In  In36  1  0.00200257  0.16318460  0.37296323  1
  In  In37  1  -0.01565531  0.16795318  0.87844269  1
  In  In38  1  -0.00537613  0.50399741  0.36131720  1
  In  In39  1  0.01061580  0.50886569  0.87139968  1
  In  In40  1  -0.01110954  0.82781277  0.37252692  1
  In  In41  1  0.01250799  0.83428445  0.87526874  1
  In  In42  1  0.32326563  0.16163117  0.36797206  1
  In  In43  1  0.33983324  0.17800132  0.87090355  1
  In  In44  1  0.34175318  0.49193057  0.37112452  1
  In  In45  1  0.32873285  0.49886190  0.88203501  1
  In  In46  1  0.32628074  0.84369461  0.37597154  1
  In  In47  1  0.33731140  0.83100482  0.86941414  1
  In  In48  1  0.67513156  0.17306927  0.36622573  1
  In  In49  1  0.67456645  0.16512759  0.88468938  1
  In  In50  1  0.68447278  0.49417995  0.36163625  1
  In  In51  1  0.65699953  0.48753762  0.88456163  1
  In  In52  1  0.66658231  0.85146253  0.37123478  1
  In  In53  1  0.64552926  0.83356874  0.86821862  1
  In  In54  1  0.17535226  -0.00720934  0.12898272  1
  In  In55  1  0.16853337  0.01055529  0.62443408  1
  In  In56  1  0.15975606  0.34224013  0.12969390  1
  In  In57  1  0.17246842  0.32649114  0.63090304  1
  In  In58  1  0.16265200  0.66255193  0.11845096  1
  In  In59  1  0.16384992  0.66957264  0.63357950  1
  In  In60  1  0.50029167  0.00156654  0.11922510  1
  In  In61  1  0.50213462  -0.00303303  0.64287342  1
  In  In62  1  0.50280345  0.32773593  0.12583874  1
  In  In63  1  0.49535172  0.32179654  0.62997940  1
  In  In64  1  0.49126348  0.66016800  0.11144713  1
  In  In65  1  0.49511077  0.66039329  0.63426787  1
  In  In66  1  0.82124283  0.01120317  0.13316725  1
  In  In67  1  0.82863908  -0.00504519  0.61715090  1
  In  In68  1  0.84446723  0.32636571  0.13421757  1
  In  In69  1  0.84875195  0.33675601  0.62005266  1
  In  In70  1  0.84151016  0.66947989  0.12836566  1
  In  In71  1  0.84256693  0.68601207  0.62193381  1
  In  In72  1  0.66436958  0.32899784  0.75614749  1
  In  In73  1  0.83834609  0.50146752  0.48923491  1
  In  In74  1  0.66827105  0.66740270  0.75249529  1
  In  In75  1  0.50064053  0.83955601  0.50344164  1
  In  In76  1  -0.00081590  -0.00214813  0.74773635  1
  In  In77  1  0.83121867  0.49425207  0.00721479  1
  In  In78  1  0.66790788  0.66319502  0.24584491  1
  In  In79  1  0.16693842  0.16721991  0.00344221  1
  In  In80  1  0.49932590  0.16174801  0.50129435  1
  In  In81  1  0.16182292  0.49704866  0.48812522  1
  In  In82  1  0.83016905  0.83892689  0.00401012  1
  In  In83  1  0.32760544  0.66570507  0.24012337  1
  In  In84  1  0.15917947  0.84302974  0.51041361  1
  In  In85  1  0.50454046  0.49401563  0.49250356  1
  Cu  Cu86  1  0.16594707  0.17014278  0.24460153  1
  Cu  Cu87  1  0.32551178  0.66865622  0.51037740  1
  Cu  Cu88  1  0.01041564  0.66800828  -0.00121788  1
  Cu  Cu89  1  0.16211898  0.84083209  0.25503720  1
  Cu  Cu90  1  0.67525495  0.00295908  0.49800548  1
  Cu  Cu91  1  0.67557347  0.32863345  0.48915206  1
  Cu  Cu92  1  0.16185222  0.16559200  0.75032281  1
  Cu  Cu93  1  0.00359999  0.32255830  0.49452259  1
  Cu  Cu94  1  0.49509310  0.16783457  0.75556027  1
  Cu  Cu95  1  0.66204562  0.66458167  -0.00318763  1
  Cu  Cu96  1  0.66076326  0.00014522  0.00008015  1
  Cu  Cu97  1  0.83447994  0.16877516  0.75020499  1
  Cu  Cu98  1  0.16849665  0.50744673  0.24616104  1
  Cu  Cu99  1  0.67024515  0.67526180  0.50150725  1
  Cu  Cu100  1  0.32988173  0.66911207  -0.00412852  1
  Cu  Cu101  1  0.33356786  0.33308055  0.00322860  1
  Cu  Cu102  1  0.48966020  0.50067167  0.76437151  1
  Cu  Cu103  1  0.00026887  0.33832650  0.00707873  1
  Cu  Cu104  1  0.83975532  0.50153372  0.74734179  1
  Cu  Cu105  1  0.50283647  0.16346137  0.24177899  1
  Cu  Cu106  1  0.33386166  -0.00384380  -0.00345376  1
  Cu  Cu107  1  0.49369795  0.83765071  0.24263624  1
  Cu  Cu108  1  0.33221669  0.32369818  0.50406619  1
  Cu  Cu109  1  0.83485789  0.15856038  0.25065332  1
  Cu  Cu110  1  0.83658136  0.83587869  0.24816852  1
  Cu  Cu111  1  0.00285224  0.00016520  0.49480205  1
  Cu  Cu112  1  -0.00505044  0.00210003  0.00072598  1
  Cu  Cu113  1  0.16828009  0.49569225  0.75459191  1
  Cu  Cu114  1  0.16912107  0.82613055  0.75319806  1
  Se  Se115  1  0.07641294  0.07902407  0.06362047  1
  Se  Se116  1  0.08861596  0.08126036  0.54834066  1
  Se  Se117  1  0.08488348  0.42380708  0.05508626  1
  Se  Se118  1  0.08010464  0.40693308  0.55494398  1
  Se  Se119  1  0.08608858  0.75663272  0.05341548  1
  Se  Se120  1  0.07523751  0.73733532  0.55759604  1
  Se  Se121  1  0.41657804  0.08154801  0.04788209  1
  Se  Se122  1  0.41715134  0.07602986  0.56799489  1
  Se  Se123  1  0.41957874  0.41436675  0.05629063  1
  Se  Se124  1  0.41205360  0.41071081  0.55923460  1
  Se  Se125  1  0.41622860  0.75292946  0.04704329  1
  Se  Se126  1  0.41083362  0.74801049  0.56453562  1
  Se  Se127  1  0.74907759  0.08009830  0.05220025  1
  Se  Se128  1  0.75558542  0.08994010  0.55009954  1
  Se  Se129  1  0.74598122  0.40221860  0.06478501  1
  Se  Se130  1  0.74460679  0.41404345  0.55314103  1
  Se  Se131  1  0.74103336  0.74124838  0.06019462  1
  Se  Se132  1  0.75105430  0.75848512  0.55428451  1
  Se  Se133  1  0.25512772  0.25400651  0.06619913  1
  Se  Se134  1  0.25115988  0.24344249  0.55979505  1
  Se  Se135  1  0.25369125  0.58449338  0.05456069  1
  Se  Se136  1  0.24877724  0.57808896  0.56129079  1
  Se  Se137  1  0.24582837  0.91745485  0.04926050  1
  Se  Se138  1  0.26387250  0.92559693  0.56000875  1
  Se  Se139  1  0.56665158  0.23436705  0.05422505  1
  Se  Se140  1  0.59250792  0.26014198  0.55571977  1
  Se  Se141  1  0.58127737  0.57812632  0.04859461  1
  Se  Se142  1  0.58844528  0.59172574  0.55580664  1
  Se  Se143  1  0.57875004  0.91235910  0.04966462  1
  Se  Se144  1  0.59283665  0.92858637  0.56181759  1
  Se  Se145  1  0.91716958  0.25080479  0.05458553  1
  Se  Se146  1  0.91501071  0.24657840  0.54889716  1
  Se  Se147  1  0.92805998  0.58861230  0.05798882  1
  Se  Se148  1  0.92073640  0.58174925  0.56106178  1
  Se  Se149  1  0.91984855  0.92318307  0.06675336  1
  Se  Se150  1  0.92340932  0.91901400  0.55338131  1
  Se  Se151  1  0.09089345  0.24261078  0.44279495  1
  Se  Se152  1  0.07678098  0.25645288  0.94254158  1
  Se  Se153  1  0.06439935  0.59122930  0.44157007  1
  Se  Se154  1  0.09051221  0.58126073  0.94680557  1
  Se  Se155  1  0.08442169  0.92255208  0.43354014  1
  Se  Se156  1  0.07916049  0.91560876  0.95279115  1
  Se  Se157  1  0.41697388  0.25567782  0.43902759  1
  Se  Se158  1  0.41345763  0.24458147  0.95242720  1
  Se  Se159  1  0.40439798  0.59230878  0.44602558  1
  Se  Se160  1  0.41651049  0.57989047  0.94956904  1
  Se  Se161  1  0.41220278  0.92953135  0.44341621  1
  Se  Se162  1  0.41713282  0.91538615  0.94037307  1
  Se  Se163  1  0.75962911  0.24435510  0.44076148  1
  Se  Se164  1  0.74704641  0.26025866  0.94913818  1
  Se  Se165  1  0.74187602  0.59428570  0.43606793  1
  Se  Se166  1  0.74917264  0.58906505  0.94019151  1
  Se  Se167  1  0.75383147  0.91469675  0.44574740  1
  Se  Se168  1  0.74234842  0.92175913  0.93812275  1
  Se  Se169  1  0.25948642  0.08505082  0.44832217  1
  Se  Se170  1  0.25214771  0.07927494  0.93806905  1
  Se  Se171  1  0.25821086  0.40267207  0.43889615  1
  Se  Se172  1  0.24675281  0.41687165  0.95370981  1
  Se  Se173  1  0.25177112  0.74853434  0.44707365  1
  Se  Se174  1  0.25036991  0.75435727  0.94125646  1
  Se  Se175  1  0.59024711  0.07736638  0.43738208  1
  Se  Se176  1  0.58014318  0.08347049  0.94438275  1
  Se  Se177  1  0.59294705  0.40668004  0.43044034  1
  Se  Se178  1  0.59403082  0.40572153  0.96012981  1
  Se  Se179  1  0.58593674  0.74725394  0.43872310  1
  Se  Se180  1  0.58140403  0.75344704  0.94752072  1
  Se  Se181  1  0.91778652  0.08386068  0.44360111  1
  Se  Se182  1  0.91023528  0.08715376  0.95255404  1
  Se  Se183  1  0.92614438  0.40514233  0.43376542  1
  Se  Se184  1  0.92332366  0.41514578  0.94004563  1
  Se  Se185  1  0.91628978  0.75827750  0.45311246  1
  Se  Se186  1  0.92045824  0.74553305  0.94450828  1
  Se  Se187  1  0.25088116  0.25260143  0.29917758  1
  Se  Se188  1  0.24417290  0.24957413  0.80528836  1
  Se  Se189  1  0.24295133  0.58430613  0.31389828  1
  Se  Se190  1  0.25189018  0.57950303  0.80783053  1
  Se  Se191  1  0.25294636  0.92206506  0.30194244  1
  Se  Se192  1  0.24885698  0.91602767  0.80271403  1
  Se  Se193  1  0.58788292  0.24611739  0.29549201  1
  Se  Se194  1  0.57278726  0.24758045  0.81828750  1
  Se  Se195  1  0.57547626  0.57291181  0.30561357  1
  Se  Se196  1  0.57931156  0.57958370  0.81648733  1
  Se  Se197  1  0.58134572  0.91699096  0.29571312  1
  Se  Se198  1  0.58721199  0.92903557  0.79909676  1
  Se  Se199  1  0.92067603  0.24381079  0.30120103  1
  Se  Se200  1  0.91862284  0.25217447  0.80156149  1
  Se  Se201  1  0.89613551  0.57775030  0.30155616  1
  Se  Se202  1  0.92295893  0.58435775  0.80047123  1
  Se  Se203  1  0.91875767  0.91912280  0.30295836  1
  Se  Se204  1  0.91202979  0.91369008  0.81341736  1
  Se  Se205  1  0.08699967  0.08482760  0.30145045  1
  Se  Se206  1  0.08499075  0.08661508  0.81462127  1
  Se  Se207  1  0.08574294  0.42251511  0.29987352  1
  Se  Se208  1  0.08214200  0.41268192  0.80578026  1
  Se  Se209  1  0.07843258  0.75193655  0.30184837  1
  Se  Se210  1  0.08215215  0.74545065  0.80473636  1
  Se  Se211  1  0.41698117  0.08747645  0.30095233  1
  Se  Se212  1  0.41062982  0.08221340  0.80529894  1
  Se  Se213  1  0.41399918  0.41821770  0.29536132  1
  Se  Se214  1  0.41332989  0.41055963  0.81594273  1
  Se  Se215  1  0.41751919  0.75788116  0.30623898  1
  Se  Se216  1  0.42164039  0.74827498  0.80168792  1
  Se  Se217  1  0.74939410  0.07616887  0.30374842  1
  Se  Se218  1  0.74816765  0.09141405  0.80430984  1
  Se  Se219  1  0.75133412  0.40837499  0.29004588  1
  Se  Se220  1  0.75622741  0.42737903  0.80907618  1
  Se  Se221  1  0.75250501  0.75639744  0.30869047  1
  Se  Se222  1  0.75672375  0.76196633  0.80947370  1
  Se  Se223  1  0.25112211  0.08363344  0.19573974  1
  Se  Se224  1  0.24759165  0.08018245  0.70174622  1
  Se  Se225  1  0.25041185  0.42115126  0.19572894  1
  Se  Se226  1  0.25108627  0.41038004  0.70105822  1
  Se  Se227  1  0.24009460  0.76357038  0.18805394  1
  Se  Se228  1  0.25428829  0.74213610  0.70133366  1
  Se  Se229  1  0.58570783  0.07749954  0.19073644  1
  Se  Se230  1  0.58471891  0.09225786  0.70122194  1
  Se  Se231  1  0.58060525  0.41036796  0.19843819  1
  Se  Se232  1  0.56939909  0.42443237  0.69886070  1
  Se  Se233  1  0.57176975  0.75074949  0.18640275  1
  Se  Se234  1  0.58246630  0.75728751  0.68939607  1
  Se  Se235  1  0.92147920  0.07658976  0.19855837  1
  Se  Se236  1  0.91490994  0.09184608  0.68693164  1
  Se  Se237  1  0.91311330  0.42219754  0.20026872  1
  Se  Se238  1  0.91980734  0.41085396  0.69854226  1
  Se  Se239  1  0.92004637  0.74891701  0.19962316  1
  Se  Se240  1  0.92001723  0.74745000  0.70205036  1
  Se  Se241  1  0.07941167  0.25495688  0.19620372  1
  Se  Se242  1  0.07960263  0.24668846  0.69425306  1
  Se  Se243  1  0.08369994  0.59168285  0.19573778  1
  Se  Se244  1  0.08627675  0.57836834  0.69816068  1
  Se  Se245  1  0.08133348  0.92310568  0.19785903  1
  Se  Se246  1  0.09188548  0.90683137  0.68850715  1
  Se  Se247  1  0.41409481  0.24883467  0.19588792  1
  Se  Se248  1  0.41231786  0.25336644  0.70364151  1
  Se  Se249  1  0.42672728  0.57670766  0.19200218  1
  Se  Se250  1  0.41283851  0.58357394  0.70481334  1
  Se  Se251  1  0.41219110  0.92170778  0.18929466  1
  Se  Se252  1  0.42258231  0.90981167  0.70660966  1
  Se  Se253  1  0.75338158  0.23817050  0.19228381  1
  Se  Se254  1  0.75480734  0.24973414  0.68762134  1
  Se  Se255  1  0.75190424  0.57411649  0.18273147  1
  Se  Se256  1  0.75716003  0.57819909  0.68681293  1
  Se  Se257  1  0.74693801  0.91534970  0.19803498  1
  Se  Se258  1  0.75478421  0.93243242  0.69952866  1
