# generated using pymatgen
data_In86Cu29Se144
_symmetry_space_group_name_H-M   'P 1'
_cell_length_a   17.58693441
_cell_length_b   17.58224501
_cell_length_c   23.44127394
_cell_angle_alpha   89.98855979
_cell_angle_beta   90.00976892
_cell_angle_gamma   89.98771242
_symmetry_Int_Tables_number   1
_chemical_formula_structural   In86Cu29Se144
_chemical_formula_sum   'In86 Cu29 Se144'
_cell_volume   7248.45849995
_cell_formula_units_Z   1
loop_
 _symmetry_equiv_pos_site_id
 _symmetry_equiv_pos_as_xyz
  1  'x, y, z'
loop_
 _atom_site_type_symbol
 _atom_site_label
 _atom_site_symmetry_multiplicity
 _atom_site_fract_x
 _atom_site_fract_y
 _atom_site_fract_z
 _atom_site_occupancy
  In  In0  1  -0.00881729  0.17349714  0.11872851  1
  In  In1  1  -0.00048747  0.18746382  0.63282032  1
  In  In2  1  0.00703329  0.51769420  0.12103743  1
  In  In3  1  -0.00448209  0.50025463  0.63331652  1
  In  In4  1  -0.00372929  0.82311733  0.11677707  1
  In  In5  1  -0.01325211  0.81664512  0.60914804  1
  In  In6  1  0.33635254  0.14885435  0.12079370  1
  In  In7  1  0.33916777  0.14787079  0.63645224  1
  In  In8  1  0.34266578  0.49882125  0.12462998  1
  In  In9  1  0.34684281  0.50963605  0.61710772  1
  In  In10  1  0.32856432  0.83557523  0.12988963  1
  In  In11  1  0.33458905  0.83306880  0.62298040  1
  In  In12  1  0.66826035  0.16792639  0.11303698  1
  In  In13  1  0.65262673  0.15373677  0.61998689  1
  In  In14  1  0.66520908  0.49657676  0.11450573  1
  In  In15  1  0.67079493  0.52797045  0.62610060  1
  In  In16  1  0.67662900  0.82358261  0.12164413  1
  In  In17  1  0.66829830  0.82992106  0.62754628  1
  In  In18  1  0.16908704  -0.01701092  0.37910700  1
  In  In19  1  0.16508660  -0.01978009  0.87342213  1
  In  In20  1  0.17686877  0.34095501  0.37863098  1
  In  In21  1  0.16101742  0.34928070  0.87178517  1
  In  In22  1  0.17219055  0.66729850  0.37891319  1
  In  In23  1  0.17595440  0.67902354  0.86714434  1
  In  In24  1  0.49740181  0.00311571  0.37858268  1
  In  In25  1  0.50289053  0.01003775  0.85553591  1
  In  In26  1  0.49817371  0.33117955  0.39167095  1
  In  In27  1  0.50623907  0.33189612  0.87669338  1
  In  In28  1  0.48670772  0.68442089  0.39523681  1
  In  In29  1  0.48928052  0.65975049  0.86888565  1
  In  In30  1  0.83357176  -0.00232159  0.38281761  1
  In  In31  1  0.82697393  0.00984375  0.87714778  1
  In  In32  1  0.81899267  0.33252283  0.38159447  1
  In  In33  1  0.83301528  0.32893075  0.87082883  1
  In  In34  1  0.84305141  0.67049235  0.37699576  1
  In  In35  1  0.83354942  0.66535777  0.86904237  1
  In  In36  1  -0.01027756  0.16187193  0.38123437  1
  In  In37  1  -0.01356759  0.16232707  0.87008460  1
  In  In38  1  -0.00563664  0.52983654  0.38095981  1
  In  In39  1  -0.01426066  0.49795598  0.85537040  1
  In  In40  1  0.02944275  0.79921428  0.41293245  1
  In  In41  1  0.00764485  0.82257808  0.87738868  1
  In  In42  1  0.34760171  0.15986105  0.37751068  1
  In  In43  1  0.34654244  0.16672132  0.86932718  1
  In  In44  1  0.31554310  0.50709228  0.38849226  1
  In  In45  1  0.33908317  0.52097358  0.87494655  1
  In  In46  1  0.33508583  0.83285183  0.37594925  1
  In  In47  1  0.32282006  0.82390931  0.86782157  1
  In  In48  1  0.66604354  0.17378279  0.39604917  1
  In  In49  1  0.66607608  0.16501561  0.86978799  1
  In  In50  1  0.65516851  0.49805389  0.38416440  1
  In  In51  1  0.66056264  0.50701867  0.87394094  1
  In  In52  1  0.66801425  0.81993084  0.39645359  1
  In  In53  1  0.67224192  0.84236998  0.86667341  1
  In  In54  1  0.18272795  -0.00665199  0.12454503  1
  In  In55  1  0.18510084  -0.00239241  0.63089674  1
  In  In56  1  0.16684401  0.33637635  0.12300824  1
  In  In57  1  0.14862139  0.33179990  0.63170836  1
  In  In58  1  0.16179601  0.67305688  0.12949155  1
  In  In59  1  0.16535822  0.66938888  0.61869268  1
  In  In60  1  0.48470615  -0.00619536  0.12096987  1
  In  In61  1  0.50300190  -0.00171453  0.63043657  1
  In  In62  1  0.50952885  0.33547531  0.11703116  1
  In  In63  1  0.50816399  0.33019013  0.61354469  1
  In  In64  1  0.49702614  0.65529195  0.12474601  1
  In  In65  1  0.49929077  0.66790897  0.62419763  1
  In  In66  1  0.83370729  -0.00066865  0.11422241  1
  In  In67  1  0.82107157  -0.01291258  0.62379772  1
  In  In68  1  0.82876319  0.33051692  0.11174705  1
  In  In69  1  0.84522875  0.34371249  0.62694702  1
  In  In70  1  0.84608912  0.67554577  0.11294904  1
  In  In71  1  0.83135033  0.66802366  0.63600421  1
  In  In72  1  0.16567859  0.50501805  -0.00350276  1
  In  In73  1  0.32887448  0.33396765  0.74323282  1
  In  In74  1  0.50406902  0.83492751  -0.00482441  1
  In  In75  1  0.16533167  0.16773214  0.51128763  1
  In  In76  1  0.16571157  0.16060481  0.00309646  1
  In  In77  1  0.66318969  0.66361005  0.25055955  1
  In  In78  1  0.83062309  0.50372696  0.50666062  1
  In  In79  1  0.66179165  0.33602221  0.26367619  1
  In  In80  1  0.33771921  0.33638601  0.25014327  1
  In  In81  1  0.00208178  0.34011586  0.24395811  1
  In  In82  1  0.00282061  -0.00555453  0.74878998  1
  In  In83  1  0.00107601  -0.00984686  0.25376113  1
  In  In84  1  0.66821707  0.33360284  0.74554342  1
  In  In85  1  0.66193900  -0.00194751  0.25412101  1
  Cu  Cu86  1  0.34584089  0.33351225  -0.00302984  1
  Cu  Cu87  1  -0.00534824  0.00797501  0.50653337  1
  Cu  Cu88  1  0.49098466  0.50439342  0.25426454  1
  Cu  Cu89  1  -0.00140515  0.33932709  0.50381295  1
  Cu  Cu90  1  0.82894010  0.16516262  0.74876787  1
  Cu  Cu91  1  0.67199830  0.66563180  -0.00385577  1
  Cu  Cu92  1  0.49441826  0.15695668  0.25091512  1
  Cu  Cu93  1  0.49803539  0.82983148  0.74526612  1
  Cu  Cu94  1  0.83972277  0.51425730  0.24664602  1
  Cu  Cu95  1  0.84144932  0.83243085  0.25155344  1
  Cu  Cu96  1  -0.00313565  0.65998974  -0.00757581  1
  Cu  Cu97  1  0.16486964  0.50980634  0.74728746  1
  Cu  Cu98  1  0.66646987  0.00409172  -0.00919975  1
  Cu  Cu99  1  -0.00241386  -0.00832080  -0.00663089  1
  Cu  Cu100  1  0.49377134  0.83364765  0.25582918  1
  Cu  Cu101  1  0.33945528  -0.00268963  -0.00458968  1
  Cu  Cu102  1  0.17349321  0.15498758  0.24993723  1
  Cu  Cu103  1  0.83346437  0.83051658  0.74805195  1
  Cu  Cu104  1  0.66227392  -0.00065029  0.50688162  1
  Cu  Cu105  1  0.16914084  0.83211646  0.74179765  1
  Cu  Cu106  1  0.82764169  0.16741413  0.24946537  1
  Cu  Cu107  1  0.33422991  0.66965300  0.50164860  1
  Cu  Cu108  1  0.33877487  -0.00370237  0.50361959  1
  Cu  Cu109  1  0.49665760  0.50325490  0.74714342  1
  Cu  Cu110  1  0.16181698  0.51349915  0.25759125  1
  Cu  Cu111  1  0.66735403  0.33378620  -0.00889872  1
  Cu  Cu112  1  0.32834108  0.33388049  0.50622381  1
  Cu  Cu113  1  0.16924519  0.82718442  0.25788564  1
  Cu  Cu114  1  -0.01038546  0.33042111  -0.00928481  1
  Se  Se115  1  0.07406329  0.06842082  0.06257931  1
  Se  Se116  1  0.07509651  0.07971545  0.57108035  1
  Se  Se117  1  0.07198416  0.40729778  0.05373856  1
  Se  Se118  1  0.07874607  0.42016888  0.56012476  1
  Se  Se119  1  0.08091736  0.73951137  0.05034339  1
  Se  Se120  1  0.08998033  0.75445373  0.54593644  1
  Se  Se121  1  0.42300384  0.08379835  0.04572790  1
  Se  Se122  1  0.41833921  0.08040428  0.55839754  1
  Se  Se123  1  0.42252371  0.41972031  0.05319920  1
  Se  Se124  1  0.42031374  0.41605648  0.55088118  1
  Se  Se125  1  0.41650669  0.75006511  0.06044066  1
  Se  Se126  1  0.41868269  0.75263248  0.55367800  1
  Se  Se127  1  0.75204658  0.08401444  0.04746376  1
  Se  Se128  1  0.75126375  0.08192808  0.55610930  1
  Se  Se129  1  0.75014926  0.41814839  0.04587970  1
  Se  Se130  1  0.74068483  0.41480444  0.56510719  1
  Se  Se131  1  0.75541059  0.75318901  0.04593639  1
  Se  Se132  1  0.75959197  0.75109357  0.56304091  1
  Se  Se133  1  0.26182435  0.25685116  0.05752568  1
  Se  Se134  1  0.25640767  0.25408706  0.57180542  1
  Se  Se135  1  0.25322123  0.58742999  0.06174450  1
  Se  Se136  1  0.25121938  0.58353907  0.55232612  1
  Se  Se137  1  0.25784294  0.91468464  0.05059798  1
  Se  Se138  1  0.24981798  0.91622137  0.55288411  1
  Se  Se139  1  0.58400232  0.25009911  0.04650018  1
  Se  Se140  1  0.58426179  0.24252896  0.54749050  1
  Se  Se141  1  0.58524867  0.58797241  0.05172334  1
  Se  Se142  1  0.57627795  0.58135991  0.55367594  1
  Se  Se143  1  0.59525546  0.92499757  0.05992040  1
  Se  Se144  1  0.58227277  0.91390590  0.56030227  1
  Se  Se145  1  0.90978899  0.24408783  0.04443253  1
  Se  Se146  1  0.91679896  0.25379347  0.55504278  1
  Se  Se147  1  0.91490711  0.57674801  0.04707329  1
  Se  Se148  1  0.92417426  0.59309146  0.56011121  1
  Se  Se149  1  0.91497997  0.91082614  0.05070914  1
  Se  Se150  1  0.91145874  0.91833552  0.55248206  1
  Se  Se151  1  0.07876254  0.25609658  0.44266300  1
  Se  Se152  1  0.08041087  0.25230527  0.93863692  1
  Se  Se153  1  0.09223286  0.58394162  0.44939599  1
  Se  Se154  1  0.07829045  0.58460171  0.92912905  1
  Se  Se155  1  0.08136386  0.92601364  0.45544313  1
  Se  Se156  1  0.08665103  0.90753193  0.94914911  1
  Se  Se157  1  0.40887235  0.24667861  0.45324811  1
  Se  Se158  1  0.42298403  0.24584111  0.94349214  1
  Se  Se159  1  0.41529803  0.57791476  0.45085776  1
  Se  Se160  1  0.42107751  0.58703501  0.95016990  1
  Se  Se161  1  0.41891712  0.91460609  0.44561001  1
  Se  Se162  1  0.41684832  0.92061610  0.93045515  1
  Se  Se163  1  0.76341557  0.24499521  0.45759318  1
  Se  Se164  1  0.74819307  0.24775089  0.93848381  1
  Se  Se165  1  0.74355042  0.59187298  0.44103759  1
  Se  Se166  1  0.75268285  0.58213075  0.94103563  1
  Se  Se167  1  0.74675869  0.92005593  0.45107015  1
  Se  Se168  1  0.75067191  0.91699679  0.94312528  1
  Se  Se169  1  0.25305643  0.07912796  0.44514031  1
  Se  Se170  1  0.25351858  0.07709176  0.93796536  1
  Se  Se171  1  0.24082619  0.41767002  0.45831249  1
  Se  Se172  1  0.26224756  0.41286358  0.94049492  1
  Se  Se173  1  0.25255177  0.75417263  0.44749691  1
  Se  Se174  1  0.25303728  0.74660273  0.94553918  1
  Se  Se175  1  0.57879613  0.08086035  0.45092254  1
  Se  Se176  1  0.58003841  0.08004497  0.93567206  1
  Se  Se177  1  0.60181966  0.39655901  0.45054574  1
  Se  Se178  1  0.58212056  0.42070794  0.94390949  1
  Se  Se179  1  0.58649583  0.74006644  0.46351108  1
  Se  Se180  1  0.59168405  0.74508661  0.93483050  1
  Se  Se181  1  0.90902338  0.08734164  0.45283605  1
  Se  Se182  1  0.91777090  0.08296163  0.94722116  1
  Se  Se183  1  0.92170555  0.41650555  0.43838609  1
  Se  Se184  1  0.91708680  0.41846467  0.93455948  1
  Se  Se185  1  0.89906080  0.76020629  0.45238107  1
  Se  Se186  1  0.91381598  0.74774349  0.94238599  1
  Se  Se187  1  0.24690195  0.24213316  0.30950717  1
  Se  Se188  1  0.24380113  0.25116507  0.81279282  1
  Se  Se189  1  0.25574495  0.58694071  0.30699881  1
  Se  Se190  1  0.25326077  0.58703324  0.80030423  1
  Se  Se191  1  0.25258874  0.91611404  0.30441395  1
  Se  Se192  1  0.25004685  0.91524693  0.79750667  1
  Se  Se193  1  0.57171833  0.23582657  0.31465339  1
  Se  Se194  1  0.57291268  0.24392616  0.80049782  1
  Se  Se195  1  0.57211677  0.58240335  0.31479697  1
  Se  Se196  1  0.58108675  0.58555204  0.80087023  1
  Se  Se197  1  0.58211958  0.90245637  0.31624147  1
  Se  Se198  1  0.58232523  0.91412778  0.79641496  1
  Se  Se199  1  0.91059295  0.24952540  0.30661836  1
  Se  Se200  1  0.91465452  0.24899085  0.79875024  1
  Se  Se201  1  0.92131643  0.59836534  0.29940961  1
  Se  Se202  1  0.92722024  0.60499270  0.79547998  1
  Se  Se203  1  0.91615069  0.90592349  0.31828488  1
  Se  Se204  1  0.91126546  0.91109729  0.81213081  1
  Se  Se205  1  0.08808945  0.08796087  0.31329151  1
  Se  Se206  1  0.08917545  0.08421397  0.81249828  1
  Se  Se207  1  0.08367887  0.42546551  0.31383088  1
  Se  Se208  1  0.08351058  0.41946479  0.79517550  1
  Se  Se209  1  0.08157745  0.75367339  0.31498002  1
  Se  Se210  1  0.08506599  0.75345823  0.79872173  1
  Se  Se211  1  0.41246580  0.07306508  0.30226584  1
  Se  Se212  1  0.40266250  0.07915798  0.79288667  1
  Se  Se213  1  0.41949315  0.42132807  0.31876538  1
  Se  Se214  1  0.41958567  0.42154267  0.80785584  1
  Se  Se215  1  0.41754157  0.74445146  0.30861009  1
  Se  Se216  1  0.41370931  0.74837630  0.80021407  1
  Se  Se217  1  0.74945620  0.09224372  0.31347300  1
  Se  Se218  1  0.74700426  0.08042563  0.80049884  1
  Se  Se219  1  0.76009734  0.43539342  0.30852565  1
  Se  Se220  1  0.75329341  0.42514325  0.80604034  1
  Se  Se221  1  0.75001701  0.75943713  0.30893035  1
  Se  Se222  1  0.74690378  0.74863700  0.80109725  1
  Se  Se223  1  0.25875581  0.07587951  0.19710505  1
  Se  Se224  1  0.23500543  0.09565449  0.70255403  1
  Se  Se225  1  0.23756956  0.42807487  0.19623204  1
  Se  Se226  1  0.24427238  0.43014597  0.68472705  1
  Se  Se227  1  0.25082342  0.74811248  0.19868734  1
  Se  Se228  1  0.25139389  0.74705302  0.68996386  1
  Se  Se229  1  0.57904072  0.08734004  0.18639283  1
  Se  Se230  1  0.58620052  0.08049436  0.69974871  1
  Se  Se231  1  0.57666614  0.42579900  0.19592050  1
  Se  Se232  1  0.57763969  0.42605045  0.68649131  1
  Se  Se233  1  0.57412640  0.75917484  0.19093575  1
  Se  Se234  1  0.58411762  0.74552972  0.69579643  1
  Se  Se235  1  0.91067370  0.08711530  0.19214733  1
  Se  Se236  1  0.91138371  0.08473579  0.68872604  1
  Se  Se237  1  0.90780155  0.42521675  0.18380516  1
  Se  Se238  1  0.92368782  0.41086235  0.70346913  1
  Se  Se239  1  0.91772874  0.74922480  0.19346262  1
  Se  Se240  1  0.92418298  0.75312317  0.69743777  1
  Se  Se241  1  0.09387910  0.23669904  0.19087593  1
  Se  Se242  1  0.08932716  0.24471726  0.70724994  1
  Se  Se243  1  0.07794080  0.59101627  0.19993142  1
  Se  Se244  1  0.08264999  0.59173451  0.69234489  1
  Se  Se245  1  0.09239395  0.90561384  0.19035895  1
  Se  Se246  1  0.08326749  0.90605833  0.68164186  1
  Se  Se247  1  0.42494561  0.24448303  0.18804966  1
  Se  Se248  1  0.42823301  0.24837920  0.68992861  1
  Se  Se249  1  0.41019439  0.58607497  0.19891817  1
  Se  Se250  1  0.41343542  0.58823362  0.69589219  1
  Se  Se251  1  0.41490399  0.91694660  0.19865967  1
  Se  Se252  1  0.41340106  0.91539488  0.69497560  1
  Se  Se253  1  0.74801174  0.25095545  0.19157725  1
  Se  Se254  1  0.75458451  0.24316142  0.68373037  1
  Se  Se255  1  0.75318879  0.58267362  0.18375943  1
  Se  Se256  1  0.76562890  0.56965273  0.70252037  1
  Se  Se257  1  0.75962529  0.91204451  0.19340520  1
  Se  Se258  1  0.74581670  0.91555073  0.70140517  1
