# generated using pymatgen
data_In86Cu29Se144
_symmetry_space_group_name_H-M   'P 1'
_cell_length_a   17.59503975
_cell_length_b   17.59681469
_cell_length_c   23.45644550
_cell_angle_alpha   89.99639965
_cell_angle_beta   89.99716701
_cell_angle_gamma   89.99117672
_symmetry_Int_Tables_number   1
_chemical_formula_structural   In86Cu29Se144
_chemical_formula_sum   'In86 Cu29 Se144'
_cell_volume   7262.50605778
_cell_formula_units_Z   1
loop_
 _symmetry_equiv_pos_site_id
 _symmetry_equiv_pos_as_xyz
  1  'x, y, z'
loop_
 _atom_site_type_symbol
 _atom_site_label
 _atom_site_symmetry_multiplicity
 _atom_site_fract_x
 _atom_site_fract_y
 _atom_site_fract_z
 _atom_site_occupancy
  In  In0  1  -0.00001804  0.17302067  0.12296956  1
  In  In1  1  0.01781316  0.17223819  0.61916515  1
  In  In2  1  0.00236746  0.49816528  0.12703266  1
  In  In3  1  -0.01019214  0.48042977  0.60551971  1
  In  In4  1  -0.01644215  0.85229886  0.14741870  1
  In  In5  1  -0.01073138  0.82963045  0.61822086  1
  In  In6  1  0.34152417  0.17252945  0.11037444  1
  In  In7  1  0.29159290  0.20948252  0.67748536  1
  In  In8  1  0.33665252  0.51269226  0.12023422  1
  In  In9  1  0.33552686  0.49751103  0.62498722  1
  In  In10  1  0.31919554  0.82659539  0.12928678  1
  In  In11  1  0.33652366  0.83316453  0.63314031  1
  In  In12  1  0.66272519  0.16309322  0.11456714  1
  In  In13  1  0.65581642  0.16705912  0.63257361  1
  In  In14  1  0.67757682  0.50045313  0.11132623  1
  In  In15  1  0.67147952  0.50519090  0.61412015  1
  In  In16  1  0.69219990  0.81730039  0.14653338  1
  In  In17  1  0.67571169  0.84601493  0.62544285  1
  In  In18  1  0.15723355  0.01397571  0.37932507  1
  In  In19  1  0.17637235  0.00496730  0.87034262  1
  In  In20  1  0.13424015  0.35174934  0.40177694  1
  In  In21  1  0.17033051  0.33110746  0.86750966  1
  In  In22  1  0.15185252  0.65258012  0.35587866  1
  In  In23  1  0.16703315  0.65596118  0.87707435  1
  In  In24  1  0.49645958  -0.00278770  0.37110238  1
  In  In25  1  0.50964012  0.00649392  0.87449207  1
  In  In26  1  0.50736161  0.34928313  0.37948924  1
  In  In27  1  0.48992100  0.34466235  0.88183984  1
  In  In28  1  0.49571779  0.65523635  0.36396047  1
  In  In29  1  0.48780136  0.65877115  0.87547323  1
  In  In30  1  0.83182565  -0.00540824  0.35715282  1
  In  In31  1  0.82867074  0.00586143  0.88546492  1
  In  In32  1  0.84687982  0.33290324  0.37625252  1
  In  In33  1  0.83942129  0.32891947  0.88154322  1
  In  In34  1  0.82473486  0.65742761  0.35986478  1
  In  In35  1  0.83800434  0.66017828  0.89003700  1
  In  In36  1  0.00670206  0.17518894  0.36153386  1
  In  In37  1  -0.00046194  0.16912437  0.87867465  1
  In  In38  1  -0.00424222  0.49683753  0.37177738  1
  In  In39  1  0.00797094  0.49843873  0.87989973  1
  In  In40  1  -0.01442218  0.81985695  0.34503764  1
  In  In41  1  -0.00533276  0.82220060  0.88551162  1
  In  In42  1  0.32122932  0.15818101  0.37910530  1
  In  In43  1  0.32934287  0.17033742  0.87370984  1
  In  In44  1  0.32582122  0.49690578  0.38226813  1
  In  In45  1  0.33170754  0.49670821  0.87131753  1
  In  In46  1  0.34084244  0.83039642  0.37584912  1
  In  In47  1  0.33043353  0.82742547  0.86598457  1
  In  In48  1  0.67524420  0.17241755  0.36948210  1
  In  In49  1  0.68355981  0.16284163  0.89177530  1
  In  In50  1  0.65902078  0.50496683  0.38280805  1
  In  In51  1  0.67240073  0.48679026  0.89043455  1
  In  In52  1  0.67354984  0.83749375  0.35616268  1
  In  In53  1  0.66940865  0.84101258  0.88186491  1
  In  In54  1  0.15649203  0.00778868  0.12692967  1
  In  In55  1  0.16546701  0.01956198  0.62930076  1
  In  In56  1  0.16114020  0.32801672  0.11828412  1
  In  In57  1  0.16397098  0.34143678  0.62558262  1
  In  In58  1  0.16976436  0.66468901  0.13914121  1
  In  In59  1  0.18272620  0.65884919  0.62668429  1
  In  In60  1  0.50789867  0.01065547  0.11789045  1
  In  In61  1  0.49247972  0.01060977  0.63689690  1
  In  In62  1  0.51174726  0.34172370  0.09819087  1
  In  In63  1  0.49457705  0.33204058  0.62731054  1
  In  In64  1  0.50920816  0.66591173  0.13070848  1
  In  In65  1  0.49699494  0.65516979  0.62224285  1
  In  In66  1  0.83429278  -0.00012104  0.12506676  1
  In  In67  1  0.82678104  -0.00305743  0.63263216  1
  In  In68  1  0.84289376  0.34709934  0.11192915  1
  In  In69  1  0.84083162  0.35329823  0.62923717  1
  In  In70  1  0.84003107  0.66524154  0.12948749  1
  In  In71  1  0.84390441  0.65279304  0.62480834  1
  In  In72  1  0.66396293  0.32893519  0.75864019  1
  In  In73  1  0.33045854  -0.00300815  0.24590325  1
  In  In74  1  0.16208919  0.83191745  0.49005751  1
  In  In75  1  0.50397391  0.83050238  0.49001231  1
  In  In76  1  0.67251177  0.33527697  0.24224223  1
  In  In77  1  0.32941734  0.32538887  0.24856385  1
  In  In78  1  0.66141965  0.66567998  0.74566110  1
  In  In79  1  0.00239049  0.66009360  0.75612045  1
  In  In80  1  0.82810476  0.82479607  0.48121713  1
  In  In81  1  0.50450758  0.83146025  0.00358734  1
  In  In82  1  -0.00009261  0.00507355  0.75562702  1
  In  In83  1  0.49126212  0.17197084  0.51087014  1
  In  In84  1  0.83523009  0.17058179  0.49612959  1
  In  In85  1  0.15344043  0.83388449  0.01282740  1
  Cu  Cu86  1  0.32069236  0.00682952  0.50958571  1
  Cu  Cu87  1  0.32485357  0.66213339  0.00059663  1
  Cu  Cu88  1  0.16130302  0.17118734  0.24955938  1
  Cu  Cu89  1  0.50142371  0.83491240  0.24939462  1
  Cu  Cu90  1  0.83484747  0.49582645  0.24449203  1
  Cu  Cu91  1  -0.00474388  0.66487496  0.01108704  1
  Cu  Cu92  1  0.32086927  0.33642007  -0.00593433  1
  Cu  Cu93  1  0.16792021  0.49941397  0.74913865  1
  Cu  Cu94  1  0.50165623  0.50287555  0.24579016  1
  Cu  Cu95  1  0.67790839  -0.00941226  0.00549798  1
  Cu  Cu96  1  0.83430208  0.16690636  0.75824438  1
  Cu  Cu97  1  0.82377019  0.83467816  0.75487366  1
  Cu  Cu98  1  0.33440892  0.00169059  -0.00696981  1
  Cu  Cu99  1  0.83499995  0.16238807  0.24402984  1
  Cu  Cu100  1  0.16679850  0.83719424  0.74432593  1
  Cu  Cu101  1  0.66943145  0.66362070  0.00837352  1
  Cu  Cu102  1  0.00760487  0.33773375  -0.00274773  1
  Cu  Cu103  1  0.49888454  0.49832209  0.75178219  1
  Cu  Cu104  1  0.33315382  0.32551894  0.51069923  1
  Cu  Cu105  1  0.16861295  0.49226828  0.25438904  1
  Cu  Cu106  1  0.50077220  0.17120033  0.24058173  1
  Cu  Cu107  1  0.33568316  0.65758481  0.49556349  1
  Cu  Cu108  1  -0.00764532  -0.00172644  0.49352196  1
  Cu  Cu109  1  0.00879139  0.65708707  0.49269465  1
  Cu  Cu110  1  0.50518130  0.15738376  0.76107912  1
  Cu  Cu111  1  0.50238483  0.83420727  0.75632147  1
  Cu  Cu112  1  0.65693754  0.00868022  0.49903706  1
  Cu  Cu113  1  0.67219825  0.66849903  0.49403956  1
  Cu  Cu114  1  -0.00231201  0.00499392  0.00431324  1
  Se  Se115  1  0.08434508  0.08883220  0.05328396  1
  Se  Se116  1  0.07773476  0.07360972  0.55012156  1
  Se  Se117  1  0.08703426  0.42226381  0.05333798  1
  Se  Se118  1  0.09947347  0.42464853  0.54731801  1
  Se  Se119  1  0.06918976  0.74452105  0.07463426  1
  Se  Se120  1  0.07807713  0.73974504  0.55756505  1
  Se  Se121  1  0.42071604  0.08086009  0.04629171  1
  Se  Se122  1  0.40133896  0.08527721  0.56906590  1
  Se  Se123  1  0.40308683  0.41776595  0.05055938  1
  Se  Se124  1  0.41913681  0.41443418  0.55534818  1
  Se  Se125  1  0.40675047  0.74345218  0.05914422  1
  Se  Se126  1  0.41040223  0.74672359  0.55308009  1
  Se  Se127  1  0.75752875  0.08403958  0.05226751  1
  Se  Se128  1  0.74245822  0.08012699  0.55965030  1
  Se  Se129  1  0.72836395  0.38904186  0.04893574  1
  Se  Se130  1  0.75449898  0.41535056  0.55487386  1
  Se  Se131  1  0.75303506  0.74786106  0.06052606  1
  Se  Se132  1  0.74832388  0.74551156  0.55911830  1
  Se  Se133  1  0.24563684  0.24789522  0.04891707  1
  Se  Se134  1  0.25606000  0.24549772  0.57118354  1
  Se  Se135  1  0.23869031  0.58788305  0.05774988  1
  Se  Se136  1  0.25304265  0.57760494  0.55170884  1
  Se  Se137  1  0.25707612  0.92711803  0.05827126  1
  Se  Se138  1  0.24570860  0.91396893  0.56252328  1
  Se  Se139  1  0.56227061  0.22417078  0.04725816  1
  Se  Se140  1  0.59460142  0.26028159  0.55828410  1
  Se  Se141  1  0.57797412  0.58317666  0.05518606  1
  Se  Se142  1  0.58575072  0.59022173  0.54959677  1
  Se  Se143  1  0.59911387  0.90963031  0.06641720  1
  Se  Se144  1  0.58105930  0.92465878  0.55783811  1
  Se  Se145  1  0.92232118  0.25401325  0.04951118  1
  Se  Se146  1  0.92155847  0.25608000  0.55993497  1
  Se  Se147  1  0.91226423  0.57531246  0.05838880  1
  Se  Se148  1  0.91695857  0.58320516  0.54593763  1
  Se  Se149  1  0.92271961  0.91581812  0.05882386  1
  Se  Se150  1  0.90757433  0.92146031  0.55085607  1
  Se  Se151  1  0.08299731  0.22932496  0.44626331  1
  Se  Se152  1  0.08800500  0.25318090  0.94150787  1
  Se  Se153  1  0.09054574  0.57663496  0.43795639  1
  Se  Se154  1  0.07852251  0.59145110  0.95004109  1
  Se  Se155  1  0.06381932  0.91347649  0.43169861  1
  Se  Se156  1  0.07772205  0.92593021  0.94104576  1
  Se  Se157  1  0.40924823  0.25576529  0.43839591  1
  Se  Se158  1  0.40911188  0.25263226  0.94497594  1
  Se  Se159  1  0.42275178  0.57918611  0.44193570  1
  Se  Se160  1  0.40812542  0.58064357  0.94650505  1
  Se  Se161  1  0.40417935  0.93215623  0.44828806  1
  Se  Se162  1  0.41267336  0.91393766  0.93899194  1
  Se  Se163  1  0.74110264  0.26340680  0.44219050  1
  Se  Se164  1  0.73786343  0.27393471  0.95204402  1
  Se  Se165  1  0.75718823  0.58556785  0.44223357  1
  Se  Se166  1  0.75175678  0.57770398  0.95512748  1
  Se  Se167  1  0.73671298  0.92980993  0.43714413  1
  Se  Se168  1  0.76119432  0.90728895  0.95239906  1
  Se  Se169  1  0.23944749  0.08748976  0.45389930  1
  Se  Se170  1  0.24788940  0.08557396  0.94502252  1
  Se  Se171  1  0.25471703  0.40587929  0.45083027  1
  Se  Se172  1  0.24114785  0.42194391  0.93981593  1
  Se  Se173  1  0.25423104  0.73764047  0.43636153  1
  Se  Se174  1  0.24786187  0.75208901  0.94584572  1
  Se  Se175  1  0.57986096  0.08890873  0.43862273  1
  Se  Se176  1  0.59412465  0.07239900  0.95041416  1
  Se  Se177  1  0.58466069  0.41969850  0.45362602  1
  Se  Se178  1  0.56680299  0.42876381  0.95142053  1
  Se  Se179  1  0.59709474  0.74603744  0.42970670  1
  Se  Se180  1  0.58932469  0.73677067  0.94168104  1
  Se  Se181  1  0.91465131  0.07722358  0.43144674  1
  Se  Se182  1  0.91652197  0.08866958  0.94885987  1
  Se  Se183  1  0.93022561  0.40729891  0.44571525  1
  Se  Se184  1  0.91936171  0.41966748  0.94696877  1
  Se  Se185  1  0.92916132  0.73754367  0.43172407  1
  Se  Se186  1  0.91276491  0.75004605  0.95847764  1
  Se  Se187  1  0.23816103  0.24740108  0.31424951  1
  Se  Se188  1  0.25955659  0.25420883  0.79693770  1
  Se  Se189  1  0.25767315  0.57494009  0.30336632  1
  Se  Se190  1  0.24946879  0.58527590  0.80322456  1
  Se  Se191  1  0.24744691  0.91928028  0.31724193  1
  Se  Se192  1  0.24936056  0.91629643  0.80143795  1
  Se  Se193  1  0.57444802  0.25203195  0.30503928  1
  Se  Se194  1  0.57933642  0.24088146  0.82339629  1
  Se  Se195  1  0.59120914  0.57871992  0.30069566  1
  Se  Se196  1  0.58326190  0.57331147  0.81239620  1
  Se  Se197  1  0.58011792  0.92508291  0.29961783  1
  Se  Se198  1  0.58750268  0.91434364  0.80869769  1
  Se  Se199  1  0.91201024  0.25088330  0.29802464  1
  Se  Se200  1  0.91890211  0.25120588  0.80769892  1
  Se  Se201  1  0.91952064  0.57869782  0.29845140  1
  Se  Se202  1  0.90617582  0.57565348  0.81222905  1
  Se  Se203  1  0.92453116  0.92841110  0.28916095  1
  Se  Se204  1  0.91208098  0.90849216  0.81296703  1
  Se  Se205  1  0.08187302  0.07846646  0.29726546  1
  Se  Se206  1  0.09485569  0.09765628  0.80456560  1
  Se  Se207  1  0.08453570  0.40934346  0.30770386  1
  Se  Se208  1  0.08337661  0.42011181  0.80472786  1
  Se  Se209  1  0.10045405  0.76110577  0.29422103  1
  Se  Se210  1  0.09108147  0.76014099  0.81030667  1
  Se  Se211  1  0.42015750  0.09556576  0.30325884  1
  Se  Se212  1  0.41356657  0.07887261  0.81036545  1
  Se  Se213  1  0.42164465  0.42110185  0.30400473  1
  Se  Se214  1  0.41427546  0.41320492  0.80127296  1
  Se  Se215  1  0.41820897  0.75227275  0.30320173  1
  Se  Se216  1  0.41893397  0.74497368  0.80217575  1
  Se  Se217  1  0.74520581  0.08655359  0.29825103  1
  Se  Se218  1  0.75099754  0.08479876  0.81114459  1
  Se  Se219  1  0.75456051  0.42159923  0.31032483  1
  Se  Se220  1  0.75699258  0.42215608  0.81052584  1
  Se  Se221  1  0.76381092  0.75869375  0.29429926  1
  Se  Se222  1  0.75229888  0.74661753  0.81388379  1
  Se  Se223  1  0.25123281  0.10014503  0.18918733  1
  Se  Se224  1  0.26600480  0.06679080  0.69844316  1
  Se  Se225  1  0.24728120  0.42078041  0.18773706  1
  Se  Se226  1  0.25359337  0.41784476  0.69626879  1
  Se  Se227  1  0.25552170  0.74691333  0.20585712  1
  Se  Se228  1  0.25084958  0.74832936  0.69761342  1
  Se  Se229  1  0.58572848  0.08678533  0.19255222  1
  Se  Se230  1  0.58952732  0.07821039  0.70457064  1
  Se  Se231  1  0.57668074  0.42078923  0.18373451  1
  Se  Se232  1  0.58459187  0.42424109  0.69145462  1
  Se  Se233  1  0.58652777  0.74640354  0.20325609  1
  Se  Se234  1  0.57508778  0.76124787  0.68510637  1
  Se  Se235  1  0.92292916  0.08372353  0.19135750  1
  Se  Se236  1  0.91341671  0.09310374  0.68996766  1
  Se  Se237  1  0.91868743  0.41055476  0.19407841  1
  Se  Se238  1  0.93131748  0.42368292  0.69639263  1
  Se  Se239  1  0.91691167  0.74481018  0.20319109  1
  Se  Se240  1  0.90705360  0.75622143  0.69615756  1
  Se  Se241  1  0.08157287  0.25599569  0.19453315  1
  Se  Se242  1  0.09331436  0.24562867  0.69370091  1
  Se  Se243  1  0.08400505  0.57538868  0.20107799  1
  Se  Se244  1  0.08599189  0.57691222  0.68787168  1
  Se  Se245  1  0.11004421  0.90061286  0.19074029  1
  Se  Se246  1  0.07899313  0.90960523  0.68674070  1
  Se  Se247  1  0.42755616  0.25612333  0.18163467  1
  Se  Se248  1  0.43303606  0.24506533  0.70250175  1
  Se  Se249  1  0.41611510  0.58737485  0.19542839  1
  Se  Se250  1  0.41728086  0.58279716  0.69620423  1
  Se  Se251  1  0.42484283  0.91215384  0.18454515  1
  Se  Se252  1  0.41832488  0.91571588  0.70101154  1
  Se  Se253  1  0.75853048  0.24433889  0.18163048  1
  Se  Se254  1  0.75782196  0.24612353  0.69302503  1
  Se  Se255  1  0.74905072  0.57533428  0.18984559  1
  Se  Se256  1  0.75820930  0.57323689  0.69537958  1
  Se  Se257  1  0.74313649  0.93482369  0.19770802  1
  Se  Se258  1  0.74355968  0.92267121  0.70515154  1
