# generated using pymatgen
data_In86Cu29Se144
_symmetry_space_group_name_H-M   'P 1'
_cell_length_a   17.58805345
_cell_length_b   17.58584557
_cell_length_c   23.43925782
_cell_angle_alpha   89.99656450
_cell_angle_beta   89.99185978
_cell_angle_gamma   90.00614273
_symmetry_Int_Tables_number   1
_chemical_formula_structural   In86Cu29Se144
_chemical_formula_sum   'In86 Cu29 Se144'
_cell_volume   7249.78087367
_cell_formula_units_Z   1
loop_
 _symmetry_equiv_pos_site_id
 _symmetry_equiv_pos_as_xyz
  1  'x, y, z'
loop_
 _atom_site_type_symbol
 _atom_site_label
 _atom_site_symmetry_multiplicity
 _atom_site_fract_x
 _atom_site_fract_y
 _atom_site_fract_z
 _atom_site_occupancy
  In  In0  1  -0.00821395  0.17230026  0.13583971  1
  In  In1  1  0.00097790  0.18988423  0.62136409  1
  In  In2  1  0.00700438  0.49302290  0.13274073  1
  In  In3  1  0.00759710  0.50481858  0.61470520  1
  In  In4  1  0.00273771  0.82947400  0.13786701  1
  In  In5  1  -0.00884072  0.81635705  0.60189146  1
  In  In6  1  0.33938321  0.15968432  0.13443712  1
  In  In7  1  0.32693691  0.16392874  0.62499140  1
  In  In8  1  0.33061051  0.50233825  0.12799273  1
  In  In9  1  0.34137247  0.50582113  0.61747351  1
  In  In10  1  0.33142474  0.83490604  0.13918474  1
  In  In11  1  0.30850990  0.81984694  0.60133121  1
  In  In12  1  0.67391477  0.17039347  0.11586399  1
  In  In13  1  0.67316184  0.15087393  0.63140029  1
  In  In14  1  0.66450471  0.51600075  0.13005141  1
  In  In15  1  0.66641210  0.50723058  0.61740100  1
  In  In16  1  0.66004529  0.83235027  0.13072102  1
  In  In17  1  0.68093209  0.84850399  0.61904872  1
  In  In18  1  0.16194992  -0.00120908  0.37333606  1
  In  In19  1  0.15914499  -0.00417227  0.87502646  1
  In  In20  1  0.16673705  0.33772627  0.37057894  1
  In  In21  1  0.17226469  0.34581837  0.87162342  1
  In  In22  1  0.15989348  0.65838367  0.38151313  1
  In  In23  1  0.15960068  0.65381455  0.86447123  1
  In  In24  1  0.48432009  -0.00552414  0.37532414  1
  In  In25  1  0.51047108  -0.00443263  0.87687273  1
  In  In26  1  0.49264609  0.34532732  0.37198906  1
  In  In27  1  0.49778565  0.33707696  0.88842279  1
  In  In28  1  0.49730971  0.66947872  0.37465653  1
  In  In29  1  0.48583331  0.66728407  0.87314759  1
  In  In30  1  0.83906598  -0.00707769  0.38061011  1
  In  In31  1  0.83673198  0.01008381  0.87354501  1
  In  In32  1  0.85297742  0.32660828  0.39475075  1
  In  In33  1  0.83185421  0.32360094  0.87226230  1
  In  In34  1  0.83358489  0.66757660  0.38131967  1
  In  In35  1  0.83838431  0.65456905  0.86685289  1
  In  In36  1  -0.00631650  0.16966663  0.36923736  1
  In  In37  1  -0.01509713  0.16227471  0.87354393  1
  In  In38  1  0.00056284  0.50265725  0.38164492  1
  In  In39  1  0.00968585  0.50424739  0.86554616  1
  In  In40  1  -0.00063526  0.82769903  0.38603592  1
  In  In41  1  0.00794956  0.82856041  0.86871511  1
  In  In42  1  0.32562531  0.16497759  0.36176721  1
  In  In43  1  0.33633620  0.18061961  0.87939351  1
  In  In44  1  0.32998888  0.50237158  0.37278498  1
  In  In45  1  0.32500919  0.50193516  0.88171476  1
  In  In46  1  0.33378341  0.83422459  0.37919780  1
  In  In47  1  0.34394730  0.82824483  0.86718337  1
  In  In48  1  0.68528017  0.16924906  0.37156579  1
  In  In49  1  0.67420170  0.15763821  0.88812228  1
  In  In50  1  0.65421326  0.50470610  0.37797766  1
  In  In51  1  0.67110094  0.48906774  0.87645399  1
  In  In52  1  0.67787233  0.81935715  0.38524240  1
  In  In53  1  0.66499703  0.83464228  0.86495890  1
  In  In54  1  0.16335319  0.00128619  0.14002244  1
  In  In55  1  0.17129907  -0.01343911  0.61948720  1
  In  In56  1  0.15489389  0.34500009  0.13092771  1
  In  In57  1  0.13190535  0.34176699  0.61466083  1
  In  In58  1  0.17582060  0.65756082  0.13572766  1
  In  In59  1  0.16722790  0.66633612  0.61774746  1
  In  In60  1  0.49866028  -0.00252069  0.12530586  1
  In  In61  1  0.51205511  0.00151922  0.62725375  1
  In  In62  1  0.49370896  0.32800921  0.12317618  1
  In  In63  1  0.49096454  0.33967743  0.62196125  1
  In  In64  1  0.50016088  0.66472104  0.13270943  1
  In  In65  1  0.48688710  0.66119292  0.61978002  1
  In  In66  1  0.83551734  0.02197993  0.13052448  1
  In  In67  1  0.82605409  -0.00980047  0.61895551  1
  In  In68  1  0.84559674  0.32916024  0.13189660  1
  In  In69  1  0.85529132  0.35210721  0.60275594  1
  In  In70  1  0.83345449  0.66291385  0.13989003  1
  In  In71  1  0.85478075  0.67608999  0.59856353  1
  In  In72  1  -0.00394026  -0.00134039  0.74641249  1
  In  In73  1  0.33533972  -0.00790639  0.74008236  1
  In  In74  1  0.67541302  0.66749511  0.74266933  1
  In  In75  1  0.50282252  0.16465080  0.50113555  1
  In  In76  1  0.32774482  0.33501415  0.74902088  1
  In  In77  1  0.16630339  0.17369280  0.00089545  1
  In  In78  1  0.17048930  0.82739648  0.00222765  1
  In  In79  1  0.83229462  0.83688241  -0.00607414  1
  In  In80  1  0.16290859  0.16830851  0.49404845  1
  In  In81  1  0.67148808  0.32514832  0.75182767  1
  In  In82  1  0.67220113  0.33920685  0.24846100  1
  In  In83  1  0.50256146  0.83388776  0.01058196  1
  In  In84  1  0.67141218  -0.00620976  0.25235138  1
  In  In85  1  0.83139630  0.49410675  0.00504739  1
  Cu  Cu86  1  0.33444797  0.66337047  0.49160460  1
  Cu  Cu87  1  0.16509779  0.17560192  0.24965747  1
  Cu  Cu88  1  0.00104240  0.00285026  0.49476349  1
  Cu  Cu89  1  0.50054535  0.16925085  0.24916648  1
  Cu  Cu90  1  0.85206356  0.49959925  0.73648378  1
  Cu  Cu91  1  0.50366416  0.16195087  0.75642611  1
  Cu  Cu92  1  0.49869316  0.82573585  0.74403604  1
  Cu  Cu93  1  0.33175111  0.33500552  0.49729529  1
  Cu  Cu94  1  -0.00317960  0.33295432  0.00506957  1
  Cu  Cu95  1  0.33420491  0.33800926  0.00648764  1
  Cu  Cu96  1  -0.00900864  0.00607195  0.00684046  1
  Cu  Cu97  1  0.66226995  0.33032317  0.49340534  1
  Cu  Cu98  1  0.16838713  0.50115427  0.74216533  1
  Cu  Cu99  1  0.16541519  0.82181043  0.74039511  1
  Cu  Cu100  1  0.66070718  0.33508449  0.00189660  1
  Cu  Cu101  1  0.49007521  0.50784945  0.25419744  1
  Cu  Cu102  1  0.83388288  0.50242646  0.26116639  1
  Cu  Cu103  1  0.84023927  0.82938515  0.26111210  1
  Cu  Cu104  1  0.16192492  0.50450155  0.25539626  1
  Cu  Cu105  1  0.66380202  -0.00046157  0.49872430  1
  Cu  Cu106  1  0.83546806  0.17111184  0.74785098  1
  Cu  Cu107  1  0.32844851  0.65797397  0.00004473  1
  Cu  Cu108  1  0.50153862  0.50366587  0.74976090  1
  Cu  Cu109  1  0.49945927  0.83053706  0.25326741  1
  Cu  Cu110  1  0.65428681  0.66659372  0.50057571  1
  Cu  Cu111  1  0.00701890  0.65712960  -0.00205178  1
  Cu  Cu112  1  0.16527512  0.82942398  0.26350483  1
  Cu  Cu113  1  0.33667657  0.00573129  0.00712115  1
  Cu  Cu114  1  0.66109591  0.66969344  0.00579657  1
  Se  Se115  1  0.08206979  0.07969473  0.06189970  1
  Se  Se116  1  0.07720157  0.07964920  0.56075744  1
  Se  Se117  1  0.08037305  0.42024283  0.05304263  1
  Se  Se118  1  0.09788470  0.43961067  0.53838662  1
  Se  Se119  1  0.07810637  0.74103491  0.06156115  1
  Se  Se120  1  0.10796012  0.76661702  0.54864069  1
  Se  Se121  1  0.42058438  0.08721230  0.05848039  1
  Se  Se122  1  0.41087175  0.07631996  0.55998142  1
  Se  Se123  1  0.41767095  0.42226230  0.05885630  1
  Se  Se124  1  0.41919102  0.41819738  0.54702743  1
  Se  Se125  1  0.40214676  0.74488510  0.06098891  1
  Se  Se126  1  0.41573900  0.74786124  0.54704576  1
  Se  Se127  1  0.75023622  0.07700636  0.05291148  1
  Se  Se128  1  0.74839316  0.08250640  0.55186043  1
  Se  Se129  1  0.74041293  0.40865693  0.06843738  1
  Se  Se130  1  0.73994866  0.41420703  0.55159657  1
  Se  Se131  1  0.74886678  0.74480493  0.06191166  1
  Se  Se132  1  0.74275149  0.74838709  0.55122783  1
  Se  Se133  1  0.25424613  0.25608752  0.06700306  1
  Se  Se134  1  0.25048465  0.26000126  0.55981493  1
  Se  Se135  1  0.24382200  0.58030557  0.05610882  1
  Se  Se136  1  0.25366754  0.58301949  0.55015106  1
  Se  Se137  1  0.25376488  0.92460068  0.06334962  1
  Se  Se138  1  0.25856786  0.93329887  0.54246387  1
  Se  Se139  1  0.58003019  0.24920565  0.05466687  1
  Se  Se140  1  0.59079390  0.25347983  0.56449050  1
  Se  Se141  1  0.57766851  0.58625130  0.05719165  1
  Se  Se142  1  0.57247018  0.57935170  0.55201608  1
  Se  Se143  1  0.60028420  0.92897167  0.05664384  1
  Se  Se144  1  0.58198872  0.91714813  0.55295357  1
  Se  Se145  1  0.91670606  0.24652977  0.05673088  1
  Se  Se146  1  0.91320386  0.24288084  0.54380036  1
  Se  Se147  1  0.91983900  0.58881548  0.06153141  1
  Se  Se148  1  0.90158459  0.55683773  0.54506618  1
  Se  Se149  1  0.92019842  0.91517259  0.06420504  1
  Se  Se150  1  0.91481459  0.91998700  0.54713639  1
  Se  Se151  1  0.07229684  0.26199663  0.44106914  1
  Se  Se152  1  0.07478320  0.25750914  0.93782596  1
  Se  Se153  1  0.09762323  0.56304612  0.45359244  1
  Se  Se154  1  0.08889970  0.57591700  0.94317732  1
  Se  Se155  1  0.08750614  0.91811691  0.44756387  1
  Se  Se156  1  0.06990920  0.92137751  0.94851324  1
  Se  Se157  1  0.40934795  0.24966275  0.43919544  1
  Se  Se158  1  0.41550221  0.25106765  0.95509336  1
  Se  Se159  1  0.41953869  0.57846282  0.44164562  1
  Se  Se160  1  0.41800873  0.58099810  0.94648462  1
  Se  Se161  1  0.41803999  0.91322854  0.45024446  1
  Se  Se162  1  0.40769143  0.91770904  0.94560008  1
  Se  Se163  1  0.75194723  0.24556213  0.45043762  1
  Se  Se164  1  0.74997517  0.25672001  0.94883923  1
  Se  Se165  1  0.73881517  0.58719663  0.44499212  1
  Se  Se166  1  0.74457658  0.59210141  0.94435949  1
  Se  Se167  1  0.75107527  0.91586092  0.44870633  1
  Se  Se168  1  0.73887636  0.92468820  0.93715323  1
  Se  Se169  1  0.25976328  0.08069887  0.44035972  1
  Se  Se170  1  0.25473984  0.07571493  0.94128632  1
  Se  Se171  1  0.25004409  0.41546237  0.44172924  1
  Se  Se172  1  0.24762712  0.41470727  0.95076481  1
  Se  Se173  1  0.24778346  0.74739377  0.44318727  1
  Se  Se174  1  0.25687979  0.74186600  0.93631594  1
  Se  Se175  1  0.59080302  0.08031525  0.43413879  1
  Se  Se176  1  0.56918214  0.09070736  0.94579269  1
  Se  Se177  1  0.57601972  0.41455309  0.44622714  1
  Se  Se178  1  0.58378701  0.42538290  0.95071334  1
  Se  Se179  1  0.57477859  0.75357842  0.44731585  1
  Se  Se180  1  0.58691423  0.74672445  0.93974061  1
  Se  Se181  1  0.91804702  0.08734636  0.44325755  1
  Se  Se182  1  0.91054983  0.08756329  0.95071016  1
  Se  Se183  1  0.90106522  0.44156972  0.45309260  1
  Se  Se184  1  0.92125157  0.41281751  0.93914439  1
  Se  Se185  1  0.91286428  0.74793192  0.45328208  1
  Se  Se186  1  0.92593466  0.73844176  0.94027469  1
  Se  Se187  1  0.25111479  0.25978037  0.29907292  1
  Se  Se188  1  0.23978254  0.23918331  0.80640388  1
  Se  Se189  1  0.24674243  0.58793248  0.30652383  1
  Se  Se190  1  0.25451713  0.57659620  0.80143632  1
  Se  Se191  1  0.25177915  0.91796730  0.30825770  1
  Se  Se192  1  0.23911790  0.90515413  0.80507638  1
  Se  Se193  1  0.58098809  0.24648023  0.31050918  1
  Se  Se194  1  0.57672297  0.24737657  0.81630436  1
  Se  Se195  1  0.58057604  0.58690894  0.30360621  1
  Se  Se196  1  0.58604768  0.57999836  0.80940342  1
  Se  Se197  1  0.58229515  0.90736948  0.31440880  1
  Se  Se198  1  0.57571328  0.91253587  0.79901085  1
  Se  Se199  1  0.91110616  0.26082617  0.30720063  1
  Se  Se200  1  0.92020453  0.25366802  0.80042647  1
  Se  Se201  1  0.91853722  0.58652925  0.31200881  1
  Se  Se202  1  0.92607497  0.58523622  0.79607553  1
  Se  Se203  1  0.92325642  0.91311137  0.31212657  1
  Se  Se204  1  0.90889025  0.90809964  0.80832473  1
  Se  Se205  1  0.08683005  0.09045755  0.30638107  1
  Se  Se206  1  0.08683649  0.08912194  0.80749133  1
  Se  Se207  1  0.07723261  0.42058926  0.30706638  1
  Se  Se208  1  0.08781728  0.41584819  0.79764846  1
  Se  Se209  1  0.08005201  0.74604069  0.31400075  1
  Se  Se210  1  0.08161447  0.74390777  0.79830283  1
  Se  Se211  1  0.41893983  0.08258614  0.30114145  1
  Se  Se212  1  0.41431725  0.08400469  0.81070940  1
  Se  Se213  1  0.40817058  0.41658546  0.29972317  1
  Se  Se214  1  0.42330500  0.42069337  0.80985046  1
  Se  Se215  1  0.41236623  0.75086833  0.30598575  1
  Se  Se216  1  0.41363160  0.74235543  0.79457819  1
  Se  Se217  1  0.76757864  0.08573932  0.30286140  1
  Se  Se218  1  0.75235684  0.09325453  0.80620993  1
  Se  Se219  1  0.75504388  0.41883742  0.31919250  1
  Se  Se220  1  0.76631534  0.42755756  0.80061994  1
  Se  Se221  1  0.75031531  0.74608273  0.30657972  1
  Se  Se222  1  0.76468024  0.75696867  0.80408795  1
  Se  Se223  1  0.24987080  0.08562898  0.20299239  1
  Se  Se224  1  0.23637575  0.08584064  0.69317191  1
  Se  Se225  1  0.24413665  0.42288197  0.19739851  1
  Se  Se226  1  0.24525023  0.41884827  0.68070336  1
  Se  Se227  1  0.24735621  0.75075472  0.20339891  1
  Se  Se228  1  0.25551096  0.74589940  0.68849012  1
  Se  Se229  1  0.58527517  0.09019047  0.19217359  1
  Se  Se230  1  0.58674817  0.07924762  0.70372588  1
  Se  Se231  1  0.57298811  0.42673639  0.19389229  1
  Se  Se232  1  0.58063780  0.41977811  0.69333511  1
  Se  Se233  1  0.58458106  0.74826035  0.20020337  1
  Se  Se234  1  0.58240718  0.75167142  0.68200831  1
  Se  Se235  1  0.93790234  0.06535778  0.19996288  1
  Se  Se236  1  0.91247800  0.09149254  0.68416367  1
  Se  Se237  1  0.91271870  0.42202617  0.20062435  1
  Se  Se238  1  0.93166843  0.41246714  0.68540005  1
  Se  Se239  1  0.92056757  0.74456118  0.20439347  1
  Se  Se240  1  0.91844205  0.74726758  0.68175528  1
  Se  Se241  1  0.07762507  0.25766367  0.19912290  1
  Se  Se242  1  0.09556431  0.24899467  0.69303034  1
  Se  Se243  1  0.07789395  0.58693889  0.20009809  1
  Se  Se244  1  0.08525670  0.58493490  0.68867472  1
  Se  Se245  1  0.08493750  0.91245466  0.20523957  1
  Se  Se246  1  0.08269537  0.90582726  0.68665611  1
  Se  Se247  1  0.41570065  0.25415771  0.19929200  1
  Se  Se248  1  0.42537875  0.23993022  0.69434365  1
  Se  Se249  1  0.40752911  0.59030583  0.19839877  1
  Se  Se250  1  0.41451682  0.58116099  0.69661796  1
  Se  Se251  1  0.42172372  0.91982484  0.19954045  1
  Se  Se252  1  0.41915599  0.90124111  0.67925326  1
  Se  Se253  1  0.75800024  0.23820588  0.19599065  1
  Se  Se254  1  0.76296032  0.25302824  0.68269323  1
  Se  Se255  1  0.74694495  0.58251807  0.20668406  1
  Se  Se256  1  0.76548039  0.57951369  0.68242394  1
  Se  Se257  1  0.76552041  0.90569880  0.19182962  1
  Se  Se258  1  0.74811320  0.92430209  0.69805750  1
