# generated using pymatgen
data_In86Cu29Se144
_symmetry_space_group_name_H-M   'P 1'
_cell_length_a   17.58483190
_cell_length_b   17.58790314
_cell_length_c   23.44855470
_cell_angle_alpha   90.00689352
_cell_angle_beta   89.97282657
_cell_angle_gamma   90.00150914
_symmetry_Int_Tables_number   1
_chemical_formula_structural   In86Cu29Se144
_chemical_formula_sum   'In86 Cu29 Se144'
_cell_volume   7252.17563595
_cell_formula_units_Z   1
loop_
 _symmetry_equiv_pos_site_id
 _symmetry_equiv_pos_as_xyz
  1  'x, y, z'
loop_
 _atom_site_type_symbol
 _atom_site_label
 _atom_site_symmetry_multiplicity
 _atom_site_fract_x
 _atom_site_fract_y
 _atom_site_fract_z
 _atom_site_occupancy
  In  In0  1  0.01223530  0.15983972  0.13505025  1
  In  In1  1  0.00239058  0.17808982  0.61371074  1
  In  In2  1  -0.00406446  0.49792719  0.12311913  1
  In  In3  1  0.00840185  0.49261444  0.62768643  1
  In  In4  1  0.01404139  0.84997251  0.10242494  1
  In  In5  1  -0.02083115  0.83428312  0.62875927  1
  In  In6  1  0.32169361  0.15808558  0.11908907  1
  In  In7  1  0.32902801  0.17743733  0.62273525  1
  In  In8  1  0.32838545  0.50925114  0.12262691  1
  In  In9  1  0.31675756  0.51745361  0.62823551  1
  In  In10  1  0.33925607  0.84017855  0.11860217  1
  In  In11  1  0.32375657  0.82296057  0.62977039  1
  In  In12  1  0.67330852  0.18230524  0.12118307  1
  In  In13  1  0.67683339  0.16091248  0.63018186  1
  In  In14  1  0.68415156  0.49527022  0.12949282  1
  In  In15  1  0.67104551  0.49603602  0.63585809  1
  In  In16  1  0.66225246  0.82953690  0.11727675  1
  In  In17  1  0.69208754  0.81955428  0.64724118  1
  In  In18  1  0.17054829  0.00913412  0.36464131  1
  In  In19  1  0.15723812  -0.00248166  0.88803567  1
  In  In20  1  0.14506876  0.34807896  0.38831271  1
  In  In21  1  0.15801430  0.34013817  0.88263215  1
  In  In22  1  0.16457694  0.65852644  0.38070544  1
  In  In23  1  0.16214899  0.66205165  0.87368732  1
  In  In24  1  0.49603876  0.01177134  0.36848535  1
  In  In25  1  0.50854254  -0.01151328  0.88545857  1
  In  In26  1  0.50770465  0.32738463  0.37033954  1
  In  In27  1  0.50504693  0.32014814  0.87978066  1
  In  In28  1  0.50825186  0.65494227  0.37427084  1
  In  In29  1  0.51113747  0.67782973  0.86734143  1
  In  In30  1  0.84471357  -0.01033687  0.37767842  1
  In  In31  1  0.82534357  -0.00214959  0.87747038  1
  In  In32  1  0.82835737  0.32311756  0.37510707  1
  In  In33  1  0.84572899  0.34208746  0.86598047  1
  In  In34  1  0.83740027  0.68029553  0.37908087  1
  In  In35  1  0.83031943  0.66605874  0.87426626  1
  In  In36  1  0.00015547  0.16893604  0.37263285  1
  In  In37  1  -0.00513931  0.17395100  0.87527103  1
  In  In38  1  0.01283978  0.49673238  0.38159074  1
  In  In39  1  -0.00251178  0.49669454  0.87581232  1
  In  In40  1  -0.01138600  0.82700401  0.37421723  1
  In  In41  1  0.00541207  0.82574351  0.88089970  1
  In  In42  1  0.33265707  0.15581255  0.36808048  1
  In  In43  1  0.33208663  0.16224061  0.88324331  1
  In  In44  1  0.32845338  0.49565804  0.37579657  1
  In  In45  1  0.31649639  0.49976724  0.87743501  1
  In  In46  1  0.32003075  0.84050141  0.36942825  1
  In  In47  1  0.33823108  0.82486821  0.88027072  1
  In  In48  1  0.67000035  0.17933866  0.37497795  1
  In  In49  1  0.66684458  0.15634521  0.87036439  1
  In  In50  1  0.66732066  0.49733110  0.37133077  1
  In  In51  1  0.68144007  0.51267010  0.86570936  1
  In  In52  1  0.68499397  0.83152406  0.37534359  1
  In  In53  1  0.66832000  0.82944623  0.87704107  1
  In  In54  1  0.16271797  0.00443626  0.12625435  1
  In  In55  1  0.15338959  0.00405467  0.62395891  1
  In  In56  1  0.16070710  0.33166116  0.12383734  1
  In  In57  1  0.14782344  0.32691230  0.60919582  1
  In  In58  1  0.15762250  0.66173862  0.11599768  1
  In  In59  1  0.17006802  0.65375048  0.63379541  1
  In  In60  1  0.48880726  -0.00679770  0.11773086  1
  In  In61  1  0.51369865  0.01072348  0.62598348  1
  In  In62  1  0.52039415  0.33610021  0.12211651  1
  In  In63  1  0.50241177  0.33972296  0.62604955  1
  In  In64  1  0.50199786  0.68302092  0.12066355  1
  In  In65  1  0.49825544  0.66916035  0.63362881  1
  In  In66  1  0.85874088  -0.00013017  0.12021837  1
  In  In67  1  0.82769211  -0.00455792  0.62080460  1
  In  In68  1  0.83221154  0.33865529  0.13053134  1
  In  In69  1  0.83803396  0.32708045  0.62462240  1
  In  In70  1  0.83435793  0.66555563  0.11857481  1
  In  In71  1  0.83214305  0.67042812  0.63402376  1
  In  In72  1  0.33249741  0.32996931  0.24710230  1
  In  In73  1  -0.00739752  -0.00288249  0.75676487  1
  In  In74  1  0.66951710  -0.00013479  0.24572173  1
  In  In75  1  0.33374726  0.33829585  0.74960104  1
  In  In76  1  0.15441707  0.83010026  0.49995384  1
  In  In77  1  0.49781985  0.50175411  -0.00006160  1
  In  In78  1  0.49391863  0.49828608  0.49757517  1
  In  In79  1  0.33567208  0.67359799  0.25042303  1
  In  In80  1  0.83670155  0.49632007  0.50887343  1
  In  In81  1  0.83586616  0.16304029  -0.00152483  1
  In  In82  1  -0.00348405  0.66705735  0.24972996  1
  In  In83  1  0.50344056  0.83405816  0.51141675  1
  In  In84  1  0.49802223  0.16724325  0.49587472  1
  In  In85  1  0.33849084  -0.00811754  0.75794859  1
  Cu  Cu86  1  0.50083197  0.16634807  0.24631593  1
  Cu  Cu87  1  0.83182770  0.49902768  0.25051099  1
  Cu  Cu88  1  0.32644186  0.66763229  -0.00242972  1
  Cu  Cu89  1  0.83900151  0.17162988  0.74795048  1
  Cu  Cu90  1  0.67275985  0.33526111  -0.00169075  1
  Cu  Cu91  1  -0.00119697  0.00987600  0.49773066  1
  Cu  Cu92  1  0.51522971  0.16498174  0.75498043  1
  Cu  Cu93  1  0.32602569  0.00443716  0.00188830  1
  Cu  Cu94  1  0.15860355  0.49699348  0.75430551  1
  Cu  Cu95  1  0.16384131  0.83978396  0.24344627  1
  Cu  Cu96  1  0.83624532  0.50105199  0.74884873  1
  Cu  Cu97  1  0.51344007  0.50249863  0.24651352  1
  Cu  Cu98  1  0.67061745  0.66762946  0.50816190  1
  Cu  Cu99  1  0.32832293  -0.00356887  0.49355694  1
  Cu  Cu100  1  0.66185993  -0.00169076  -0.00137283  1
  Cu  Cu101  1  0.83529913  0.17051901  0.24952857  1
  Cu  Cu102  1  0.32044282  0.33685867  0.49914010  1
  Cu  Cu103  1  0.68089873  -0.00069632  0.50242675  1
  Cu  Cu104  1  0.66709176  0.66517499  -0.00646145  1
  Cu  Cu105  1  -0.00195435  0.65951623  -0.00516780  1
  Cu  Cu106  1  0.83619995  0.82935171  0.24750245  1
  Cu  Cu107  1  0.16291086  0.82162047  0.75470538  1
  Cu  Cu108  1  -0.00160790  0.33249004  0.00077334  1
  Cu  Cu109  1  0.16068993  0.17142742  0.24920698  1
  Cu  Cu110  1  0.50394721  0.83553023  0.24227435  1
  Cu  Cu111  1  0.16752293  0.17152938  0.74518535  1
  Cu  Cu112  1  0.49952318  0.49801116  0.75012630  1
  Cu  Cu113  1  0.50309244  0.83679969  0.75647189  1
  Cu  Cu114  1  0.32855359  0.32728689  0.00041631  1
  Se  Se115  1  0.07800538  0.08355441  0.05673411  1
  Se  Se116  1  0.08724854  0.08800435  0.54983240  1
  Se  Se117  1  0.08169881  0.41708599  0.05433475  1
  Se  Se118  1  0.08346213  0.42743362  0.54636116  1
  Se  Se119  1  0.08400424  0.74550799  0.04439928  1
  Se  Se120  1  0.07776380  0.74799161  0.57145279  1
  Se  Se121  1  0.41570480  0.08680584  0.05148946  1
  Se  Se122  1  0.40815577  0.07434584  0.55769000  1
  Se  Se123  1  0.40995033  0.40765688  0.06098827  1
  Se  Se124  1  0.40189181  0.41193891  0.56135939  1
  Se  Se125  1  0.41325505  0.75022498  0.04897365  1
  Se  Se126  1  0.40638614  0.73916788  0.55784178  1
  Se  Se127  1  0.74479818  0.07416162  0.06139190  1
  Se  Se128  1  0.75713857  0.09114486  0.55297691  1
  Se  Se129  1  0.75601589  0.41542789  0.05341991  1
  Se  Se130  1  0.73660225  0.40857279  0.55984994  1
  Se  Se131  1  0.74822370  0.74735362  0.05115014  1
  Se  Se132  1  0.75250716  0.75202989  0.56023492  1
  Se  Se133  1  0.24222614  0.24840962  0.05476465  1
  Se  Se134  1  0.24455160  0.24476974  0.54967685  1
  Se  Se135  1  0.24617889  0.58059588  0.04936998  1
  Se  Se136  1  0.24226793  0.58768672  0.55106922  1
  Se  Se137  1  0.24639604  0.91945826  0.05691241  1
  Se  Se138  1  0.25237144  0.92083665  0.55947205  1
  Se  Se139  1  0.58665630  0.25022700  0.04654544  1
  Se  Se140  1  0.58534773  0.24992084  0.56097139  1
  Se  Se141  1  0.59134282  0.58663602  0.06078479  1
  Se  Se142  1  0.58615098  0.58556054  0.56177916  1
  Se  Se143  1  0.57758219  0.91415403  0.05166421  1
  Se  Se144  1  0.60155644  0.92086043  0.56444056  1
  Se  Se145  1  0.92118941  0.25121679  0.06295046  1
  Se  Se146  1  0.91537227  0.25653442  0.54748212  1
  Se  Se147  1  0.91546844  0.57888513  0.05210622  1
  Se  Se148  1  0.92195318  0.59044271  0.56587183  1
  Se  Se149  1  0.89859953  0.90141918  0.04606672  1
  Se  Se150  1  0.92015201  0.92308979  0.55223745  1
  Se  Se151  1  0.09347836  0.23428010  0.44370668  1
  Se  Se152  1  0.08008944  0.24757259  0.94723307  1
  Se  Se153  1  0.05687029  0.61053442  0.44376084  1
  Se  Se154  1  0.08484806  0.57602905  0.94435238  1
  Se  Se155  1  0.07737330  0.92692608  0.43591008  1
  Se  Se156  1  0.07693576  0.91246312  0.95253036  1
  Se  Se157  1  0.40456301  0.26059221  0.43801874  1
  Se  Se158  1  0.41610214  0.24781248  0.94884672  1
  Se  Se159  1  0.40530654  0.59455817  0.44195821  1
  Se  Se160  1  0.41176533  0.59081200  0.93676888  1
  Se  Se161  1  0.41689311  0.91992333  0.43986297  1
  Se  Se162  1  0.40859652  0.91942639  0.94772099  1
  Se  Se163  1  0.74602739  0.25102145  0.44981866  1
  Se  Se164  1  0.75128360  0.25489320  0.93597436  1
  Se  Se165  1  0.74585926  0.58685812  0.44435262  1
  Se  Se166  1  0.75343196  0.57878347  0.94752538  1
  Se  Se167  1  0.75881200  0.91162120  0.44849772  1
  Se  Se168  1  0.74697255  0.91513263  0.94794805  1
  Se  Se169  1  0.24946421  0.08281710  0.44161835  1
  Se  Se170  1  0.24161500  0.08719853  0.94964246  1
  Se  Se171  1  0.24305969  0.42695588  0.44840132  1
  Se  Se172  1  0.24718313  0.41591493  0.95132188  1
  Se  Se173  1  0.25726889  0.74798102  0.44293649  1
  Se  Se174  1  0.24280992  0.74926764  0.94302262  1
  Se  Se175  1  0.59379011  0.07207298  0.44178428  1
  Se  Se176  1  0.58362769  0.08789973  0.94677674  1
  Se  Se177  1  0.58942126  0.40734820  0.44452370  1
  Se  Se178  1  0.59224581  0.41793988  0.93892815  1
  Se  Se179  1  0.59097049  0.74529009  0.44440178  1
  Se  Se180  1  0.57934277  0.75155197  0.94796146  1
  Se  Se181  1  0.91300485  0.08781731  0.44211836  1
  Se  Se182  1  0.92730445  0.07178356  0.94175784  1
  Se  Se183  1  0.91921167  0.40977470  0.44177706  1
  Se  Se184  1  0.91409884  0.41477027  0.94723408  1
  Se  Se185  1  0.92250577  0.74868278  0.45169382  1
  Se  Se186  1  0.91398365  0.74534953  0.94534961  1
  Se  Se187  1  0.24195929  0.24921870  0.31161821  1
  Se  Se188  1  0.24733000  0.24561933  0.81011773  1
  Se  Se189  1  0.24489086  0.57909182  0.30416804  1
  Se  Se190  1  0.24713741  0.58083906  0.80206267  1
  Se  Se191  1  0.25072198  0.92210236  0.29516883  1
  Se  Se192  1  0.23794613  0.90939889  0.81309814  1
  Se  Se193  1  0.58582281  0.24740994  0.29864443  1
  Se  Se194  1  0.59272053  0.25458222  0.80606729  1
  Se  Se195  1  0.59359649  0.58710220  0.30109644  1
  Se  Se196  1  0.58278693  0.58307122  0.80192719  1
  Se  Se197  1  0.58143597  0.91038697  0.31040767  1
  Se  Se198  1  0.58721180  0.91898817  0.80831813  1
  Se  Se199  1  0.91805896  0.25355861  0.30338568  1
  Se  Se200  1  0.92548508  0.25362601  0.79865610  1
  Se  Se201  1  0.90999547  0.57758496  0.31347924  1
  Se  Se202  1  0.91648624  0.58110176  0.80723704  1
  Se  Se203  1  0.91917032  0.91309567  0.30040746  1
  Se  Se204  1  0.90635258  0.90277235  0.81258829  1
  Se  Se205  1  0.07724425  0.08337359  0.29961953  1
  Se  Se206  1  0.09243233  0.08937339  0.80800757  1
  Se  Se207  1  0.08643202  0.42266868  0.30497946  1
  Se  Se208  1  0.07824007  0.40943511  0.80568665  1
  Se  Se209  1  0.09409526  0.75681895  0.30801839  1
  Se  Se210  1  0.07495279  0.74205645  0.80509486  1
  Se  Se211  1  0.41424075  0.08153995  0.29348475  1
  Se  Se212  1  0.42777754  0.08811195  0.81223087  1
  Se  Se213  1  0.42742228  0.42580427  0.30555511  1
  Se  Se214  1  0.42303594  0.42159052  0.81566633  1
  Se  Se215  1  0.42863483  0.76047781  0.31212508  1
  Se  Se216  1  0.41424756  0.75155469  0.80245739  1
  Se  Se217  1  0.75647452  0.08630669  0.30987083  1
  Se  Se218  1  0.76026672  0.08537599  0.80259839  1
  Se  Se219  1  0.75125875  0.41352000  0.30595977  1
  Se  Se220  1  0.75102622  0.41512845  0.80024656  1
  Se  Se221  1  0.75359319  0.74647749  0.30110916  1
  Se  Se222  1  0.73313243  0.73441946  0.80831554  1
  Se  Se223  1  0.24553637  0.08712951  0.19722018  1
  Se  Se224  1  0.25014907  0.08456282  0.69327657  1
  Se  Se225  1  0.24525791  0.42589387  0.19204236  1
  Se  Se226  1  0.23623506  0.41670247  0.68921012  1
  Se  Se227  1  0.24214923  0.75417584  0.18571021  1
  Se  Se228  1  0.25067848  0.74211819  0.70249284  1
  Se  Se229  1  0.58099315  0.08804648  0.18340820  1
  Se  Se230  1  0.59434148  0.07934288  0.70143899  1
  Se  Se231  1  0.59448153  0.41496272  0.19630799  1
  Se  Se232  1  0.58265606  0.41205551  0.70019366  1
  Se  Se233  1  0.58865201  0.75027446  0.19489233  1
  Se  Se234  1  0.58259832  0.75011313  0.70105602  1
  Se  Se235  1  0.91703288  0.08314696  0.19959045  1
  Se  Se236  1  0.91883433  0.08993456  0.68741217  1
  Se  Se237  1  0.91889525  0.41903294  0.19798612  1
  Se  Se238  1  0.91508720  0.41645920  0.69277870  1
  Se  Se239  1  0.92041020  0.75898243  0.18297923  1
  Se  Se240  1  0.90674195  0.75861789  0.70385912  1
  Se  Se241  1  0.07944003  0.25994395  0.19990148  1
  Se  Se242  1  0.08316349  0.25052341  0.69079570  1
  Se  Se243  1  0.08999044  0.57746708  0.19372938  1
  Se  Se244  1  0.07662736  0.58220938  0.70131354  1
  Se  Se245  1  0.07521901  0.91621198  0.19024656  1
  Se  Se246  1  0.08849826  0.90904901  0.69561726  1
  Se  Se247  1  0.42411512  0.24694038  0.18322369  1
  Se  Se248  1  0.42750477  0.23948631  0.69584084  1
  Se  Se249  1  0.42852363  0.58096060  0.19044006  1
  Se  Se250  1  0.41511155  0.57923832  0.69659456  1
  Se  Se251  1  0.41484575  0.91708237  0.19558135  1
  Se  Se252  1  0.42644023  0.91044120  0.68740397  1
  Se  Se253  1  0.74924041  0.25330031  0.19878790  1
  Se  Se254  1  0.75115831  0.25344373  0.69700107  1
  Se  Se255  1  0.75678571  0.58882821  0.19598487  1
  Se  Se256  1  0.74786424  0.58554632  0.70091570  1
  Se  Se257  1  0.75909518  0.91162224  0.18543281  1
  Se  Se258  1  0.75115007  0.93169616  0.70118110  1
