# generated using pymatgen
data_In86Cu29Se144
_symmetry_space_group_name_H-M   'P 1'
_cell_length_a   17.58553444
_cell_length_b   17.58252714
_cell_length_c   23.44223097
_cell_angle_alpha   89.99378174
_cell_angle_beta   90.00030005
_cell_angle_gamma   90.00452984
_symmetry_Int_Tables_number   1
_chemical_formula_structural   In86Cu29Se144
_chemical_formula_sum   'In86 Cu29 Se144'
_cell_volume   7248.29406846
_cell_formula_units_Z   1
loop_
 _symmetry_equiv_pos_site_id
 _symmetry_equiv_pos_as_xyz
  1  'x, y, z'
loop_
 _atom_site_type_symbol
 _atom_site_label
 _atom_site_symmetry_multiplicity
 _atom_site_fract_x
 _atom_site_fract_y
 _atom_site_fract_z
 _atom_site_occupancy
  In  In0  1  0.00202607  0.16748633  0.12755412  1
  In  In1  1  0.00337929  0.16912740  0.62912176  1
  In  In2  1  -0.00263988  0.49729160  0.11862252  1
  In  In3  1  0.00057475  0.49584354  0.62723211  1
  In  In4  1  0.01945361  0.84025969  0.12458440  1
  In  In5  1  -0.00246968  0.83764426  0.63125945  1
  In  In6  1  0.32635950  0.16251253  0.12893399  1
  In  In7  1  0.30625224  0.16832972  0.62685545  1
  In  In8  1  0.30995611  0.49773839  0.12173934  1
  In  In9  1  0.32593471  0.49639938  0.61966740  1
  In  In10  1  0.32674684  0.84321295  0.12589108  1
  In  In11  1  0.34155663  0.84082840  0.62627938  1
  In  In12  1  0.65793584  0.16033980  0.11899551  1
  In  In13  1  0.68570344  0.16830642  0.62410985  1
  In  In14  1  0.68407293  0.49677001  0.12573497  1
  In  In15  1  0.67177556  0.48786051  0.63518230  1
  In  In16  1  0.66440146  0.83066466  0.13270369  1
  In  In17  1  0.66210921  0.82620148  0.62898201  1
  In  In18  1  0.16614667  0.01564224  0.35192954  1
  In  In19  1  0.16561725  0.00150675  0.87916934  1
  In  In20  1  0.16172341  0.33230707  0.37032169  1
  In  In21  1  0.15304292  0.34148221  0.88301809  1
  In  In22  1  0.15675339  0.66475184  0.37691665  1
  In  In23  1  0.15928001  0.67896099  0.88556545  1
  In  In24  1  0.49746130  -0.00549807  0.36819609  1
  In  In25  1  0.49690228  0.01593032  0.87865268  1
  In  In26  1  0.48727462  0.33862572  0.37179293  1
  In  In27  1  0.49692880  0.32369723  0.87338289  1
  In  In28  1  0.51065720  0.66089766  0.37592539  1
  In  In29  1  0.50935639  0.65587472  0.87184771  1
  In  In30  1  0.85065877  0.02118008  0.35736901  1
  In  In31  1  0.85023682  0.00157076  0.87507784  1
  In  In32  1  0.84545864  0.32100918  0.38910776  1
  In  In33  1  0.83839677  0.33287942  0.87663041  1
  In  In34  1  0.82497880  0.66250172  0.38142121  1
  In  In35  1  0.82466381  0.65462259  0.86574934  1
  In  In36  1  -0.00419174  0.16932862  0.36873011  1
  In  In37  1  0.00106389  0.16749291  0.87948792  1
  In  In38  1  0.01173305  0.48683430  0.38635362  1
  In  In39  1  -0.00206861  0.49750066  0.87258047  1
  In  In40  1  0.00041269  0.84439016  0.37024909  1
  In  In41  1  0.01090990  0.84220918  0.86840203  1
  In  In42  1  0.31978332  0.16485365  0.36451942  1
  In  In43  1  0.33811437  0.16109687  0.88232590  1
  In  In44  1  0.32012242  0.47924242  0.36650599  1
  In  In45  1  0.32812468  0.49246514  0.88174800  1
  In  In46  1  0.31919659  0.85057798  0.36443776  1
  In  In47  1  0.31152300  0.83170871  0.88068110  1
  In  In48  1  0.68475027  0.17076118  0.37463615  1
  In  In49  1  0.66286913  0.17793091  0.88059327  1
  In  In50  1  0.67396478  0.51063055  0.37967851  1
  In  In51  1  0.67395862  0.50798293  0.86533154  1
  In  In52  1  0.67041760  0.82968429  0.37142309  1
  In  In53  1  0.67561570  0.82566698  0.87177744  1
  In  In54  1  0.16385070  0.00492541  0.13072555  1
  In  In55  1  0.15202942  0.01819363  0.63734675  1
  In  In56  1  0.15630263  0.32696751  0.13147190  1
  In  In57  1  0.15150605  0.30984352  0.61209269  1
  In  In58  1  0.17061227  0.66597080  0.10632767  1
  In  In59  1  0.16575942  0.65139050  0.62258543  1
  In  In60  1  0.48749693  0.01178070  0.13152988  1
  In  In61  1  0.49552422  -0.00998164  0.62704457  1
  In  In62  1  0.49874580  0.31497994  0.12382141  1
  In  In63  1  0.50278573  0.34471177  0.62872024  1
  In  In64  1  0.50533661  0.67532339  0.12440290  1
  In  In65  1  0.50522132  0.65941677  0.63561050  1
  In  In66  1  0.82208720  0.00598901  0.13031411  1
  In  In67  1  0.84740749  0.01543547  0.62035677  1
  In  In68  1  0.84745456  0.34030268  0.11926765  1
  In  In69  1  0.83654475  0.33245039  0.62864923  1
  In  In70  1  0.83566623  0.65110607  0.12530051  1
  In  In71  1  0.84069784  0.65969151  0.63018778  1
  In  In72  1  0.66793019  0.33438849  0.25151322  1
  In  In73  1  0.33509287  0.67215346  0.23922240  1
  In  In74  1  0.83807223  0.83459051  -0.00442785  1
  In  In75  1  0.33155003  0.33230354  0.75119194  1
  In  In76  1  -0.00301994  0.67210368  0.25159919  1
  In  In77  1  0.49518089  0.16473869  0.49333996  1
  In  In78  1  0.49300341  0.83826071  0.01129829  1
  In  In79  1  0.16689471  0.84058087  0.49101631  1
  In  In80  1  0.50136966  0.49760537  0.50549508  1
  In  In81  1  0.50225699  0.82890078  0.49638157  1
  In  In82  1  0.67138677  -0.00054774  0.74555636  1
  In  In83  1  0.32878144  0.66940127  0.75177493  1
  In  In84  1  0.49775226  0.49639420  -0.00768125  1
  In  In85  1  0.83874002  0.83740732  0.50687480  1
  Cu  Cu86  1  -0.00272528  0.33228715  0.50269109  1
  Cu  Cu87  1  0.67018832  0.33450262  0.50533532  1
  Cu  Cu88  1  0.32662485  0.00470834  0.00678222  1
  Cu  Cu89  1  0.67073922  0.66282740  -0.00477107  1
  Cu  Cu90  1  0.50080601  0.50137024  0.25206612  1
  Cu  Cu91  1  0.49645413  0.83646009  0.75174852  1
  Cu  Cu92  1  0.67989335  -0.00125092  0.49436807  1
  Cu  Cu93  1  0.83184149  0.83413853  0.25174434  1
  Cu  Cu94  1  0.83852278  0.49507017  0.75009607  1
  Cu  Cu95  1  0.33688072  0.65839996  0.49798910  1
  Cu  Cu96  1  0.49809887  0.16707040  0.75375857  1
  Cu  Cu97  1  0.83327667  0.17110346  0.24701383  1
  Cu  Cu98  1  0.00369334  0.32969165  0.00125555  1
  Cu  Cu99  1  0.50831461  0.82537495  0.25077861  1
  Cu  Cu100  1  0.16248217  0.49767002  0.75066171  1
  Cu  Cu101  1  0.83817140  0.17098581  0.75132292  1
  Cu  Cu102  1  0.15784875  0.49941848  0.24803939  1
  Cu  Cu103  1  0.66702214  0.01128914  0.00140799  1
  Cu  Cu104  1  0.16275475  0.16455648  0.75582835  1
  Cu  Cu105  1  0.83760054  0.82741535  0.75089307  1
  Cu  Cu106  1  0.16376624  0.83608237  0.75450946  1
  Cu  Cu107  1  0.32797038  0.32666404  0.00337754  1
  Cu  Cu108  1  0.49693130  0.16234589  0.24868180  1
  Cu  Cu109  1  0.00544274  0.00374613  0.00141917  1
  Cu  Cu110  1  0.83621804  0.49997306  0.25089976  1
  Cu  Cu111  1  0.67669338  0.33160210  0.00117031  1
  Cu  Cu112  1  -0.00613480  0.66105918  -0.00473418  1
  Cu  Cu113  1  0.00018706  0.66361659  0.50403350  1
  Cu  Cu114  1  0.32106480  0.00929247  0.49743042  1
  Se  Se115  1  0.08631426  0.08650940  0.05728550  1
  Se  Se116  1  0.09409079  0.09752533  0.55830544  1
  Se  Se117  1  0.08619844  0.41375547  0.05616767  1
  Se  Se118  1  0.08260439  0.41628709  0.55494342  1
  Se  Se119  1  0.07380206  0.74770826  0.04864868  1
  Se  Se120  1  0.08229425  0.74998288  0.55815403  1
  Se  Se121  1  0.41507592  0.08843928  0.05476137  1
  Se  Se122  1  0.40878519  0.07738410  0.56020011  1
  Se  Se123  1  0.41202659  0.41027044  0.06060633  1
  Se  Se124  1  0.40553260  0.40138036  0.55370749  1
  Se  Se125  1  0.40155214  0.73930053  0.05985990  1
  Se  Se126  1  0.41316075  0.73721947  0.56003397  1
  Se  Se127  1  0.75574871  0.08942119  0.05320612  1
  Se  Se128  1  0.75626531  0.08448426  0.55008234  1
  Se  Se129  1  0.75800951  0.41906482  0.05119109  1
  Se  Se130  1  0.75237955  0.41660705  0.55935969  1
  Se  Se131  1  0.74630075  0.74582578  0.05765226  1
  Se  Se132  1  0.74725264  0.74378717  0.56059629  1
  Se  Se133  1  0.24538860  0.24886446  0.06159599  1
  Se  Se134  1  0.25293962  0.24958984  0.54673875  1
  Se  Se135  1  0.24870348  0.57632358  0.04274110  1
  Se  Se136  1  0.24844703  0.57909864  0.54849651  1
  Se  Se137  1  0.24239726  0.91960139  0.05636827  1
  Se  Se138  1  0.25105145  0.92385226  0.56106067  1
  Se  Se139  1  0.58548053  0.25093371  0.04887758  1
  Se  Se140  1  0.58495702  0.25170412  0.55991770  1
  Se  Se141  1  0.59010613  0.58382334  0.05719646  1
  Se  Se142  1  0.59223979  0.58649136  0.56323974  1
  Se  Se143  1  0.59128794  0.92820075  0.06284560  1
  Se  Se144  1  0.59515361  0.92421583  0.55472868  1
  Se  Se145  1  0.91955980  0.24579198  0.05413817  1
  Se  Se146  1  0.91675905  0.24833389  0.55914450  1
  Se  Se147  1  0.91194017  0.57817095  0.04925047  1
  Se  Se148  1  0.91820828  0.58029051  0.55696142  1
  Se  Se149  1  0.92090476  0.92356008  0.06044031  1
  Se  Se150  1  0.93770388  0.93078590  0.55342518  1
  Se  Se151  1  0.07495820  0.25386549  0.44039090  1
  Se  Se152  1  0.08766123  0.24411599  0.95051283  1
  Se  Se153  1  0.08673037  0.58280137  0.45096248  1
  Se  Se154  1  0.08107742  0.57953074  0.94338038  1
  Se  Se155  1  0.08164684  0.93586639  0.43429297  1
  Se  Se156  1  0.08314668  0.91490061  0.94784091  1
  Se  Se157  1  0.40296789  0.25529206  0.43954304  1
  Se  Se158  1  0.41732091  0.25125970  0.94878633  1
  Se  Se159  1  0.41190280  0.57857211  0.43483241  1
  Se  Se160  1  0.40800680  0.59602265  0.94168140  1
  Se  Se161  1  0.40436859  0.92262437  0.44419140  1
  Se  Se162  1  0.40850130  0.92510729  0.94430892  1
  Se  Se163  1  0.75168101  0.24615625  0.45470890  1
  Se  Se164  1  0.75842694  0.24691432  0.94716124  1
  Se  Se165  1  0.75677425  0.57749102  0.45427064  1
  Se  Se166  1  0.75273058  0.57795290  0.94405646  1
  Se  Se167  1  0.75859418  0.92016368  0.43438151  1
  Se  Se168  1  0.74176926  0.92740674  0.94020394  1
  Se  Se169  1  0.24100339  0.08271596  0.43587926  1
  Se  Se170  1  0.24622145  0.08639587  0.94875198  1
  Se  Se171  1  0.23417801  0.42295059  0.44218112  1
  Se  Se172  1  0.24712021  0.41341148  0.95126324  1
  Se  Se173  1  0.26348379  0.74531113  0.43701772  1
  Se  Se174  1  0.24693767  0.75037598  0.95607894  1
  Se  Se175  1  0.59198738  0.07442494  0.43737521  1
  Se  Se176  1  0.58113301  0.09121837  0.94827560  1
  Se  Se177  1  0.58970273  0.40647301  0.44058182  1
  Se  Se178  1  0.59445947  0.40852292  0.93768598  1
  Se  Se179  1  0.59983790  0.73743034  0.44765841  1
  Se  Se180  1  0.58593439  0.74947904  0.94558182  1
  Se  Se181  1  0.90934266  0.09297174  0.43988455  1
  Se  Se182  1  0.91715925  0.08446019  0.95034807  1
  Se  Se183  1  0.91327477  0.42095383  0.45318611  1
  Se  Se184  1  0.92162382  0.41458348  0.94648787  1
  Se  Se185  1  0.92845467  0.74747966  0.44118312  1
  Se  Se186  1  0.91937627  0.74344927  0.93166418  1
  Se  Se187  1  0.25803506  0.26700119  0.30136064  1
  Se  Se188  1  0.24360029  0.24692048  0.81588895  1
  Se  Se189  1  0.24245597  0.58410196  0.30277355  1
  Se  Se190  1  0.24152752  0.57753818  0.81206734  1
  Se  Se191  1  0.24952780  0.92621386  0.28822976  1
  Se  Se192  1  0.24808006  0.91891900  0.80660276  1
  Se  Se193  1  0.57605048  0.24244339  0.31137739  1
  Se  Se194  1  0.58463504  0.24965573  0.80272385  1
  Se  Se195  1  0.58787157  0.57933352  0.30428973  1
  Se  Se196  1  0.58414982  0.58285833  0.79749300  1
  Se  Se197  1  0.58667311  0.91307815  0.30456667  1
  Se  Se198  1  0.57911234  0.91592972  0.81227824  1
  Se  Se199  1  0.90985784  0.25796138  0.30256036  1
  Se  Se200  1  0.92219760  0.25061398  0.80732031  1
  Se  Se201  1  0.91682223  0.57737013  0.31424206  1
  Se  Se202  1  0.92057709  0.58285264  0.80108485  1
  Se  Se203  1  0.92085926  0.91920490  0.29633327  1
  Se  Se204  1  0.91788738  0.91620527  0.80100231  1
  Se  Se205  1  0.08511775  0.11025510  0.29014374  1
  Se  Se206  1  0.07979915  0.08056451  0.80945925  1
  Se  Se207  1  0.07500176  0.41734527  0.30177769  1
  Se  Se208  1  0.08028193  0.41213337  0.80302895  1
  Se  Se209  1  0.09517121  0.76215372  0.30534487  1
  Se  Se210  1  0.08416873  0.74511809  0.80376778  1
  Se  Se211  1  0.41449677  0.08058599  0.30441667  1
  Se  Se212  1  0.41290673  0.08423863  0.80378844  1
  Se  Se213  1  0.41323573  0.41416225  0.29497738  1
  Se  Se214  1  0.42178364  0.42549101  0.80936873  1
  Se  Se215  1  0.42137983  0.75361784  0.31255486  1
  Se  Se216  1  0.41854341  0.75790409  0.81546625  1
  Se  Se217  1  0.74492681  0.08653976  0.29613963  1
  Se  Se218  1  0.75571502  0.08801642  0.81044752  1
  Se  Se219  1  0.75930647  0.41837959  0.31382599  1
  Se  Se220  1  0.75493417  0.41336434  0.80545348  1
  Se  Se221  1  0.75533544  0.74516519  0.30545146  1
  Se  Se222  1  0.74741453  0.74573202  0.79760472  1
  Se  Se223  1  0.26859455  0.06178570  0.19799399  1
  Se  Se224  1  0.25080094  0.08210439  0.70581743  1
  Se  Se225  1  0.24315151  0.41548236  0.19718683  1
  Se  Se226  1  0.23873749  0.41584614  0.68891796  1
  Se  Se227  1  0.23298587  0.75451350  0.18720385  1
  Se  Se228  1  0.24064715  0.75880149  0.68755781  1
  Se  Se229  1  0.58540894  0.08287847  0.19663135  1
  Se  Se230  1  0.57816234  0.09142470  0.68732866  1
  Se  Se231  1  0.57780869  0.42058304  0.18713535  1
  Se  Se232  1  0.57844324  0.41754501  0.70297674  1
  Se  Se233  1  0.59035564  0.73860716  0.20063379  1
  Se  Se234  1  0.58049409  0.75142475  0.70183717  1
  Se  Se235  1  0.91350970  0.08435648  0.19444473  1
  Se  Se236  1  0.92102245  0.08457156  0.69996503  1
  Se  Se237  1  0.91983556  0.42076959  0.19509874  1
  Se  Se238  1  0.92240936  0.41137774  0.69798348  1
  Se  Se239  1  0.90957316  0.75843302  0.18524490  1
  Se  Se240  1  0.92248084  0.74611560  0.69711745  1
  Se  Se241  1  0.08614497  0.23648409  0.20443634  1
  Se  Se242  1  0.08546743  0.25192148  0.70037680  1
  Se  Se243  1  0.08680570  0.58681090  0.18687265  1
  Se  Se244  1  0.08166931  0.58396721  0.69681924  1
  Se  Se245  1  0.07535129  0.92750478  0.20017789  1
  Se  Se246  1  0.08066329  0.91887282  0.69966031  1
  Se  Se247  1  0.41390215  0.24692281  0.19715960  1
  Se  Se248  1  0.41853268  0.24094142  0.68734344  1
  Se  Se249  1  0.42246779  0.57341281  0.18436290  1
  Se  Se250  1  0.41359916  0.57042169  0.69479907  1
  Se  Se251  1  0.42614314  0.90485154  0.19333191  1
  Se  Se252  1  0.41236841  0.92129716  0.70258021  1
  Se  Se253  1  0.75250148  0.24946862  0.18485370  1
  Se  Se254  1  0.75043169  0.25177961  0.69994185  1
  Se  Se255  1  0.75038152  0.58367051  0.20086960  1
  Se  Se256  1  0.75383056  0.57985146  0.69790537  1
  Se  Se257  1  0.74614632  0.91623078  0.19843704  1
  Se  Se258  1  0.76399888  0.91073027  0.68557111  1
