# generated using pymatgen
data_In86Cu29Se144
_symmetry_space_group_name_H-M   'P 1'
_cell_length_a   17.59256820
_cell_length_b   17.59545766
_cell_length_c   23.45008267
_cell_angle_alpha   90.00801167
_cell_angle_beta   89.97816245
_cell_angle_gamma   90.00794200
_symmetry_Int_Tables_number   1
_chemical_formula_structural   In86Cu29Se144
_chemical_formula_sum   'In86 Cu29 Se144'
_cell_volume   7258.95574560
_cell_formula_units_Z   1
loop_
 _symmetry_equiv_pos_site_id
 _symmetry_equiv_pos_as_xyz
  1  'x, y, z'
loop_
 _atom_site_type_symbol
 _atom_site_label
 _atom_site_symmetry_multiplicity
 _atom_site_fract_x
 _atom_site_fract_y
 _atom_site_fract_z
 _atom_site_occupancy
  In  In0  1  -0.01229191  0.15521960  0.13031924  1
  In  In1  1  -0.00214366  0.15843731  0.61962242  1
  In  In2  1  -0.00497565  0.51963780  0.12408149  1
  In  In3  1  -0.00106234  0.49753117  0.62328126  1
  In  In4  1  0.00336899  0.83808679  0.11527812  1
  In  In5  1  -0.00663931  0.84578319  0.63017662  1
  In  In6  1  0.32986635  0.15633082  0.11984936  1
  In  In7  1  0.32692526  0.17366326  0.62819268  1
  In  In8  1  0.35688666  0.50500367  0.11570032  1
  In  In9  1  0.33804450  0.50023708  0.62394181  1
  In  In10  1  0.34333016  0.84329565  0.11099539  1
  In  In11  1  0.34564811  0.82080864  0.63786531  1
  In  In12  1  0.66259081  0.17810041  0.12326179  1
  In  In13  1  0.67570627  0.15978690  0.63371206  1
  In  In14  1  0.67294919  0.51606227  0.10948824  1
  In  In15  1  0.65628198  0.50138351  0.61719035  1
  In  In16  1  0.66091517  0.82774491  0.11452203  1
  In  In17  1  0.67303261  0.83704109  0.61688173  1
  In  In18  1  0.17227654  0.00282340  0.37203331  1
  In  In19  1  0.15901858  -0.00753226  0.86313753  1
  In  In20  1  0.17080595  0.32910345  0.39289501  1
  In  In21  1  0.16924078  0.32524040  0.86769701  1
  In  In22  1  0.15695102  0.66192076  0.37898286  1
  In  In23  1  0.18656308  0.66870862  0.87614522  1
  In  In24  1  0.48308156  -0.00409793  0.37402580  1
  In  In25  1  0.50084598  0.00265343  0.87325153  1
  In  In26  1  0.50683137  0.33506110  0.37804258  1
  In  In27  1  0.49780632  0.32904008  0.87043094  1
  In  In28  1  0.51038660  0.66373301  0.38006418  1
  In  In29  1  0.48563875  0.68344388  0.90184764  1
  In  In30  1  0.84441260  -0.01384033  0.37985880  1
  In  In31  1  0.82282823  -0.02154965  0.85331240  1
  In  In32  1  0.82295750  0.34240515  0.38820580  1
  In  In33  1  0.82572932  0.34859931  0.87204106  1
  In  In34  1  0.82081751  0.67778455  0.38817754  1
  In  In35  1  0.81344597  0.68313682  0.90191253  1
  In  In36  1  0.00962364  0.15729443  0.38275169  1
  In  In37  1  0.01075026  0.15848787  0.87293039  1
  In  In38  1  -0.00090876  0.49868860  0.38329133  1
  In  In39  1  -0.01257024  0.50545529  0.87873220  1
  In  In40  1  -0.01257099  0.82913094  0.37528709  1
  In  In41  1  -0.00976372  0.83875801  0.88289810  1
  In  In42  1  0.33713348  0.15569622  0.37902412  1
  In  In43  1  0.34694917  0.17785826  0.86104573  1
  In  In44  1  0.33964510  0.49167598  0.38943339  1
  In  In45  1  0.34644122  0.50178478  0.86968228  1
  In  In46  1  0.33134284  0.84607322  0.37562770  1
  In  In47  1  0.33288796  0.83354112  0.87691087  1
  In  In48  1  0.66447294  0.17747313  0.38208294  1
  In  In49  1  0.65610710  0.15549791  0.86441368  1
  In  In50  1  0.65421373  0.51789594  0.39392414  1
  In  In51  1  0.66540678  0.50233807  0.87658292  1
  In  In52  1  0.67381768  0.82593220  0.38531934  1
  In  In53  1  0.66023869  0.83653569  0.88292494  1
  In  In54  1  0.17113018  -0.00317268  0.12866872  1
  In  In55  1  0.16195697  0.00550134  0.63072033  1
  In  In56  1  0.17985796  0.33610368  0.12373832  1
  In  In57  1  0.18758326  0.34045049  0.61058263  1
  In  In58  1  0.15109770  0.67866350  0.11869655  1
  In  In59  1  0.18408916  0.66945053  0.62976969  1
  In  In60  1  0.48840351  -0.01226264  0.11373669  1
  In  In61  1  0.51100687  -0.01195874  0.63575854  1
  In  In62  1  0.50659393  0.34917987  0.10662071  1
  In  In63  1  0.48892042  0.34836021  0.63245670  1
  In  In64  1  0.51526771  0.68430459  0.10073881  1
  In  In65  1  0.50315156  0.65892072  0.61609340  1
  In  In66  1  0.84506268  -0.00093984  0.12853443  1
  In  In67  1  0.82865678  -0.00070098  0.62589316  1
  In  In68  1  0.81885253  0.34114731  0.12630158  1
  In  In69  1  0.83218122  0.32962563  0.62640801  1
  In  In70  1  0.82483838  0.66169570  0.10759670  1
  In  In71  1  0.82429492  0.67253632  0.61470570  1
  In  In72  1  0.33334025  0.67220850  0.24363585  1
  In  In73  1  0.66168488  0.67143173  0.76032594  1
  In  In74  1  -0.00387962  0.67149963  0.74845648  1
  In  In75  1  0.33993282  0.32508176  0.25487213  1
  In  In76  1  0.66671364  0.33428470  0.25567592  1
  In  In77  1  0.83217021  0.16392552  0.00010684  1
  In  In78  1  -0.00011013  0.32942369  0.25164845  1
  In  In79  1  0.00451400  0.32532455  0.74736178  1
  In  In80  1  0.17484848  0.50071982  -0.00522503  1
  In  In81  1  0.49562041  0.17151930  0.50512993  1
  In  In82  1  -0.00459463  0.67541230  0.24806788  1
  In  In83  1  0.16822805  0.83120535  0.50507021  1
  In  In84  1  0.17205459  0.16374023  -0.00549042  1
  In  In85  1  0.66276301  -0.00261118  0.25285654  1
  Cu  Cu86  1  0.50239111  0.82937639  0.75885627  1
  Cu  Cu87  1  0.83737695  0.16424039  0.74599814  1
  Cu  Cu88  1  0.33333008  -0.00249006  0.50439795  1
  Cu  Cu89  1  0.51542498  0.50910660  0.25065134  1
  Cu  Cu90  1  0.16626621  0.84587858  0.24418405  1
  Cu  Cu91  1  0.16166741  0.15628335  0.25156038  1
  Cu  Cu92  1  0.50161711  0.50410065  0.74872638  1
  Cu  Cu93  1  0.17197371  0.82911254  0.75179760  1
  Cu  Cu94  1  0.48855245  0.15680420  0.24119140  1
  Cu  Cu95  1  0.82794852  0.82731565  0.25299671  1
  Cu  Cu96  1  0.66898329  0.33228670  0.50812132  1
  Cu  Cu97  1  0.66183637  0.33162420  -0.00655829  1
  Cu  Cu98  1  0.49842893  0.83012241  0.24083190  1
  Cu  Cu99  1  0.33760990  0.66202346  0.50453940  1
  Cu  Cu100  1  -0.00073255  0.66339585  0.50346462  1
  Cu  Cu101  1  0.66632705  0.00453537  0.50521079  1
  Cu  Cu102  1  0.17333093  0.49566185  0.75005874  1
  Cu  Cu103  1  0.17710765  0.49705166  0.25601966  1
  Cu  Cu104  1  -0.00255209  -0.00302564  -0.00408343  1
  Cu  Cu105  1  -0.00415115  -0.00315368  0.50268148  1
  Cu  Cu106  1  -0.00396259  0.34358216  0.00265010  1
  Cu  Cu107  1  0.17294431  0.16494847  0.74494830  1
  Cu  Cu108  1  0.50053137  0.16561244  0.74586996  1
  Cu  Cu109  1  0.82433857  0.50752535  0.75305868  1
  Cu  Cu110  1  0.82757236  0.51559845  0.24743370  1
  Cu  Cu111  1  0.66572886  0.00036037  -0.00697238  1
  Cu  Cu112  1  0.33483936  0.00431213  -0.00698676  1
  Cu  Cu113  1  -0.00173980  0.32795922  0.50635375  1
  Cu  Cu114  1  0.84068795  0.15801624  0.26051824  1
  Se  Se115  1  0.07409122  0.08117492  0.05590730  1
  Se  Se116  1  0.08572327  0.07713026  0.55238743  1
  Se  Se117  1  0.07972951  0.41674163  0.06362576  1
  Se  Se118  1  0.08143879  0.41443057  0.55623188  1
  Se  Se119  1  0.06683962  0.74354264  0.04474313  1
  Se  Se120  1  0.07725020  0.74327072  0.56693931  1
  Se  Se121  1  0.41771516  0.08549691  0.04866825  1
  Se  Se122  1  0.41609161  0.07425903  0.56569234  1
  Se  Se123  1  0.40185148  0.40531658  0.04377692  1
  Se  Se124  1  0.42177272  0.42202923  0.55304048  1
  Se  Se125  1  0.40616859  0.74629518  0.04467867  1
  Se  Se126  1  0.41624032  0.75154023  0.55603798  1
  Se  Se127  1  0.74120334  0.07465488  0.06241395  1
  Se  Se128  1  0.75149642  0.08767814  0.55511533  1
  Se  Se129  1  0.74529056  0.41303665  0.04931399  1
  Se  Se130  1  0.75231177  0.41683798  0.55927420  1
  Se  Se131  1  0.75355606  0.75985949  0.04642585  1
  Se  Se132  1  0.73776419  0.74492303  0.54516311  1
  Se  Se133  1  0.26107637  0.25805451  0.05120117  1
  Se  Se134  1  0.25168899  0.23818575  0.54765213  1
  Se  Se135  1  0.25051843  0.58944389  0.06580438  1
  Se  Se136  1  0.24877704  0.58312338  0.55577818  1
  Se  Se137  1  0.24912075  0.92694703  0.05077289  1
  Se  Se138  1  0.25863396  0.91583485  0.56756865  1
  Se  Se139  1  0.58190514  0.24714938  0.04845273  1
  Se  Se140  1  0.58668155  0.25394148  0.56865671  1
  Se  Se141  1  0.54961816  0.55345597  0.05785718  1
  Se  Se142  1  0.59666874  0.59523414  0.54556104  1
  Se  Se143  1  0.58226920  0.91661409  0.04768623  1
  Se  Se144  1  0.58082043  0.91931437  0.55323777  1
  Se  Se145  1  0.92017034  0.25894834  0.06312476  1
  Se  Se146  1  0.91262079  0.24598711  0.55721144  1
  Se  Se147  1  0.91286341  0.57570128  0.04614474  1
  Se  Se148  1  0.91546114  0.58271919  0.55794693  1
  Se  Se149  1  0.91088395  0.91874831  0.05080238  1
  Se  Se150  1  0.91167200  0.91456824  0.55470177  1
  Se  Se151  1  0.08217809  0.24404676  0.45368341  1
  Se  Se152  1  0.07348060  0.26093976  0.94411480  1
  Se  Se153  1  0.08356429  0.58090578  0.45143201  1
  Se  Se154  1  0.08296377  0.58890859  0.93782899  1
  Se  Se155  1  0.07885037  0.91725902  0.44144296  1
  Se  Se156  1  0.08732489  0.91985112  0.94341838  1
  Se  Se157  1  0.40690122  0.26049276  0.44163854  1
  Se  Se158  1  0.41940078  0.24407421  0.94086011  1
  Se  Se159  1  0.42284093  0.58413982  0.44799781  1
  Se  Se160  1  0.40321165  0.58197208  0.95123148  1
  Se  Se161  1  0.41527427  0.91377605  0.45133715  1
  Se  Se162  1  0.41942588  0.91919717  0.94305520  1
  Se  Se163  1  0.75002841  0.24753246  0.45414148  1
  Se  Se164  1  0.74530458  0.25058675  0.93612443  1
  Se  Se165  1  0.77710922  0.55871093  0.44313088  1
  Se  Se166  1  0.75040099  0.57080920  0.95124517  1
  Se  Se167  1  0.74856338  0.92147980  0.44838216  1
  Se  Se168  1  0.75526357  0.92202526  0.94205349  1
  Se  Se169  1  0.25112052  0.07763148  0.44804564  1
  Se  Se170  1  0.25557370  0.07887364  0.92828069  1
  Se  Se171  1  0.24245460  0.42582754  0.45342704  1
  Se  Se172  1  0.25639960  0.40644831  0.93445647  1
  Se  Se173  1  0.25807946  0.74144821  0.44137118  1
  Se  Se174  1  0.25403987  0.75289963  0.94967544  1
  Se  Se175  1  0.58231993  0.07711595  0.44058987  1
  Se  Se176  1  0.58213642  0.08666892  0.94467388  1
  Se  Se177  1  0.58469747  0.41146096  0.45115172  1
  Se  Se178  1  0.57979521  0.41410264  0.93967012  1
  Se  Se179  1  0.56680121  0.76671365  0.44462580  1
  Se  Se180  1  0.60849141  0.73023332  0.94869203  1
  Se  Se181  1  0.91496095  0.08091702  0.44701366  1
  Se  Se182  1  0.91689010  0.07655604  0.93595056  1
  Se  Se183  1  0.91971338  0.41419225  0.45174646  1
  Se  Se184  1  0.91015998  0.41817949  0.94699869  1
  Se  Se185  1  0.91853202  0.75096027  0.45199350  1
  Se  Se186  1  0.93144880  0.73920675  0.95137510  1
  Se  Se187  1  0.23854276  0.24130780  0.31165239  1
  Se  Se188  1  0.25248018  0.25378675  0.79546326  1
  Se  Se189  1  0.25363695  0.58112912  0.31380481  1
  Se  Se190  1  0.25423680  0.58031849  0.80349725  1
  Se  Se191  1  0.25271327  0.92068366  0.30096041  1
  Se  Se192  1  0.25561960  0.91481791  0.80229336  1
  Se  Se193  1  0.56808310  0.23549698  0.30357989  1
  Se  Se194  1  0.58381844  0.25041138  0.79899218  1
  Se  Se195  1  0.59543967  0.58861770  0.30762777  1
  Se  Se196  1  0.56606475  0.58575491  0.81649012  1
  Se  Se197  1  0.57242861  0.90680696  0.30925012  1
  Se  Se198  1  0.58689260  0.91582771  0.80733147  1
  Se  Se199  1  0.91094763  0.24899794  0.31821395  1
  Se  Se200  1  0.91049046  0.24350599  0.81276700  1
  Se  Se201  1  0.91313334  0.58392360  0.31125256  1
  Se  Se202  1  0.90243183  0.58971187  0.81150504  1
  Se  Se203  1  0.91614231  0.91111956  0.30033086  1
  Se  Se204  1  0.93521588  0.91817058  0.80003950  1
  Se  Se205  1  0.07743002  0.07616891  0.30509376  1
  Se  Se206  1  0.08298710  0.08517913  0.79523022  1
  Se  Se207  1  0.09227766  0.41770117  0.31187368  1
  Se  Se208  1  0.08377736  0.42559911  0.80948019  1
  Se  Se209  1  0.09363533  0.76267596  0.30710027  1
  Se  Se210  1  0.08871855  0.75236214  0.81244011  1
  Se  Se211  1  0.40812728  0.07903450  0.30057607  1
  Se  Se212  1  0.41884535  0.07945057  0.79863669  1
  Se  Se213  1  0.43048350  0.42805936  0.30677851  1
  Se  Se214  1  0.41939032  0.41459225  0.79839664  1
  Se  Se215  1  0.42057957  0.75680407  0.30919583  1
  Se  Se216  1  0.42133687  0.74547526  0.81344726  1
  Se  Se217  1  0.74975138  0.08630468  0.31680488  1
  Se  Se218  1  0.75042435  0.08300395  0.79798871  1
  Se  Se219  1  0.75562505  0.42901162  0.30983155  1
  Se  Se220  1  0.74011947  0.42039401  0.80023361  1
  Se  Se221  1  0.74591369  0.74684418  0.30810985  1
  Se  Se222  1  0.75974160  0.75884177  0.81408079  1
  Se  Se223  1  0.25168083  0.08328096  0.19597179  1
  Se  Se224  1  0.25717522  0.07835947  0.69628140  1
  Se  Se225  1  0.25946288  0.42598357  0.19276404  1
  Se  Se226  1  0.25312351  0.41519300  0.69252588  1
  Se  Se227  1  0.24208922  0.76230069  0.18500066  1
  Se  Se228  1  0.25848994  0.74215518  0.70674134  1
  Se  Se229  1  0.57783402  0.08337712  0.18535712  1
  Se  Se230  1  0.58871050  0.07980746  0.70044654  1
  Se  Se231  1  0.58502337  0.42123087  0.18846416  1
  Se  Se232  1  0.58656529  0.42251447  0.69567680  1
  Se  Se233  1  0.58148383  0.74814496  0.18755694  1
  Se  Se234  1  0.57802997  0.75405974  0.69049957  1
  Se  Se235  1  0.92021296  0.07419427  0.20667181  1
  Se  Se236  1  0.91906842  0.08045860  0.69308696  1
  Se  Se237  1  0.90939135  0.42677296  0.19333138  1
  Se  Se238  1  0.91062444  0.42535436  0.69948244  1
  Se  Se239  1  0.90487468  0.75620949  0.18386593  1
  Se  Se240  1  0.90134466  0.75750781  0.69102825  1
  Se  Se241  1  0.09207987  0.24130515  0.18737304  1
  Se  Se242  1  0.09500108  0.24638788  0.68217837  1
  Se  Se243  1  0.09523634  0.57943646  0.19796640  1
  Se  Se244  1  0.09043569  0.57720255  0.69330214  1
  Se  Se245  1  0.07503089  0.91960138  0.19113965  1
  Se  Se246  1  0.08916594  0.91123297  0.69742117  1
  Se  Se247  1  0.42390464  0.24944838  0.18169779  1
  Se  Se248  1  0.41618094  0.25089536  0.69553939  1
  Se  Se249  1  0.43282662  0.58645217  0.19103645  1
  Se  Se250  1  0.42084243  0.58655856  0.69127074  1
  Se  Se251  1  0.41271254  0.91590356  0.19266346  1
  Se  Se252  1  0.41970866  0.91382398  0.70385133  1
  Se  Se253  1  0.76131482  0.23814861  0.19930085  1
  Se  Se254  1  0.75289292  0.25278088  0.69991247  1
  Se  Se255  1  0.74681760  0.59105396  0.18716286  1
  Se  Se256  1  0.74773592  0.58653139  0.69090619  1
  Se  Se257  1  0.75160688  0.90984744  0.19081890  1
  Se  Se258  1  0.74228839  0.91778483  0.69258394  1
