# generated using pymatgen
data_In86Cu29Se144
_symmetry_space_group_name_H-M   'P 1'
_cell_length_a   17.58171870
_cell_length_b   17.58502938
_cell_length_c   23.43976905
_cell_angle_alpha   89.99823263
_cell_angle_beta   90.00994821
_cell_angle_gamma   89.98367353
_symmetry_Int_Tables_number   1
_chemical_formula_structural   In86Cu29Se144
_chemical_formula_sum   'In86 Cu29 Se144'
_cell_volume   7246.99112361
_cell_formula_units_Z   1
loop_
 _symmetry_equiv_pos_site_id
 _symmetry_equiv_pos_as_xyz
  1  'x, y, z'
loop_
 _atom_site_type_symbol
 _atom_site_label
 _atom_site_symmetry_multiplicity
 _atom_site_fract_x
 _atom_site_fract_y
 _atom_site_fract_z
 _atom_site_occupancy
  In  In0  1  -0.00449831  0.16034160  0.11171065  1
  In  In1  1  0.01009896  0.15163063  0.63708533  1
  In  In2  1  0.00385381  0.49350530  0.11980876  1
  In  In3  1  -0.00363815  0.51152011  0.63891330  1
  In  In4  1  0.01403360  0.83807008  0.11373284  1
  In  In5  1  0.00889349  0.82870840  0.63393233  1
  In  In6  1  0.34120623  0.16929718  0.10747853  1
  In  In7  1  0.32321107  0.17662451  0.63195418  1
  In  In8  1  0.32949752  0.50755019  0.12636505  1
  In  In9  1  0.31806585  0.51043079  0.64958245  1
  In  In10  1  0.32800346  0.83514007  0.12383943  1
  In  In11  1  0.33167381  0.83882243  0.62580306  1
  In  In12  1  0.66202335  0.15780407  0.11405854  1
  In  In13  1  0.66457663  0.17076740  0.63611482  1
  In  In14  1  0.67221146  0.51184894  0.12928941  1
  In  In15  1  0.66189151  0.48749980  0.62944117  1
  In  In16  1  0.66660550  0.82095030  0.12797812  1
  In  In17  1  0.66745650  0.84781713  0.62494898  1
  In  In18  1  0.15898557  0.00229013  0.37937836  1
  In  In19  1  0.17190249  0.00173278  0.87673918  1
  In  In20  1  0.16205095  0.32060667  0.37587684  1
  In  In21  1  0.16230506  0.32565990  0.87243252  1
  In  In22  1  0.18315744  0.66821411  0.37421668  1
  In  In23  1  0.16612693  0.66617148  0.87674013  1
  In  In24  1  0.48243212  -0.00212696  0.37605455  1
  In  In25  1  0.50721736  0.00587542  0.87232415  1
  In  In26  1  0.49731777  0.34280711  0.37209966  1
  In  In27  1  0.47625826  0.31926204  0.85673118  1
  In  In28  1  0.50187606  0.67816814  0.36379139  1
  In  In29  1  0.48453165  0.67156208  0.87324612  1
  In  In30  1  0.83969669  -0.01948613  0.36516333  1
  In  In31  1  0.83514511  -0.00210820  0.87735178  1
  In  In32  1  0.84373823  0.33291128  0.38267978  1
  In  In33  1  0.83630341  0.32659963  0.87215322  1
  In  In34  1  0.82113905  0.66888518  0.37750008  1
  In  In35  1  0.85764384  0.66474934  0.88313772  1
  In  In36  1  0.01176392  0.16706162  0.37442553  1
  In  In37  1  0.00361903  0.16234702  0.87521280  1
  In  In38  1  -0.00313490  0.48588070  0.38168486  1
  In  In39  1  0.03443804  0.51949474  0.84934569  1
  In  In40  1  -0.00628800  0.84846376  0.37308581  1
  In  In41  1  0.00107288  0.83177832  0.87845079  1
  In  In42  1  0.31834043  0.15936149  0.37122738  1
  In  In43  1  0.33141938  0.15847922  0.87906918  1
  In  In44  1  0.33693613  0.50592130  0.36756277  1
  In  In45  1  0.29833415  0.47464528  0.84294946  1
  In  In46  1  0.33733920  0.82831338  0.38231592  1
  In  In47  1  0.32124633  0.82254759  0.86842457  1
  In  In48  1  0.66580431  0.17774235  0.37110170  1
  In  In49  1  0.66857795  0.16561114  0.87709594  1
  In  In50  1  0.65614358  0.51188633  0.38123750  1
  In  In51  1  0.67271611  0.48993594  0.87305362  1
  In  In52  1  0.66587542  0.82015303  0.37023500  1
  In  In53  1  0.66561226  0.84736688  0.87604029  1
  In  In54  1  0.16914556  -0.01298606  0.10831250  1
  In  In55  1  0.16604987  0.00071415  0.62764065  1
  In  In56  1  0.17692831  0.34252317  0.11264676  1
  In  In57  1  0.17647849  0.32583381  0.63715139  1
  In  In58  1  0.17561277  0.68325653  0.10877848  1
  In  In59  1  0.15710906  0.67542550  0.63622263  1
  In  In60  1  0.48681776  0.00862449  0.12158035  1
  In  In61  1  0.50467468  -0.00397116  0.62938496  1
  In  In62  1  0.48732670  0.31424226  0.12005553  1
  In  In63  1  0.49075860  0.35068136  0.64530377  1
  In  In64  1  0.50126946  0.67638459  0.13790398  1
  In  In65  1  0.47965456  0.67192587  0.62953328  1
  In  In66  1  0.84264419  0.00397697  0.11815886  1
  In  In67  1  0.83112445  0.00179845  0.63676744  1
  In  In68  1  0.84317503  0.33197794  0.11856929  1
  In  In69  1  0.82667151  0.34266863  0.63592630  1
  In  In70  1  0.82538840  0.66645572  0.12666459  1
  In  In71  1  0.84883285  0.66961948  0.62615108  1
  In  In72  1  0.66279428  -0.00405099  0.24297099  1
  In  In73  1  0.49692344  0.49923761  -0.01056588  1
  In  In74  1  0.49416583  0.50168564  0.51136914  1
  In  In75  1  0.00512110  0.67021417  0.24465945  1
  In  In76  1  0.49287711  0.16764448  0.50310836  1
  In  In77  1  0.83582180  0.83114257  0.49829947  1
  In  In78  1  0.49579578  0.83974951  0.00284908  1
  In  In79  1  0.84332070  0.16048190  0.51042087  1
  In  In80  1  0.66206439  0.33849678  0.24859561  1
  In  In81  1  0.33036324  -0.00055553  0.24094893  1
  In  In82  1  0.66872827  0.66799192  0.75367334  1
  In  In83  1  0.16788724  0.49949238  0.50933130  1
  In  In84  1  0.84114680  0.49268798  -0.00497315  1
  In  In85  1  0.00399346  0.33176842  0.24655125  1
  Cu  Cu86  1  0.17723642  0.50094032  0.24301556  1
  Cu  Cu87  1  0.66875412  0.33080659  0.51380184  1
  Cu  Cu88  1  0.00009409  0.33434236  0.50737601  1
  Cu  Cu89  1  0.33443430  0.67543290  0.50187526  1
  Cu  Cu90  1  0.83753331  0.83411735  0.75459291  1
  Cu  Cu91  1  0.66565219  0.32502910  -0.00331995  1
  Cu  Cu92  1  0.66608923  0.66925341  0.00246770  1
  Cu  Cu93  1  0.32534591  0.33178462  0.50515395  1
  Cu  Cu94  1  0.66558230  0.66359703  0.49588691  1
  Cu  Cu95  1  0.32984705  0.33384908  -0.01341733  1
  Cu  Cu96  1  0.32221902  0.66081770  -0.00295112  1
  Cu  Cu97  1  0.16682630  0.16591138  0.24626446  1
  Cu  Cu98  1  0.50034407  0.16199288  0.75269762  1
  Cu  Cu99  1  0.83128019  0.16094910  0.24077065  1
  Cu  Cu100  1  0.83829722  0.49841085  0.75582778  1
  Cu  Cu101  1  0.67379869  0.00215753  -0.00174008  1
  Cu  Cu102  1  0.49582231  0.83910339  0.75242468  1
  Cu  Cu103  1  0.00312248  0.00044815  -0.00701163  1
  Cu  Cu104  1  0.00662549  0.66222389  0.50846070  1
  Cu  Cu105  1  0.65676701  -0.00174347  0.50136764  1
  Cu  Cu106  1  0.16849433  0.83582928  0.24291409  1
  Cu  Cu107  1  0.00409509  -0.00147034  0.50292630  1
  Cu  Cu108  1  0.83527227  0.16278138  0.75785984  1
  Cu  Cu109  1  0.82630337  0.50941097  0.25593837  1
  Cu  Cu110  1  0.49599373  0.50087418  0.24888970  1
  Cu  Cu111  1  0.16990602  0.16131144  0.75631313  1
  Cu  Cu112  1  0.16615162  0.83895168  0.75306910  1
  Cu  Cu113  1  0.00330515  0.33240486  -0.00836563  1
  Cu  Cu114  1  0.32217846  -0.00158509  0.50139072  1
  Se  Se115  1  0.08721834  0.08211649  0.04787930  1
  Se  Se116  1  0.08425093  0.08474692  0.55568037  1
  Se  Se117  1  0.08308094  0.41775392  0.04701131  1
  Se  Se118  1  0.07936081  0.41131564  0.57004456  1
  Se  Se119  1  0.07672081  0.74353939  0.04303319  1
  Se  Se120  1  0.08506255  0.75177324  0.55759014  1
  Se  Se121  1  0.41556485  0.07607257  0.04214252  1
  Se  Se122  1  0.40459265  0.07754435  0.56256324  1
  Se  Se123  1  0.40836618  0.41103069  0.05297483  1
  Se  Se124  1  0.39728056  0.41525596  0.56777235  1
  Se  Se125  1  0.41173909  0.73544885  0.05620225  1
  Se  Se126  1  0.41817696  0.75881599  0.55403432  1
  Se  Se127  1  0.75807623  0.08719294  0.05026354  1
  Se  Se128  1  0.73838172  0.07556007  0.56100718  1
  Se  Se129  1  0.73934733  0.41192867  0.05757917  1
  Se  Se130  1  0.75333202  0.41998483  0.55785453  1
  Se  Se131  1  0.75104662  0.75089258  0.05353340  1
  Se  Se132  1  0.74381233  0.74324082  0.56045588  1
  Se  Se133  1  0.24966194  0.25138025  0.04466755  1
  Se  Se134  1  0.24157940  0.24759090  0.55560532  1
  Se  Se135  1  0.24355520  0.57457687  0.05192705  1
  Se  Se136  1  0.25830669  0.59340545  0.56427305  1
  Se  Se137  1  0.26826135  0.91654716  0.04616562  1
  Se  Se138  1  0.24214220  0.91415336  0.55633718  1
  Se  Se139  1  0.57950285  0.24639883  0.05050054  1
  Se  Se140  1  0.57693675  0.25849144  0.56813745  1
  Se  Se141  1  0.58169649  0.58960709  0.05804080  1
  Se  Se142  1  0.58904636  0.59341244  0.56567778  1
  Se  Se143  1  0.59278708  0.92542451  0.06258218  1
  Se  Se144  1  0.57592299  0.91310081  0.55279471  1
  Se  Se145  1  0.91663411  0.25198622  0.04562407  1
  Se  Se146  1  0.92440874  0.25424747  0.57138485  1
  Se  Se147  1  0.91959576  0.58800511  0.05893547  1
  Se  Se148  1  0.92023616  0.57896753  0.55682942  1
  Se  Se149  1  0.92143234  0.91837269  0.04970889  1
  Se  Se150  1  0.91881423  0.92237431  0.56267246  1
  Se  Se151  1  0.07855944  0.25096611  0.45066614  1
  Se  Se152  1  0.08742548  0.24282244  0.94618962  1
  Se  Se153  1  0.08203602  0.58600627  0.44066930  1
  Se  Se154  1  0.07835726  0.58301644  0.94176507  1
  Se  Se155  1  0.08199584  0.91221574  0.44765945  1
  Se  Se156  1  0.08882975  0.91518327  0.94438204  1
  Se  Se157  1  0.40654199  0.25867230  0.44022998  1
  Se  Se158  1  0.41941036  0.24857414  0.94291096  1
  Se  Se159  1  0.41367098  0.59051752  0.44317282  1
  Se  Se160  1  0.39787133  0.58173560  0.93423799  1
  Se  Se161  1  0.41249021  0.91847613  0.45150842  1
  Se  Se162  1  0.41220295  0.91587778  0.93209429  1
  Se  Se163  1  0.74624401  0.25182611  0.45067102  1
  Se  Se164  1  0.75557006  0.24834160  0.94499008  1
  Se  Se165  1  0.75220910  0.57854187  0.44908975  1
  Se  Se166  1  0.74465745  0.58833072  0.94170296  1
  Se  Se167  1  0.74193956  0.92317534  0.44093009  1
  Se  Se168  1  0.75388311  0.91318874  0.94898505  1
  Se  Se169  1  0.24336617  0.08595915  0.44766218  1
  Se  Se170  1  0.24054200  0.09036676  0.94958592  1
  Se  Se171  1  0.25358275  0.41483023  0.43969888  1
  Se  Se172  1  0.24525210  0.41883910  0.93652558  1
  Se  Se173  1  0.24489274  0.75408512  0.45079060  1
  Se  Se174  1  0.24508611  0.75353062  0.94795126  1
  Se  Se175  1  0.58672182  0.08328751  0.43868568  1
  Se  Se176  1  0.58560397  0.08250751  0.94721938  1
  Se  Se177  1  0.58720708  0.40816003  0.45027935  1
  Se  Se178  1  0.58497339  0.40146087  0.93572036  1
  Se  Se179  1  0.58229628  0.74606937  0.44288405  1
  Se  Se180  1  0.58483999  0.74597705  0.94081084  1
  Se  Se181  1  0.92068864  0.07244004  0.43893579  1
  Se  Se182  1  0.91565604  0.08511262  0.94510479  1
  Se  Se183  1  0.91378839  0.41638250  0.45670541  1
  Se  Se184  1  0.93241415  0.41694799  0.92900701  1
  Se  Se185  1  0.92914858  0.73975360  0.44142304  1
  Se  Se186  1  0.91445051  0.76017917  0.95255836  1
  Se  Se187  1  0.24629077  0.25051513  0.30174120  1
  Se  Se188  1  0.25478346  0.24484725  0.80781212  1
  Se  Se189  1  0.25388970  0.58743003  0.29864594  1
  Se  Se190  1  0.25922791  0.60435606  0.80285203  1
  Se  Se191  1  0.24490931  0.91451977  0.30893232  1
  Se  Se192  1  0.25297730  0.92145680  0.80319053  1
  Se  Se193  1  0.56887191  0.24387986  0.30245310  1
  Se  Se194  1  0.58503820  0.24591819  0.80494309  1
  Se  Se195  1  0.58206661  0.58159805  0.30287346  1
  Se  Se196  1  0.57979706  0.58076658  0.81448080  1
  Se  Se197  1  0.57469171  0.91420304  0.31106493  1
  Se  Se198  1  0.58541664  0.91951069  0.80132604  1
  Se  Se199  1  0.90834540  0.24130201  0.30549663  1
  Se  Se200  1  0.92313946  0.24707765  0.80431582  1
  Se  Se201  1  0.91940984  0.57923291  0.31223548  1
  Se  Se202  1  0.92035041  0.59003607  0.80083400  1
  Se  Se203  1  0.93004476  0.92211714  0.29215273  1
  Se  Se204  1  0.92019059  0.91749948  0.80797548  1
  Se  Se205  1  0.08578742  0.08381364  0.30255807  1
  Se  Se206  1  0.08319903  0.07724080  0.80546612  1
  Se  Se207  1  0.09441706  0.42575612  0.30592079  1
  Se  Se208  1  0.08526846  0.40347671  0.79677487  1
  Se  Se209  1  0.09274878  0.75764618  0.30921458  1
  Se  Se210  1  0.08482863  0.75337976  0.80672609  1
  Se  Se211  1  0.41947070  0.09219735  0.30336135  1
  Se  Se212  1  0.41515418  0.08071174  0.80555980  1
  Se  Se213  1  0.41348881  0.41548279  0.30035412  1
  Se  Se214  1  0.42647426  0.43257864  0.79901805  1
  Se  Se215  1  0.40000000  0.74645524  0.30454879  1
  Se  Se216  1  0.41222635  0.74987337  0.79746609  1
  Se  Se217  1  0.75474427  0.08774105  0.30827813  1
  Se  Se218  1  0.74890182  0.07937163  0.80817623  1
  Se  Se219  1  0.75405942  0.42060656  0.31555593  1
  Se  Se220  1  0.75402508  0.41159008  0.80298899  1
  Se  Se221  1  0.77244587  0.76789501  0.30673526  1
  Se  Se222  1  0.75900353  0.75344419  0.81646565  1
  Se  Se223  1  0.24165404  0.08775429  0.18072262  1
  Se  Se224  1  0.25144413  0.08105216  0.69719494  1
  Se  Se225  1  0.25496618  0.41115534  0.19176983  1
  Se  Se226  1  0.25248319  0.40828701  0.70942096  1
  Se  Se227  1  0.24917650  0.74828603  0.19203857  1
  Se  Se228  1  0.25011986  0.75684368  0.69689696  1
  Se  Se229  1  0.57258797  0.09431016  0.19209957  1
  Se  Se230  1  0.58508875  0.07962426  0.69873758  1
  Se  Se231  1  0.57208985  0.42297923  0.18340392  1
  Se  Se232  1  0.59654106  0.40982541  0.70692369  1
  Se  Se233  1  0.58835263  0.75258830  0.20469576  1
  Se  Se234  1  0.57916685  0.75808436  0.69188933  1
  Se  Se235  1  0.92263887  0.08519499  0.19077805  1
  Se  Se236  1  0.91803481  0.07799291  0.70433161  1
  Se  Se237  1  0.90545927  0.42793039  0.19514848  1
  Se  Se238  1  0.92103671  0.41487089  0.70194255  1
  Se  Se239  1  0.91832751  0.75826271  0.18420469  1
  Se  Se240  1  0.91983415  0.74961955  0.70107055  1
  Se  Se241  1  0.08990192  0.24629792  0.18250190  1
  Se  Se242  1  0.08661409  0.24427148  0.70168071  1
  Se  Se243  1  0.09340395  0.57867458  0.18492522  1
  Se  Se244  1  0.09702800  0.57552492  0.70243929  1
  Se  Se245  1  0.08943605  0.91973448  0.18783525  1
  Se  Se246  1  0.08127425  0.92232011  0.69950995  1
  Se  Se247  1  0.40155141  0.24537101  0.19102843  1
  Se  Se248  1  0.41587290  0.24760995  0.70075936  1
  Se  Se249  1  0.41419224  0.58577827  0.19599289  1
  Se  Se250  1  0.43817119  0.56607097  0.69693794  1
  Se  Se251  1  0.42896918  0.90605498  0.19187467  1
  Se  Se252  1  0.41363005  0.92157615  0.69662779  1
  Se  Se253  1  0.75295379  0.24796588  0.18671673  1
  Se  Se254  1  0.75428381  0.24725044  0.70137503  1
  Se  Se255  1  0.74465279  0.59333364  0.20341051  1
  Se  Se256  1  0.75927848  0.57927244  0.69190052  1
  Se  Se257  1  0.76013241  0.91310262  0.18726254  1
  Se  Se258  1  0.74944806  0.91382312  0.70192483  1
