# generated using pymatgen
data_In86Cu29Se144
_symmetry_space_group_name_H-M   'P 1'
_cell_length_a   17.58095230
_cell_length_b   17.57968856
_cell_length_c   23.44200171
_cell_angle_alpha   90.00738906
_cell_angle_beta   90.00475985
_cell_angle_gamma   89.99543530
_symmetry_Int_Tables_number   1
_chemical_formula_structural   In86Cu29Se144
_chemical_formula_sum   'In86 Cu29 Se144'
_cell_volume   7245.16464862
_cell_formula_units_Z   1
loop_
 _symmetry_equiv_pos_site_id
 _symmetry_equiv_pos_as_xyz
  1  'x, y, z'
loop_
 _atom_site_type_symbol
 _atom_site_label
 _atom_site_symmetry_multiplicity
 _atom_site_fract_x
 _atom_site_fract_y
 _atom_site_fract_z
 _atom_site_occupancy
  In  In0  1  0.00890257  0.18051446  0.11936379  1
  In  In1  1  0.01474136  0.16877355  0.63165958  1
  In  In2  1  -0.00199644  0.49567950  0.11943593  1
  In  In3  1  -0.00881892  0.49059221  0.62114329  1
  In  In4  1  0.00623067  0.82252637  0.12164821  1
  In  In5  1  0.00349396  0.84690451  0.62253363  1
  In  In6  1  0.32573127  0.17354469  0.13371187  1
  In  In7  1  0.32336591  0.15177444  0.61201315  1
  In  In8  1  0.32271905  0.49123801  0.11513107  1
  In  In9  1  0.34158907  0.50467680  0.62018273  1
  In  In10  1  0.33978260  0.84382030  0.12766632  1
  In  In11  1  0.33095465  0.83130273  0.63312693  1
  In  In12  1  0.66501016  0.15615951  0.12120303  1
  In  In13  1  0.66059451  0.17957733  0.63561166  1
  In  In14  1  0.67285111  0.50518735  0.12018881  1
  In  In15  1  0.66545239  0.49459065  0.62954795  1
  In  In16  1  0.65144826  0.83579908  0.13616576  1
  In  In17  1  0.65791716  0.83499040  0.63270563  1
  In  In18  1  0.18485487  0.00246730  0.37837701  1
  In  In19  1  0.17658163  -0.00615754  0.88395701  1
  In  In20  1  0.16661917  0.33307772  0.37573469  1
  In  In21  1  0.16042913  0.33432747  0.87453669  1
  In  In22  1  0.16127838  0.66172671  0.37493131  1
  In  In23  1  0.18332862  0.66021826  0.88695838  1
  In  In24  1  0.50139454  0.00583137  0.37588405  1
  In  In25  1  0.50335647  0.00484814  0.86602898  1
  In  In26  1  0.48952526  0.34430053  0.38414856  1
  In  In27  1  0.51301021  0.33733514  0.87342127  1
  In  In28  1  0.49806844  0.65266375  0.37381111  1
  In  In29  1  0.48949441  0.65174870  0.87066035  1
  In  In30  1  0.82118508  0.01079519  0.37228623  1
  In  In31  1  0.83869769  0.01939183  0.87021160  1
  In  In32  1  0.84974626  0.33326730  0.37389961  1
  In  In33  1  0.84026058  0.33473615  0.87622535  1
  In  In34  1  0.81909352  0.66647695  0.37817871  1
  In  In35  1  0.81759002  0.66485784  0.87515937  1
  In  In36  1  -0.00395224  0.18293395  0.37399901  1
  In  In37  1  -0.00606296  0.17652362  0.87805766  1
  In  In38  1  0.01121415  0.48959358  0.38236410  1
  In  In39  1  0.01005742  0.48613413  0.87866334  1
  In  In40  1  0.01345037  0.83323867  0.36991589  1
  In  In41  1  0.01023486  0.84820969  0.87915401  1
  In  In42  1  0.32808807  0.16875065  0.38010886  1
  In  In43  1  0.33223597  0.15378360  0.87265013  1
  In  In44  1  0.33827890  0.49226441  0.38088214  1
  In  In45  1  0.32871675  0.50882887  0.88429407  1
  In  In46  1  0.33178371  0.85147858  0.36429748  1
  In  In47  1  0.33228920  0.82753867  0.87338335  1
  In  In48  1  0.66633607  0.15301052  0.37362279  1
  In  In49  1  0.69668729  0.19337876  0.84603562  1
  In  In50  1  0.65950891  0.50361222  0.38091557  1
  In  In51  1  0.66563924  0.50099016  0.87864320  1
  In  In52  1  0.65483529  0.83068876  0.36322556  1
  In  In53  1  0.66578187  0.83288443  0.86604229  1
  In  In54  1  0.17296821  0.00863985  0.12396636  1
  In  In55  1  0.17448043  0.02156965  0.61879309  1
  In  In56  1  0.16818726  0.33172845  0.12578556  1
  In  In57  1  0.15529237  0.32292508  0.62423508  1
  In  In58  1  0.17908487  0.66618164  0.10819605  1
  In  In59  1  0.18333406  0.66742212  0.62727155  1
  In  In60  1  0.49557230  -0.00408031  0.13768125  1
  In  In61  1  0.48707416  0.01179118  0.62603171  1
  In  In62  1  0.48285244  0.32699547  0.12514592  1
  In  In63  1  0.50520595  0.34062913  0.61837239  1
  In  In64  1  0.50851274  0.67242482  0.12483628  1
  In  In65  1  0.50612755  0.65823129  0.63283429  1
  In  In66  1  0.81751204  0.00170329  0.11997181  1
  In  In67  1  0.83268314  -0.00337205  0.62616170  1
  In  In68  1  0.84600027  0.34493666  0.11904589  1
  In  In69  1  0.82266100  0.33712695  0.63806881  1
  In  In70  1  0.82941455  0.65425112  0.12242811  1
  In  In71  1  0.83480235  0.64699231  0.63003423  1
  In  In72  1  -0.00249208  0.65720776  0.24512232  1
  In  In73  1  0.50211157  0.16891603  -0.00342760  1
  In  In74  1  -0.00195867  0.00234887  0.24731788  1
  In  In75  1  0.33265994  0.32988801  0.74502561  1
  In  In76  1  0.33906822  0.67081642  0.24451651  1
  In  In77  1  0.00248588  0.66440323  0.75513688  1
  In  In78  1  0.83749942  0.83153875  0.00071069  1
  In  In79  1  0.83251761  0.82813115  0.50614868  1
  In  In80  1  0.83518055  0.17041832  0.50043223  1
  In  In81  1  0.16907796  0.83283698  0.49532514  1
  In  In82  1  0.49623286  0.83146840  0.49186220  1
  In  In83  1  0.66327017  0.33152452  0.25064785  1
  In  In84  1  0.00560252  0.00515402  0.74827463  1
  In  In85  1  0.49648931  0.83021759  0.00541871  1
  Cu  Cu86  1  0.83340794  0.50076742  0.24593071  1
  Cu  Cu87  1  0.66601868  0.65060731  0.50559380  1
  Cu  Cu88  1  0.67081258  0.33421204  0.50590439  1
  Cu  Cu89  1  0.82286212  0.83571316  0.24988356  1
  Cu  Cu90  1  0.49257735  0.16437003  0.25372384  1
  Cu  Cu91  1  0.82621510  0.49394502  0.75348469  1
  Cu  Cu92  1  0.66733441  0.00666149  -0.00714480  1
  Cu  Cu93  1  0.49916645  0.49898054  0.25366294  1
  Cu  Cu94  1  0.17010550  0.49331365  0.24765574  1
  Cu  Cu95  1  0.49891703  0.83259204  0.75009241  1
  Cu  Cu96  1  0.00175554  0.33575834  0.50268667  1
  Cu  Cu97  1  0.33531994  0.66269726  0.49903082  1
  Cu  Cu98  1  0.00103164  0.66071023  0.49994612  1
  Cu  Cu99  1  0.00706893  0.00946443  0.00006558  1
  Cu  Cu100  1  0.66410435  0.00123124  0.49753892  1
  Cu  Cu101  1  0.17926593  0.83420312  0.75616239  1
  Cu  Cu102  1  0.33348685  0.00191418  0.00342098  1
  Cu  Cu103  1  0.00090296  0.33279387  -0.00015306  1
  Cu  Cu104  1  0.16912136  0.49990104  0.75501182  1
  Cu  Cu105  1  0.00257513  0.66033070  -0.00236492  1
  Cu  Cu106  1  0.67223637  0.33768006  -0.00677966  1
  Cu  Cu107  1  0.83202658  0.17001852  0.24918392  1
  Cu  Cu108  1  0.83100361  0.82964060  0.74691271  1
  Cu  Cu109  1  0.66238887  0.66439920  0.00012672  1
  Cu  Cu110  1  0.16924426  0.16856414  0.25123976  1
  Cu  Cu111  1  0.32785564  0.33278154  0.50127394  1
  Cu  Cu112  1  0.49734226  0.16329425  0.74528234  1
  Cu  Cu113  1  0.32726445  0.33332105  -0.00011952  1
  Cu  Cu114  1  0.50198965  0.49729917  0.74874279  1
  Se  Se115  1  0.09010976  0.09075783  0.05538267  1
  Se  Se116  1  0.07195294  0.08071661  0.55545617  1
  Se  Se117  1  0.08603127  0.41392488  0.05493512  1
  Se  Se118  1  0.08666147  0.41874189  0.55571164  1
  Se  Se119  1  0.08411451  0.74789168  0.04779991  1
  Se  Se120  1  0.07830517  0.74328959  0.56032395  1
  Se  Se121  1  0.41600306  0.08172716  0.06271850  1
  Se  Se122  1  0.42105590  0.08503201  0.54599982  1
  Se  Se123  1  0.41694808  0.41246033  0.05056196  1
  Se  Se124  1  0.41597523  0.41681948  0.55051176  1
  Se  Se125  1  0.40335916  0.73906795  0.05926748  1
  Se  Se126  1  0.41354194  0.74393433  0.56001020  1
  Se  Se127  1  0.75127803  0.08947506  0.04571852  1
  Se  Se128  1  0.74281253  0.08065959  0.55924649  1
  Se  Se129  1  0.75260871  0.41884948  0.05290016  1
  Se  Se130  1  0.75339285  0.41605009  0.55995333  1
  Se  Se131  1  0.73857350  0.75036830  0.06103202  1
  Se  Se132  1  0.74075753  0.73809341  0.56449262  1
  Se  Se133  1  0.25071340  0.24705847  0.05594903  1
  Se  Se134  1  0.24388823  0.24998077  0.55375607  1
  Se  Se135  1  0.25032670  0.57485115  0.04264623  1
  Se  Se136  1  0.24969102  0.58232140  0.55230447  1
  Se  Se137  1  0.25236122  0.91801985  0.05751642  1
  Se  Se138  1  0.25700987  0.91835186  0.55889325  1
  Se  Se139  1  0.59147578  0.26131140  0.05827910  1
  Se  Se140  1  0.58670383  0.24777656  0.55454656  1
  Se  Se141  1  0.58018079  0.58260892  0.05503359  1
  Se  Se142  1  0.57836749  0.57396099  0.55938392  1
  Se  Se143  1  0.58874826  0.92948792  0.05695504  1
  Se  Se144  1  0.58474501  0.91824516  0.55624935  1
  Se  Se145  1  0.91391053  0.24925810  0.05117098  1
  Se  Se146  1  0.91995912  0.25831397  0.56481123  1
  Se  Se147  1  0.91606887  0.58252703  0.05202984  1
  Se  Se148  1  0.91461681  0.58047914  0.55239000  1
  Se  Se149  1  0.92649875  0.92646555  0.06036096  1
  Se  Se150  1  0.92542485  0.93068422  0.54977613  1
  Se  Se151  1  0.08167347  0.25210444  0.44694026  1
  Se  Se152  1  0.08504326  0.24949891  0.94701413  1
  Se  Se153  1  0.08938268  0.58057882  0.44881884  1
  Se  Se154  1  0.08649501  0.57818935  0.94443397  1
  Se  Se155  1  0.07641643  0.92706825  0.44173659  1
  Se  Se156  1  0.08919253  0.91804767  0.95519287  1
  Se  Se157  1  0.41448531  0.25116718  0.44876546  1
  Se  Se158  1  0.40955078  0.25812786  0.93627419  1
  Se  Se159  1  0.42096675  0.57818851  0.44868403  1
  Se  Se160  1  0.41996323  0.58323385  0.95115478  1
  Se  Se161  1  0.40294587  0.92842818  0.44436004  1
  Se  Se162  1  0.41722410  0.92713667  0.94230396  1
  Se  Se163  1  0.74403049  0.25788576  0.43687388  1
  Se  Se164  1  0.74935167  0.24862285  0.94050582  1
  Se  Se165  1  0.75384072  0.57535356  0.44983829  1
  Se  Se166  1  0.75026397  0.58202317  0.95058825  1
  Se  Se167  1  0.74255082  0.91530896  0.44095782  1
  Se  Se168  1  0.74867558  0.91962828  0.93845769  1
  Se  Se169  1  0.24026688  0.09449129  0.45112706  1
  Se  Se170  1  0.25183558  0.08800336  0.95120934  1
  Se  Se171  1  0.24593543  0.41769490  0.44676835  1
  Se  Se172  1  0.24547109  0.41484125  0.94333566  1
  Se  Se173  1  0.26351601  0.74460275  0.43468031  1
  Se  Se174  1  0.24433276  0.76584583  0.94803391  1
  Se  Se175  1  0.58050911  0.08766279  0.44881327  1
  Se  Se176  1  0.59253560  0.08867018  0.93190899  1
  Se  Se177  1  0.58546458  0.41539299  0.45010675  1
  Se  Se178  1  0.58067540  0.42023475  0.94917122  1
  Se  Se179  1  0.59420631  0.73634192  0.44262197  1
  Se  Se180  1  0.58681176  0.74717966  0.93940591  1
  Se  Se181  1  0.92104932  0.07887503  0.43784064  1
  Se  Se182  1  0.91750267  0.08636385  0.94830430  1
  Se  Se183  1  0.91607133  0.41766281  0.44952417  1
  Se  Se184  1  0.91685756  0.41881294  0.94869501  1
  Se  Se185  1  0.92655355  0.74526897  0.43913884  1
  Se  Se186  1  0.92511194  0.74309190  0.93612886  1
  Se  Se187  1  0.25109243  0.25234675  0.30667403  1
  Se  Se188  1  0.24525602  0.24302633  0.80783682  1
  Se  Se189  1  0.24870628  0.57805547  0.30621563  1
  Se  Se190  1  0.25192863  0.58367368  0.80684439  1
  Se  Se191  1  0.22968144  0.90965654  0.30062087  1
  Se  Se192  1  0.25816568  0.92322270  0.80763775  1
  Se  Se193  1  0.57397980  0.24552721  0.31393688  1
  Se  Se194  1  0.57666959  0.25106298  0.79781096  1
  Se  Se195  1  0.58683993  0.58073523  0.30299902  1
  Se  Se196  1  0.58471649  0.58043018  0.80476987  1
  Se  Se197  1  0.58789390  0.93236767  0.30495853  1
  Se  Se198  1  0.58401464  0.91759182  0.79970016  1
  Se  Se199  1  0.91891511  0.25459818  0.29590168  1
  Se  Se200  1  0.90541614  0.24099420  0.80512906  1
  Se  Se201  1  0.91123024  0.57611018  0.31367597  1
  Se  Se202  1  0.90989093  0.57472689  0.81276722  1
  Se  Se203  1  0.90698974  0.91012281  0.31021658  1
  Se  Se204  1  0.91187629  0.90988841  0.80654826  1
  Se  Se205  1  0.08485653  0.09049083  0.31069806  1
  Se  Se206  1  0.08933980  0.08476340  0.81786541  1
  Se  Se207  1  0.08402662  0.41605429  0.30378106  1
  Se  Se208  1  0.08228365  0.41314812  0.79928209  1
  Se  Se209  1  0.09292773  0.75091409  0.29807440  1
  Se  Se210  1  0.09233026  0.75693115  0.81306365  1
  Se  Se211  1  0.41008213  0.08381751  0.31008727  1
  Se  Se212  1  0.41342652  0.08112159  0.79823495  1
  Se  Se213  1  0.41446324  0.41560114  0.30453239  1
  Se  Se214  1  0.41729581  0.42107470  0.80939769  1
  Se  Se215  1  0.42594197  0.75656270  0.31087625  1
  Se  Se216  1  0.41874880  0.74900620  0.80555479  1
  Se  Se217  1  0.74577120  0.08384798  0.29519113  1
  Se  Se218  1  0.73531384  0.06509048  0.80188856  1
  Se  Se219  1  0.75579712  0.42048135  0.30971500  1
  Se  Se220  1  0.74564390  0.41366272  0.81106705  1
  Se  Se221  1  0.74684566  0.74625602  0.30313887  1
  Se  Se222  1  0.74802739  0.74604663  0.79950994  1
  Se  Se223  1  0.25192744  0.08099665  0.20114097  1
  Se  Se224  1  0.25237116  0.08790296  0.69586326  1
  Se  Se225  1  0.25592721  0.41260252  0.19446103  1
  Se  Se226  1  0.24410863  0.42397010  0.68717704  1
  Se  Se227  1  0.24149846  0.75376699  0.18732713  1
  Se  Se228  1  0.25657766  0.74389778  0.70387817  1
  Se  Se229  1  0.57967084  0.08998995  0.19624137  1
  Se  Se230  1  0.58332913  0.07928567  0.69388110  1
  Se  Se231  1  0.57580074  0.42001556  0.18819824  1
  Se  Se232  1  0.58304812  0.40934804  0.69802490  1
  Se  Se233  1  0.57670492  0.74782945  0.20283188  1
  Se  Se234  1  0.58401927  0.74569684  0.70060784  1
  Se  Se235  1  0.90947943  0.09034961  0.18478065  1
  Se  Se236  1  0.90887140  0.09135771  0.69204851  1
  Se  Se237  1  0.92139763  0.41949354  0.19669130  1
  Se  Se238  1  0.91687769  0.41866415  0.69988200  1
  Se  Se239  1  0.90477873  0.75613907  0.19080227  1
  Se  Se240  1  0.91686784  0.75556523  0.68798042  1
  Se  Se241  1  0.08487436  0.25147933  0.19782988  1
  Se  Se242  1  0.08583627  0.25124985  0.70431062  1
  Se  Se243  1  0.09675186  0.57751669  0.18553667  1
  Se  Se244  1  0.08924212  0.57878359  0.69019282  1
  Se  Se245  1  0.08692326  0.91140204  0.18887332  1
  Se  Se246  1  0.10023093  0.91181506  0.69248612  1
  Se  Se247  1  0.41173153  0.25235470  0.20324049  1
  Se  Se248  1  0.42051614  0.24336250  0.68179163  1
  Se  Se249  1  0.42077463  0.57242495  0.18638839  1
  Se  Se250  1  0.41414797  0.58068730  0.69858839  1
  Se  Se251  1  0.41905321  0.90963661  0.20476522  1
  Se  Se252  1  0.41852088  0.91651878  0.69473632  1
  Se  Se253  1  0.75381819  0.24925406  0.18540743  1
  Se  Se254  1  0.75409753  0.24348828  0.70536844  1
  Se  Se255  1  0.74665982  0.58414154  0.19756953  1
  Se  Se256  1  0.74513503  0.58018575  0.70089660  1
  Se  Se257  1  0.74505014  0.92107184  0.19450745  1
  Se  Se258  1  0.75021040  0.91601533  0.69462836  1
