# generated using pymatgen
data_In86Cu29Se144
_symmetry_space_group_name_H-M   'P 1'
_cell_length_a   17.58372413
_cell_length_b   17.57980105
_cell_length_c   23.44186313
_cell_angle_alpha   90.00391129
_cell_angle_beta   90.01722908
_cell_angle_gamma   89.99322650
_symmetry_Int_Tables_number   1
_chemical_formula_structural   In86Cu29Se144
_chemical_formula_sum   'In86 Cu29 Se144'
_cell_volume   7246.31016738
_cell_formula_units_Z   1
loop_
 _symmetry_equiv_pos_site_id
 _symmetry_equiv_pos_as_xyz
  1  'x, y, z'
loop_
 _atom_site_type_symbol
 _atom_site_label
 _atom_site_symmetry_multiplicity
 _atom_site_fract_x
 _atom_site_fract_y
 _atom_site_fract_z
 _atom_site_occupancy
  In  In0  1  -0.00894339  0.14938984  0.09673632  1
  In  In1  1  0.00493750  0.18371749  0.62963195  1
  In  In2  1  0.00894563  0.50235087  0.13019242  1
  In  In3  1  -0.00929096  0.48892184  0.61677388  1
  In  In4  1  -0.00889687  0.82354205  0.11104030  1
  In  In5  1  0.00549971  0.82076641  0.62537892  1
  In  In6  1  0.32524321  0.16808589  0.13257201  1
  In  In7  1  0.33155263  0.15077458  0.62601049  1
  In  In8  1  0.32570440  0.50436417  0.14453114  1
  In  In9  1  0.34847420  0.51436623  0.61109949  1
  In  In10  1  0.32723362  0.83711638  0.13423374  1
  In  In11  1  0.33073809  0.83257469  0.62289448  1
  In  In12  1  0.66929430  0.15784917  0.13109676  1
  In  In13  1  0.67629135  0.17498695  0.61522721  1
  In  In14  1  0.67124482  0.50755904  0.13339216  1
  In  In15  1  0.66332187  0.49712888  0.62261924  1
  In  In16  1  0.67504266  0.82745353  0.13492903  1
  In  In17  1  0.64896212  0.82938190  0.61920642  1
  In  In18  1  0.16730767  -0.01357169  0.37393419  1
  In  In19  1  0.17171497  -0.00566706  0.88363632  1
  In  In20  1  0.18311768  0.33548503  0.37192329  1
  In  In21  1  0.15412756  0.33376778  0.86662204  1
  In  In22  1  0.17016739  0.66533096  0.37506557  1
  In  In23  1  0.16981656  0.66507682  0.87538026  1
  In  In24  1  0.49919155  0.00068293  0.37608506  1
  In  In25  1  0.49253036  0.00968447  0.86781584  1
  In  In26  1  0.49097332  0.34500034  0.38367841  1
  In  In27  1  0.51095904  0.32292360  0.86545512  1
  In  In28  1  0.50034447  0.66928760  0.37727295  1
  In  In29  1  0.49850329  0.66609589  0.86615114  1
  In  In30  1  0.82924601  0.01647988  0.37219414  1
  In  In31  1  0.84876285  -0.00614194  0.89171242  1
  In  In32  1  0.83149917  0.33739976  0.37966588  1
  In  In33  1  0.83105627  0.32838949  0.86993928  1
  In  In34  1  0.82439360  0.66013757  0.36905398  1
  In  In35  1  0.83260884  0.67571046  0.87493523  1
  In  In36  1  -0.01209565  0.16689602  0.37514409  1
  In  In37  1  -0.00132314  0.17318739  0.88735905  1
  In  In38  1  -0.01135924  0.51051073  0.38288928  1
  In  In39  1  0.01060551  0.49529324  0.87064220  1
  In  In40  1  0.01737278  0.83393468  0.37521373  1
  In  In41  1  0.00425561  0.83028405  0.89897113  1
  In  In42  1  0.34102005  0.17890260  0.36667857  1
  In  In43  1  0.33981622  0.15487075  0.86869358  1
  In  In44  1  0.33790672  0.49842224  0.37573025  1
  In  In45  1  0.32044663  0.50999752  0.86857806  1
  In  In46  1  0.33490278  0.83274078  0.37401316  1
  In  In47  1  0.32476974  0.82704294  0.87058043  1
  In  In48  1  0.67303116  0.15802214  0.37735130  1
  In  In49  1  0.67383463  0.17469949  0.86788816  1
  In  In50  1  0.64334829  0.53915726  0.40652947  1
  In  In51  1  0.66856424  0.49802871  0.86356726  1
  In  In52  1  0.65173570  0.82051849  0.36974204  1
  In  In53  1  0.67785694  0.83547059  0.87515105  1
  In  In54  1  0.16937883  0.00003687  0.11666334  1
  In  In55  1  0.18299892  0.00350364  0.62640442  1
  In  In56  1  0.16705800  0.32893105  0.12172006  1
  In  In57  1  0.15376520  0.33192336  0.62837922  1
  In  In58  1  0.15932453  0.67564992  0.13372888  1
  In  In59  1  0.17742480  0.67523606  0.61629717  1
  In  In60  1  0.50161028  -0.00046296  0.13728043  1
  In  In61  1  0.48974220  -0.01343579  0.61275789  1
  In  In62  1  0.49722357  0.32633445  0.13147664  1
  In  In63  1  0.51363800  0.34636470  0.61173356  1
  In  In64  1  0.49162276  0.66617294  0.14633238  1
  In  In65  1  0.49986510  0.66339383  0.62092643  1
  In  In66  1  0.83349382  -0.00467963  0.12100908  1
  In  In67  1  0.82036441  0.00166750  0.62336025  1
  In  In68  1  0.83962199  0.32449517  0.12333073  1
  In  In69  1  0.83363761  0.32839953  0.62558549  1
  In  In70  1  0.83075580  0.67450966  0.13507659  1
  In  In71  1  0.82639081  0.64990061  0.61965838  1
  In  In72  1  0.83641058  0.50200534  0.00310218  1
  In  In73  1  0.00076130  0.66385346  0.75559808  1
  In  In74  1  0.65870051  0.34673332  0.25997547  1
  In  In75  1  0.50284703  0.16327584  -0.00547385  1
  In  In76  1  0.00037295  -0.00412323  0.23505659  1
  In  In77  1  0.66222246  -0.00012594  0.75047523  1
  In  In78  1  0.16756301  0.16713513  0.50360392  1
  In  In79  1  0.00481600  0.33034547  0.24294125  1
  In  In80  1  0.82929075  0.83152568  0.49950805  1
  In  In81  1  0.50043681  0.83287766  0.00944223  1
  In  In82  1  0.49792304  0.49985426  0.01105395  1
  In  In83  1  0.33908302  0.34106249  0.74230125  1
  In  In84  1  0.16007418  0.50002279  -0.00078542  1
  In  In85  1  0.00077368  0.00155210  0.76499203  1
  Cu  Cu86  1  0.17084642  0.84188699  0.75113717  1
  Cu  Cu87  1  0.32675348  0.66732019  0.00016681  1
  Cu  Cu88  1  0.67147264  0.67456052  0.00555535  1
  Cu  Cu89  1  0.48959085  0.82986293  0.74143708  1
  Cu  Cu90  1  0.66889936  0.33132639  -0.00669648  1
  Cu  Cu91  1  0.33458215  0.33494059  0.49599235  1
  Cu  Cu92  1  0.32724030  0.32743678  0.00399497  1
  Cu  Cu93  1  0.49571666  0.16561648  0.25403437  1
  Cu  Cu94  1  0.83708957  0.84072635  0.24948721  1
  Cu  Cu95  1  0.16316513  0.15518070  0.24534880  1
  Cu  Cu96  1  0.33442689  -0.00141535  0.00097285  1
  Cu  Cu97  1  0.50182148  0.50286791  0.73975172  1
  Cu  Cu98  1  0.66381819  0.00199906  0.49701981  1
  Cu  Cu99  1  0.33353985  -0.00139246  0.49653203  1
  Cu  Cu100  1  0.67259545  0.33028885  0.49906518  1
  Cu  Cu101  1  0.50174023  0.83653572  0.25806777  1
  Cu  Cu102  1  0.84013308  0.16581047  0.75156476  1
  Cu  Cu103  1  0.83036768  0.48837287  0.74162165  1
  Cu  Cu104  1  0.16813828  0.50936814  0.74294977  1
  Cu  Cu105  1  0.50295269  0.16485178  0.73987297  1
  Cu  Cu106  1  -0.00127627  0.00022303  0.49548691  1
  Cu  Cu107  1  -0.00046446  0.33353958  0.50129991  1
  Cu  Cu108  1  0.16772624  0.49950086  0.25560693  1
  Cu  Cu109  1  0.00744805  0.66872400  0.49874987  1
  Cu  Cu110  1  0.82898658  0.50840101  0.25810084  1
  Cu  Cu111  1  0.67840928  0.00019088  0.00244420  1
  Cu  Cu112  1  0.33287087  0.67122327  0.49521620  1
  Cu  Cu113  1  0.17419763  0.82547558  0.25144887  1
  Cu  Cu114  1  0.82659749  0.82401776  0.75614223  1
  Se  Se115  1  0.09194383  0.07528371  0.04153503  1
  Se  Se116  1  0.07567557  0.07698063  0.56279390  1
  Se  Se117  1  0.06926358  0.40687133  0.05599432  1
  Se  Se118  1  0.08708721  0.41518188  0.55184207  1
  Se  Se119  1  0.09103616  0.74633819  0.05357391  1
  Se  Se120  1  0.08855420  0.75615408  0.54938547  1
  Se  Se121  1  0.41677152  0.07771430  0.06051313  1
  Se  Se122  1  0.41468432  0.08412633  0.54964520  1
  Se  Se123  1  0.40206461  0.40918072  0.06508424  1
  Se  Se124  1  0.42083584  0.42001360  0.54547448  1
  Se  Se125  1  0.41040349  0.73772112  0.06400673  1
  Se  Se126  1  0.41475206  0.75023565  0.55509815  1
  Se  Se127  1  0.75290948  0.08982691  0.05632408  1
  Se  Se128  1  0.75257065  0.08290099  0.54774164  1
  Se  Se129  1  0.73859494  0.41199938  0.06031502  1
  Se  Se130  1  0.75183392  0.41279685  0.55765911  1
  Se  Se131  1  0.75547060  0.75500147  0.05888482  1
  Se  Se132  1  0.73874509  0.74002000  0.55576319  1
  Se  Se133  1  0.24737164  0.24099846  0.05491491  1
  Se  Se134  1  0.25822163  0.25844309  0.56221433  1
  Se  Se135  1  0.25369858  0.58268770  0.06220884  1
  Se  Se136  1  0.24928394  0.58443585  0.54740710  1
  Se  Se137  1  0.25685751  0.91033690  0.05397226  1
  Se  Se138  1  0.24944450  0.91802752  0.55213399  1
  Se  Se139  1  0.58869244  0.25499163  0.05707621  1
  Se  Se140  1  0.58313866  0.24656496  0.54798265  1
  Se  Se141  1  0.58741383  0.59830131  0.06451354  1
  Se  Se142  1  0.57684400  0.57425432  0.55397665  1
  Se  Se143  1  0.59351970  0.92644137  0.06274119  1
  Se  Se144  1  0.58083717  0.91326269  0.54462629  1
  Se  Se145  1  0.91880106  0.25951669  0.04738527  1
  Se  Se146  1  0.91861507  0.24730411  0.55441572  1
  Se  Se147  1  0.92244680  0.59074806  0.06512968  1
  Se  Se148  1  0.92174258  0.58626439  0.55086134  1
  Se  Se149  1  0.92811071  0.92991490  0.05284540  1
  Se  Se150  1  0.92244738  0.92060923  0.56163532  1
  Se  Se151  1  0.07982949  0.25540697  0.43802837  1
  Se  Se152  1  0.09037442  0.25968927  0.94632326  1
  Se  Se153  1  0.08772204  0.58208843  0.44555079  1
  Se  Se154  1  0.06938030  0.59464445  0.94290840  1
  Se  Se155  1  0.08748669  0.91645822  0.45103807  1
  Se  Se156  1  0.07980886  0.92934523  0.95495837  1
  Se  Se157  1  0.41633522  0.24622827  0.44733179  1
  Se  Se158  1  0.41248337  0.26027034  0.93879399  1
  Se  Se159  1  0.41608642  0.58441638  0.44539616  1
  Se  Se160  1  0.41031393  0.58708442  0.94298337  1
  Se  Se161  1  0.41772362  0.91464030  0.44440139  1
  Se  Se162  1  0.41746248  0.92022387  0.94108493  1
  Se  Se163  1  0.75387983  0.24609562  0.44476008  1
  Se  Se164  1  0.75241636  0.24706227  0.94369463  1
  Se  Se165  1  0.76941209  0.58132882  0.45173664  1
  Se  Se166  1  0.73833976  0.58541657  0.94311918  1
  Se  Se167  1  0.74481116  0.92180162  0.43610770  1
  Se  Se168  1  0.75475267  0.90928090  0.95052180  1
  Se  Se169  1  0.25352011  0.08189432  0.43723846  1
  Se  Se170  1  0.25954114  0.08600661  0.94482105  1
  Se  Se171  1  0.24917378  0.41959539  0.44696253  1
  Se  Se172  1  0.25663418  0.41266236  0.93992912  1
  Se  Se173  1  0.24787651  0.75452436  0.44369179  1
  Se  Se174  1  0.24661187  0.75085624  0.94597799  1
  Se  Se175  1  0.58004640  0.08671771  0.44535936  1
  Se  Se176  1  0.59748020  0.07249808  0.93675436  1
  Se  Se177  1  0.58668595  0.41560194  0.45030165  1
  Se  Se178  1  0.58447003  0.41416221  0.94064379  1
  Se  Se179  1  0.58235918  0.74986202  0.44884078  1
  Se  Se180  1  0.58565708  0.74533983  0.94258712  1
  Se  Se181  1  0.91357555  0.08538952  0.44854651  1
  Se  Se182  1  0.91145950  0.09435396  0.95405593  1
  Se  Se183  1  0.91547757  0.41719161  0.44898653  1
  Se  Se184  1  0.92097363  0.41439425  0.93832932  1
  Se  Se185  1  0.92391701  0.74780774  0.43847201  1
  Se  Se186  1  0.91083332  0.74221607  0.95117438  1
  Se  Se187  1  0.24275577  0.24345604  0.29803862  1
  Se  Se188  1  0.25640398  0.25300703  0.80749728  1
  Se  Se189  1  0.25307637  0.58198896  0.30678271  1
  Se  Se190  1  0.24798554  0.59453679  0.79659499  1
  Se  Se191  1  0.25286285  0.91588789  0.30184664  1
  Se  Se192  1  0.25300188  0.92412249  0.80604780  1
  Se  Se193  1  0.57455369  0.24664512  0.31532944  1
  Se  Se194  1  0.58930282  0.24468264  0.79291442  1
  Se  Se195  1  0.58997242  0.58728178  0.31206428  1
  Se  Se196  1  0.58269038  0.58325253  0.80006451  1
  Se  Se197  1  0.58704089  0.92319313  0.30581987  1
  Se  Se198  1  0.57069354  0.90477772  0.80797606  1
  Se  Se199  1  0.90725852  0.24939946  0.30332824  1
  Se  Se200  1  0.92240336  0.24648001  0.80722929  1
  Se  Se201  1  0.92266528  0.58942318  0.30307016  1
  Se  Se202  1  0.90421875  0.56975766  0.80836780  1
  Se  Se203  1  0.91860107  0.91742034  0.31143441  1
  Se  Se204  1  0.91226866  0.89871919  0.81499595  1
  Se  Se205  1  0.08176599  0.08351294  0.30940109  1
  Se  Se206  1  0.09259352  0.09250684  0.81821916  1
  Se  Se207  1  0.08225060  0.41970356  0.31267841  1
  Se  Se208  1  0.08611817  0.42233883  0.79349126  1
  Se  Se209  1  0.08579163  0.74640693  0.30322600  1
  Se  Se210  1  0.08593634  0.76429718  0.81177840  1
  Se  Se211  1  0.41254972  0.07886246  0.30485874  1
  Se  Se212  1  0.41708035  0.08277944  0.79083932  1
  Se  Se213  1  0.40491677  0.40334073  0.30654380  1
  Se  Se214  1  0.42663370  0.42860707  0.81020126  1
  Se  Se215  1  0.41719196  0.74919279  0.30560604  1
  Se  Se216  1  0.41101551  0.74816512  0.80224639  1
  Se  Se217  1  0.75091987  0.08993038  0.29853786  1
  Se  Se218  1  0.76465174  0.07731498  0.81042657  1
  Se  Se219  1  0.74799999  0.43391109  0.32020914  1
  Se  Se220  1  0.74706373  0.40764972  0.79953956  1
  Se  Se221  1  0.75411993  0.75725604  0.30423561  1
  Se  Se222  1  0.73894742  0.74014545  0.80344818  1
  Se  Se223  1  0.24866551  0.07152736  0.19451143  1
  Se  Se224  1  0.24161298  0.09290370  0.70025484  1
  Se  Se225  1  0.23871993  0.40860250  0.19839932  1
  Se  Se226  1  0.24939079  0.43046431  0.68183007  1
  Se  Se227  1  0.25941162  0.73927095  0.20060549  1
  Se  Se228  1  0.24586589  0.75387854  0.69498184  1
  Se  Se229  1  0.58408705  0.08569169  0.20269187  1
  Se  Se230  1  0.58103374  0.08180789  0.67958434  1
  Se  Se231  1  0.56933229  0.42978649  0.19345901  1
  Se  Se232  1  0.58462627  0.41203980  0.69507968  1
  Se  Se233  1  0.58411222  0.75329599  0.20233374  1
  Se  Se234  1  0.57915667  0.74787997  0.69410645  1
  Se  Se235  1  0.91268220  0.09673418  0.18597332  1
  Se  Se236  1  0.91426043  0.08074631  0.69110207  1
  Se  Se237  1  0.90430873  0.42731860  0.19406736  1
  Se  Se238  1  0.92179007  0.40888747  0.69431809  1
  Se  Se239  1  0.92261516  0.75815161  0.19683360  1
  Se  Se240  1  0.90631064  0.74867192  0.69221663  1
  Se  Se241  1  0.08143625  0.23010918  0.18223384  1
  Se  Se242  1  0.09194270  0.24572780  0.70333733  1
  Se  Se243  1  0.08473854  0.58328844  0.20181531  1
  Se  Se244  1  0.08224592  0.58451321  0.68276889  1
  Se  Se245  1  0.09436539  0.90145273  0.18580945  1
  Se  Se246  1  0.08323340  0.91524889  0.69295282  1
  Se  Se247  1  0.41275364  0.24844282  0.19958490  1
  Se  Se248  1  0.42611765  0.24992172  0.68072234  1
  Se  Se249  1  0.42019987  0.57208121  0.20959688  1
  Se  Se250  1  0.41327904  0.58690566  0.69391131  1
  Se  Se251  1  0.41681372  0.91509922  0.20082696  1
  Se  Se252  1  0.41109889  0.92038086  0.69225290  1
  Se  Se253  1  0.74722760  0.25694703  0.19563555  1
  Se  Se254  1  0.75311984  0.24209146  0.69546724  1
  Se  Se255  1  0.74626126  0.59214448  0.20332883  1
  Se  Se256  1  0.74751219  0.57794705  0.69504600  1
  Se  Se257  1  0.75262826  0.92355300  0.19708351  1
  Se  Se258  1  0.75120280  0.90343500  0.69260691  1
