# generated using pymatgen
data_In86Cu29Se144
_symmetry_space_group_name_H-M   'P 1'
_cell_length_a   17.59003639
_cell_length_b   17.58819548
_cell_length_c   23.44873187
_cell_angle_alpha   89.97977988
_cell_angle_beta   90.01312745
_cell_angle_gamma   89.99316115
_symmetry_Int_Tables_number   1
_chemical_formula_structural   In86Cu29Se144
_chemical_formula_sum   'In86 Cu29 Se144'
_cell_volume   7254.49759025
_cell_formula_units_Z   1
loop_
 _symmetry_equiv_pos_site_id
 _symmetry_equiv_pos_as_xyz
  1  'x, y, z'
loop_
 _atom_site_type_symbol
 _atom_site_label
 _atom_site_symmetry_multiplicity
 _atom_site_fract_x
 _atom_site_fract_y
 _atom_site_fract_z
 _atom_site_occupancy
  In  In0  1  0.00409270  0.16148137  0.11555736  1
  In  In1  1  -0.00143076  0.15944936  0.61968356  1
  In  In2  1  0.00006869  0.51518255  0.12443644  1
  In  In3  1  0.00818964  0.51105282  0.62386602  1
  In  In4  1  -0.00886294  0.82727874  0.12099943  1
  In  In5  1  -0.00650511  0.84261228  0.63106844  1
  In  In6  1  0.32084990  0.16618825  0.13573101  1
  In  In7  1  0.32364873  0.16900453  0.62875464  1
  In  In8  1  0.34127818  0.50049358  0.12671797  1
  In  In9  1  0.31463060  0.49698143  0.62470460  1
  In  In10  1  0.33073557  0.83210596  0.12762236  1
  In  In11  1  0.33696749  0.83778578  0.62700165  1
  In  In12  1  0.66858666  0.14936122  0.12176080  1
  In  In13  1  0.67711775  0.15850820  0.62514854  1
  In  In14  1  0.67567681  0.51620820  0.11256417  1
  In  In15  1  0.68336801  0.49831339  0.62558759  1
  In  In16  1  0.65877596  0.83933108  0.12437350  1
  In  In17  1  0.66563141  0.81833308  0.62928937  1
  In  In18  1  0.17837479  0.00720192  0.37318115  1
  In  In19  1  0.16901702  -0.00524781  0.87738665  1
  In  In20  1  0.17407853  0.32428069  0.38090578  1
  In  In21  1  0.15717257  0.31782214  0.87330633  1
  In  In22  1  0.15502228  0.66265561  0.36254269  1
  In  In23  1  0.17259334  0.68179935  0.87522589  1
  In  In24  1  0.49495543  -0.00244455  0.36650513  1
  In  In25  1  0.48600671  0.00533749  0.88208679  1
  In  In26  1  0.48472654  0.33664255  0.37131492  1
  In  In27  1  0.49973274  0.34787249  0.87564244  1
  In  In28  1  0.50363008  0.67476936  0.36319240  1
  In  In29  1  0.50527955  0.66308034  0.89039711  1
  In  In30  1  0.83017397  0.00235301  0.37706491  1
  In  In31  1  0.84941975  -0.00614089  0.87646468  1
  In  In32  1  0.84519743  0.32734409  0.38337697  1
  In  In33  1  0.83855216  0.33513556  0.87861647  1
  In  In34  1  0.83300605  0.66884488  0.37563379  1
  In  In35  1  0.82470411  0.66210500  0.87247078  1
  In  In36  1  0.00304537  0.16100124  0.38214101  1
  In  In37  1  0.02321507  0.14048383  0.89824325  1
  In  In38  1  -0.00534553  0.50733846  0.38021068  1
  In  In39  1  -0.01230808  0.49865870  0.87310668  1
  In  In40  1  0.00354780  0.81109247  0.37106940  1
  In  In41  1  0.01281251  0.84505370  0.86733809  1
  In  In42  1  0.31077103  0.15292658  0.35640476  1
  In  In43  1  0.32106656  0.15575081  0.86949528  1
  In  In44  1  0.32220849  0.48764788  0.36632452  1
  In  In45  1  0.34131759  0.50392041  0.87344561  1
  In  In46  1  0.32983392  0.84464308  0.36041562  1
  In  In47  1  0.32353259  0.84224122  0.88732839  1
  In  In48  1  0.67968768  0.16178594  0.37215273  1
  In  In49  1  0.67286152  0.16949860  0.87988596  1
  In  In50  1  0.66833897  0.51393344  0.37286346  1
  In  In51  1  0.65835315  0.51887536  0.89015183  1
  In  In52  1  0.67231867  0.84012340  0.36779259  1
  In  In53  1  0.66742906  0.81573843  0.88445764  1
  In  In54  1  0.17127843  0.00808215  0.12002170  1
  In  In55  1  0.16343131  0.00385109  0.62728790  1
  In  In56  1  0.18034942  0.32860011  0.12574312  1
  In  In57  1  0.17546796  0.34269350  0.62181446  1
  In  In58  1  0.15573397  0.68192815  0.14037948  1
  In  In59  1  0.15603161  0.64455237  0.62200826  1
  In  In60  1  0.50932384  -0.01156334  0.12754113  1
  In  In61  1  0.49509517  -0.01341443  0.63081900  1
  In  In62  1  0.48493843  0.33692746  0.12408797  1
  In  In63  1  0.49316845  0.32598755  0.62952571  1
  In  In64  1  0.50250090  0.66761808  0.12222705  1
  In  In65  1  0.50327485  0.68087234  0.62878461  1
  In  In66  1  0.82302916  -0.00602684  0.11853759  1
  In  In67  1  0.84492815  0.00651054  0.61848431  1
  In  In68  1  0.82949624  0.33118301  0.12114229  1
  In  In69  1  0.84315188  0.33835783  0.61635943  1
  In  In70  1  0.83595026  0.66275224  0.12719512  1
  In  In71  1  0.83633170  0.66682677  0.62693566  1
  In  In72  1  0.00561999  -0.00659978  0.25216055  1
  In  In73  1  0.32995456  0.66868098  0.75032235  1
  In  In74  1  0.00270952  0.33443863  0.74979569  1
  In  In75  1  0.50023271  0.16497517  0.50627210  1
  In  In76  1  0.83341494  0.83314080  -0.00063895  1
  In  In77  1  0.16538547  0.83349114  0.49520377  1
  In  In78  1  0.50224518  0.50273822  0.49245335  1
  In  In79  1  0.16932406  0.50105066  0.00116677  1
  In  In80  1  0.00532018  0.33321072  0.24462372  1
  In  In81  1  0.66440597  -0.00609877  0.75108350  1
  In  In82  1  0.66706128  0.33698665  0.75344320  1
  In  In83  1  0.50064800  0.16759777  0.00344684  1
  In  In84  1  0.49965803  0.83707071  0.48813523  1
  In  In85  1  0.66078091  0.33677225  0.25458765  1
  Cu  Cu86  1  0.33376943  -0.00272149  0.00416042  1
  Cu  Cu87  1  0.50201281  0.50695773  0.24535858  1
  Cu  Cu88  1  0.82810980  0.51205431  0.75276004  1
  Cu  Cu89  1  0.83281410  0.50943947  0.25291666  1
  Cu  Cu90  1  0.32888303  0.33150231  0.49978968  1
  Cu  Cu91  1  -0.00416936  0.66430625  0.49931737  1
  Cu  Cu92  1  0.67414320  -0.00277909  0.49797533  1
  Cu  Cu93  1  0.48685451  0.16692272  0.75177582  1
  Cu  Cu94  1  0.16708773  0.16132270  0.75239259  1
  Cu  Cu95  1  0.67732907  0.33405848  0.49678710  1
  Cu  Cu96  1  0.49561947  0.83087356  0.75766166  1
  Cu  Cu97  1  -0.00174233  0.33181518  -0.00051588  1
  Cu  Cu98  1  0.66742383  0.34141164  0.00003352  1
  Cu  Cu99  1  0.84504690  0.16768436  0.75147054  1
  Cu  Cu100  1  0.33045566  0.32764224  0.00100218  1
  Cu  Cu101  1  0.83728723  0.83013841  0.75363610  1
  Cu  Cu102  1  -0.00292637  -0.00531600  0.49984303  1
  Cu  Cu103  1  0.16640981  0.83438453  0.75072923  1
  Cu  Cu104  1  0.49796829  0.50590973  0.75682635  1
  Cu  Cu105  1  -0.00274200  0.66917938  0.00021920  1
  Cu  Cu106  1  0.16650829  0.50046632  0.24779073  1
  Cu  Cu107  1  0.00480230  0.33193517  0.50208240  1
  Cu  Cu108  1  0.49868204  0.83155154  0.24418100  1
  Cu  Cu109  1  0.67901094  0.66229945  0.50230000  1
  Cu  Cu110  1  0.83164402  0.15608215  0.24976407  1
  Cu  Cu111  1  0.33180757  0.67154379  0.00507292  1
  Cu  Cu112  1  0.32770240  0.66311126  0.49388406  1
  Cu  Cu113  1  0.49859822  0.16400313  0.24094297  1
  Cu  Cu114  1  0.82993129  0.82638474  0.24520632  1
  Se  Se115  1  0.08420667  0.07940444  0.04802666  1
  Se  Se116  1  0.08317699  0.07719873  0.55160990  1
  Se  Se117  1  0.07817219  0.41078799  0.06266257  1
  Se  Se118  1  0.08252410  0.41866163  0.55689000  1
  Se  Se119  1  0.08177637  0.74622390  0.05640211  1
  Se  Se120  1  0.07713738  0.74642737  0.55943567  1
  Se  Se121  1  0.41161287  0.08037297  0.06498088  1
  Se  Se122  1  0.41135272  0.07297400  0.56347102  1
  Se  Se123  1  0.41126324  0.41709929  0.04943051  1
  Se  Se124  1  0.41453157  0.41226462  0.55593812  1
  Se  Se125  1  0.41725485  0.75449957  0.05653745  1
  Se  Se126  1  0.40910418  0.74381126  0.55238095  1
  Se  Se127  1  0.76293570  0.09342073  0.05043714  1
  Se  Se128  1  0.75438643  0.08456687  0.55078578  1
  Se  Se129  1  0.75547992  0.42031157  0.05260970  1
  Se  Se130  1  0.75620375  0.42046102  0.55008292  1
  Se  Se131  1  0.74500382  0.74495632  0.06001682  1
  Se  Se132  1  0.75361447  0.75146186  0.55674184  1
  Se  Se133  1  0.25168378  0.24175268  0.05395399  1
  Se  Se134  1  0.24713533  0.24816647  0.55444318  1
  Se  Se135  1  0.24886191  0.59248875  0.06549358  1
  Se  Se136  1  0.24758298  0.58071733  0.54875610  1
  Se  Se137  1  0.24941063  0.91424258  0.05629427  1
  Se  Se138  1  0.25548267  0.92121033  0.55652072  1
  Se  Se139  1  0.59135838  0.25974649  0.06357031  1
  Se  Se140  1  0.59660187  0.26029521  0.56095496  1
  Se  Se141  1  0.56786666  0.57255437  0.05243819  1
  Se  Se142  1  0.58759737  0.59026257  0.55992834  1
  Se  Se143  1  0.59402260  0.92779344  0.05069397  1
  Se  Se144  1  0.59114597  0.91923047  0.55799347  1
  Se  Se145  1  0.91635411  0.25023617  0.05566805  1
  Se  Se146  1  0.91843542  0.24651339  0.55186025  1
  Se  Se147  1  0.91421978  0.58418641  0.05137383  1
  Se  Se148  1  0.91485763  0.58166089  0.55582791  1
  Se  Se149  1  0.92684015  0.92783523  0.05184532  1
  Se  Se150  1  0.91439209  0.91019203  0.55172724  1
  Se  Se151  1  0.08499536  0.24704150  0.44783483  1
  Se  Se152  1  0.08998100  0.24836470  0.95589060  1
  Se  Se153  1  0.08565805  0.58921810  0.44413115  1
  Se  Se154  1  0.07911447  0.58931087  0.93907278  1
  Se  Se155  1  0.07480987  0.92181023  0.43323945  1
  Se  Se156  1  0.08270839  0.91633962  0.94601644  1
  Se  Se157  1  0.41017178  0.24956483  0.44276841  1
  Se  Se158  1  0.41202587  0.25171486  0.93720278  1
  Se  Se159  1  0.41203072  0.59039705  0.43185030  1
  Se  Se160  1  0.40891650  0.58294234  0.95090863  1
  Se  Se161  1  0.40178617  0.92911383  0.44081733  1
  Se  Se162  1  0.41948836  0.91446131  0.95324778  1
  Se  Se163  1  0.75390085  0.24384015  0.44503140  1
  Se  Se164  1  0.74886812  0.25777640  0.94616106  1
  Se  Se165  1  0.75702739  0.57815151  0.44625487  1
  Se  Se166  1  0.75828624  0.58630197  0.95205736  1
  Se  Se167  1  0.75289394  0.91080533  0.44437128  1
  Se  Se168  1  0.74427380  0.92450822  0.93864055  1
  Se  Se169  1  0.24942708  0.09231874  0.44464099  1
  Se  Se170  1  0.25177187  0.07955395  0.94770639  1
  Se  Se171  1  0.24850852  0.41935911  0.44733182  1
  Se  Se172  1  0.25280764  0.40824277  0.93798886  1
  Se  Se173  1  0.25544373  0.74749704  0.43216524  1
  Se  Se174  1  0.24436083  0.75344398  0.95448536  1
  Se  Se175  1  0.58786820  0.07566264  0.44088838  1
  Se  Se176  1  0.59134511  0.07740487  0.94451675  1
  Se  Se177  1  0.59221045  0.40617712  0.43551908  1
  Se  Se178  1  0.57884192  0.42096269  0.94961509  1
  Se  Se179  1  0.59508471  0.73998688  0.44149131  1
  Se  Se180  1  0.57825005  0.75397057  0.95710267  1
  Se  Se181  1  0.91417553  0.08145740  0.44698352  1
  Se  Se182  1  0.89695629  0.09964223  0.94313324  1
  Se  Se183  1  0.92119476  0.41690404  0.44939571  1
  Se  Se184  1  0.91724642  0.41917899  0.94940843  1
  Se  Se185  1  0.91539780  0.75076615  0.44695122  1
  Se  Se186  1  0.92381677  0.74924337  0.93465306  1
  Se  Se187  1  0.25856544  0.26833693  0.30150143  1
  Se  Se188  1  0.24820088  0.24973117  0.80278946  1
  Se  Se189  1  0.25086783  0.58331166  0.30104784  1
  Se  Se190  1  0.24111677  0.57791708  0.80924183  1
  Se  Se191  1  0.24483265  0.92804563  0.29568755  1
  Se  Se192  1  0.25175522  0.91316011  0.80611908  1
  Se  Se193  1  0.57268622  0.23859198  0.31105000  1
  Se  Se194  1  0.57409956  0.24222911  0.80990427  1
  Se  Se195  1  0.58738459  0.58665619  0.29926784  1
  Se  Se196  1  0.57914237  0.58756854  0.81156945  1
  Se  Se197  1  0.58040745  0.91455475  0.30149196  1
  Se  Se198  1  0.57626339  0.91192226  0.81723512  1
  Se  Se199  1  0.91381247  0.23984405  0.30492280  1
  Se  Se200  1  0.92289509  0.24300039  0.81503998  1
  Se  Se201  1  0.91977449  0.58836673  0.30610202  1
  Se  Se202  1  0.91804540  0.58982419  0.80372206  1
  Se  Se203  1  0.90941471  0.90481237  0.30920009  1
  Se  Se204  1  0.92144983  0.91999459  0.79827384  1
  Se  Se205  1  0.08895077  0.09576990  0.30474543  1
  Se  Se206  1  0.08424831  0.08068433  0.80889526  1
  Se  Se207  1  0.08699500  0.42145443  0.31120908  1
  Se  Se208  1  0.09084920  0.42462338  0.81066457  1
  Se  Se209  1  0.09525983  0.76273685  0.29526496  1
  Se  Se210  1  0.08445746  0.74823728  0.80151921  1
  Se  Se211  1  0.41608617  0.08331936  0.29858631  1
  Se  Se212  1  0.41139251  0.07635285  0.80341225  1
  Se  Se213  1  0.41868356  0.42130978  0.29677948  1
  Se  Se214  1  0.41398123  0.41660914  0.80133881  1
  Se  Se215  1  0.41288298  0.75270808  0.29920868  1
  Se  Se216  1  0.41509365  0.75145222  0.81832679  1
  Se  Se217  1  0.74700633  0.07229451  0.30019975  1
  Se  Se218  1  0.75569347  0.08870245  0.80584330  1
  Se  Se219  1  0.76239861  0.41879839  0.31228091  1
  Se  Se220  1  0.75150199  0.42919066  0.81427127  1
  Se  Se221  1  0.74792428  0.74575391  0.30373277  1
  Se  Se222  1  0.74740409  0.75232343  0.80430265  1
  Se  Se223  1  0.25116691  0.07035513  0.20077989  1
  Se  Se224  1  0.25117540  0.07827191  0.69830015  1
  Se  Se225  1  0.25091499  0.42020891  0.19315093  1
  Se  Se226  1  0.25127083  0.41359050  0.69959482  1
  Se  Se227  1  0.26256043  0.74126665  0.19938355  1
  Se  Se228  1  0.23882387  0.75289267  0.68475657  1
  Se  Se229  1  0.58685817  0.07914602  0.19621679  1
  Se  Se230  1  0.57382574  0.09173732  0.69246595  1
  Se  Se231  1  0.58093761  0.42337069  0.18627850  1
  Se  Se232  1  0.57578700  0.42705164  0.69125578  1
  Se  Se233  1  0.58541674  0.74942881  0.19355971  1
  Se  Se234  1  0.58213922  0.75010385  0.70574945  1
  Se  Se235  1  0.91438847  0.08150064  0.18887602  1
  Se  Se236  1  0.92114086  0.08159813  0.69508900  1
  Se  Se237  1  0.90823595  0.42524216  0.19182294  1
  Se  Se238  1  0.90690901  0.42621624  0.69444184  1
  Se  Se239  1  0.91848522  0.74580415  0.19603318  1
  Se  Se240  1  0.91946362  0.74842161  0.69664013  1
  Se  Se241  1  0.09258895  0.23770903  0.19021601  1
  Se  Se242  1  0.09001563  0.24239137  0.68893888  1
  Se  Se243  1  0.07729944  0.58467819  0.20152169  1
  Se  Se244  1  0.08186206  0.58135724  0.70300508  1
  Se  Se245  1  0.08666761  0.90964544  0.18401272  1
  Se  Se246  1  0.08407658  0.91941299  0.69681310  1
  Se  Se247  1  0.41349349  0.25171095  0.19585346  1
  Se  Se248  1  0.40729050  0.25217923  0.69831995  1
  Se  Se249  1  0.41637087  0.59011779  0.19458672  1
  Se  Se250  1  0.42077293  0.57916882  0.68728876  1
  Se  Se251  1  0.41562796  0.91841406  0.19464179  1
  Se  Se252  1  0.41243375  0.91333465  0.70399965  1
  Se  Se253  1  0.75142361  0.24420796  0.19556429  1
  Se  Se254  1  0.76176999  0.24794528  0.69350053  1
  Se  Se255  1  0.74686686  0.58408291  0.19576730  1
  Se  Se256  1  0.74403896  0.59134247  0.69709907  1
  Se  Se257  1  0.75037160  0.91492190  0.19381026  1
  Se  Se258  1  0.75839435  0.91107210  0.68933525  1
