# generated using pymatgen
data_In86Cu29Se144
_symmetry_space_group_name_H-M   'P 1'
_cell_length_a   17.57957177
_cell_length_b   17.58414023
_cell_length_c   23.43626102
_cell_angle_alpha   90.02156612
_cell_angle_beta   90.03909938
_cell_angle_gamma   89.99704256
_symmetry_Int_Tables_number   1
_chemical_formula_structural   In86Cu29Se144
_chemical_formula_sum   'In86 Cu29 Se144'
_cell_volume   7244.65358697
_cell_formula_units_Z   1
loop_
 _symmetry_equiv_pos_site_id
 _symmetry_equiv_pos_as_xyz
  1  'x, y, z'
loop_
 _atom_site_type_symbol
 _atom_site_label
 _atom_site_symmetry_multiplicity
 _atom_site_fract_x
 _atom_site_fract_y
 _atom_site_fract_z
 _atom_site_occupancy
  In  In0  1  -0.00182077  0.16687180  0.12151504  1
  In  In1  1  -0.00694423  0.16205291  0.62566525  1
  In  In2  1  -0.00631975  0.51157743  0.12933649  1
  In  In3  1  -0.00585218  0.48087887  0.60656506  1
  In  In4  1  0.00139459  0.82299102  0.12424016  1
  In  In5  1  -0.00036319  0.84221579  0.62810699  1
  In  In6  1  0.33168937  0.17541812  0.11912069  1
  In  In7  1  0.32763304  0.15224510  0.62972598  1
  In  In8  1  0.35095803  0.49528728  0.12581606  1
  In  In9  1  0.34855292  0.50868865  0.61385531  1
  In  In10  1  0.32969235  0.82667591  0.12059843  1
  In  In11  1  0.33488494  0.83120996  0.63201107  1
  In  In12  1  0.67170085  0.15350174  0.13469149  1
  In  In13  1  0.68072917  0.17128058  0.61448426  1
  In  In14  1  0.66826147  0.50101277  0.13244778  1
  In  In15  1  0.65721871  0.49382787  0.61259739  1
  In  In16  1  0.66270707  0.83758115  0.13154621  1
  In  In17  1  0.65279331  0.82734560  0.59528486  1
  In  In18  1  0.16128776  0.00187758  0.37692592  1
  In  In19  1  0.16480982  -0.00063535  0.87565361  1
  In  In20  1  0.17959504  0.34184781  0.37916008  1
  In  In21  1  0.15241936  0.32894736  0.87581583  1
  In  In22  1  0.15542753  0.65629748  0.36331453  1
  In  In23  1  0.18430037  0.66164694  0.87471671  1
  In  In24  1  0.51996926  -0.01009936  0.39028059  1
  In  In25  1  0.48899894  -0.00592017  0.87339342  1
  In  In26  1  0.51963731  0.32331799  0.39008684  1
  In  In27  1  0.51546744  0.33246242  0.87147748  1
  In  In28  1  0.50386750  0.66984787  0.37467807  1
  In  In29  1  0.49431390  0.67343316  0.88372750  1
  In  In30  1  0.78872493  0.02574230  0.41301569  1
  In  In31  1  0.84927710  0.00087146  0.87036238  1
  In  In32  1  0.81187943  0.36164598  0.38769577  1
  In  In33  1  0.82595265  0.33680651  0.88216688  1
  In  In34  1  0.83294664  0.65905102  0.37451841  1
  In  In35  1  0.81947230  0.66101386  0.87942851  1
  In  In36  1  -0.01152438  0.15194697  0.37429742  1
  In  In37  1  0.00580813  0.15758620  0.88139665  1
  In  In38  1  -0.01988960  0.51881274  0.38967724  1
  In  In39  1  -0.00820414  0.48770529  0.87632065  1
  In  In40  1  -0.01396498  0.81511376  0.36293009  1
  In  In41  1  -0.00060153  0.85287413  0.87141273  1
  In  In42  1  0.35852939  0.17633185  0.37766180  1
  In  In43  1  0.32894577  0.14818203  0.86735863  1
  In  In44  1  0.32896969  0.50518441  0.38453622  1
  In  In45  1  0.33694598  0.51680866  0.87093886  1
  In  In46  1  0.35391939  0.82555376  0.38024805  1
  In  In47  1  0.33508404  0.82862648  0.87870415  1
  In  In48  1  0.65834017  0.17636384  0.37060413  1
  In  In49  1  0.66277993  0.18191902  0.87325213  1
  In  In50  1  0.67424136  0.50413175  0.37364794  1
  In  In51  1  0.66776093  0.49674004  0.88474152  1
  In  In52  1  0.66479443  0.82685924  0.37810927  1
  In  In53  1  0.65976222  0.81851192  0.87848329  1
  In  In54  1  0.17375424  0.00393137  0.11441982  1
  In  In55  1  0.16806659  0.00632122  0.64515563  1
  In  In56  1  0.17565836  0.32725878  0.11959537  1
  In  In57  1  0.15476843  0.33310797  0.62136814  1
  In  In58  1  0.16089242  0.67428372  0.12786276  1
  In  In59  1  0.18176076  0.66881901  0.62704513  1
  In  In60  1  0.51799806  -0.00528052  0.12691261  1
  In  In61  1  0.49407422  -0.00808393  0.61462230  1
  In  In62  1  0.49871646  0.34237097  0.12777075  1
  In  In63  1  0.51026034  0.34551482  0.61928351  1
  In  In64  1  0.50369614  0.66440424  0.13152710  1
  In  In65  1  0.49453343  0.66200724  0.61284320  1
  In  In66  1  0.81953145  0.00302653  0.12804393  1
  In  In67  1  0.83063729  0.00475298  0.61547900  1
  In  In68  1  0.82446701  0.32765568  0.12767593  1
  In  In69  1  0.83113226  0.32081287  0.61496538  1
  In  In70  1  0.83798265  0.65944051  0.14241440  1
  In  In71  1  0.81177647  0.65533269  0.59709271  1
  In  In72  1  0.34421158  0.33677033  0.25381365  1
  In  In73  1  0.49903623  0.16449475  -0.00340411  1
  In  In74  1  0.34058943  -0.00462542  0.26176150  1
  In  In75  1  0.16424983  0.49746608  -0.00128121  1
  In  In76  1  0.67029451  0.00150398  0.73808783  1
  In  In77  1  0.65919560  0.66622796  0.73724128  1
  In  In78  1  -0.00743879  0.34097960  0.26129427  1
  In  In79  1  0.00083401  0.67137488  0.74073089  1
  In  In80  1  -0.01181471  -0.01937050  0.24901726  1
  In  In81  1  -0.00115255  0.32511746  0.74295580  1
  In  In82  1  0.83356410  0.83362950  0.00170637  1
  In  In83  1  0.33302067  0.33327263  0.75096635  1
  In  In84  1  0.16558359  0.83428558  0.50296524  1
  In  In85  1  0.16489994  0.17156948  0.50625896  1
  Cu  Cu86  1  0.50447238  0.82965892  0.25509773  1
  Cu  Cu87  1  0.33878688  0.66459448  0.00298979  1
  Cu  Cu88  1  0.16810441  0.16783857  0.24619843  1
  Cu  Cu89  1  0.67101368  -0.00070309  0.00423352  1
  Cu  Cu90  1  0.33238442  0.67028879  0.49880694  1
  Cu  Cu91  1  0.82663221  0.49690441  0.75392742  1
  Cu  Cu92  1  0.83213174  0.83242651  0.73915363  1
  Cu  Cu93  1  0.82063371  0.16471080  0.25740554  1
  Cu  Cu94  1  0.17518747  0.82698571  0.24716302  1
  Cu  Cu95  1  0.16975234  0.50797514  0.25128685  1
  Cu  Cu96  1  0.66910667  0.33587115  0.49708981  1
  Cu  Cu97  1  0.17124618  0.50445969  0.74120393  1
  Cu  Cu98  1  0.83513769  0.16637130  0.74411613  1
  Cu  Cu99  1  0.50538001  0.17071396  0.74824622  1
  Cu  Cu100  1  0.33353520  -0.00696917  -0.00494402  1
  Cu  Cu101  1  0.33130138  0.32813932  -0.00385272  1
  Cu  Cu102  1  -0.00193701  0.66843201  0.00400991  1
  Cu  Cu103  1  0.00367800  0.66004551  0.49539611  1
  Cu  Cu104  1  0.82503530  0.83705485  0.25746726  1
  Cu  Cu105  1  -0.01292686  0.33149428  0.00179948  1
  Cu  Cu106  1  0.50543925  0.50181740  0.25489072  1
  Cu  Cu107  1  0.17116522  0.83604174  0.75686002  1
  Cu  Cu108  1  0.49356297  0.83583895  0.74946767  1
  Cu  Cu109  1  0.66564267  0.33339743  0.00355590  1
  Cu  Cu110  1  0.00281307  0.00549768  -0.00205867  1
  Cu  Cu111  1  0.33068711  0.00571180  0.50160591  1
  Cu  Cu112  1  0.50480061  0.50957237  0.74069202  1
  Cu  Cu113  1  0.66424547  0.65901782  0.00906495  1
  Cu  Cu114  1  -0.00625181  -0.00568420  0.49926770  1
  Se  Se115  1  0.08524745  0.08909099  0.05328570  1
  Se  Se116  1  0.08181568  0.06683732  0.56017434  1
  Se  Se117  1  0.07214649  0.41025488  0.06181543  1
  Se  Se118  1  0.09382171  0.41527065  0.54378968  1
  Se  Se119  1  0.08631936  0.75191635  0.05071313  1
  Se  Se120  1  0.07606913  0.74047793  0.56166457  1
  Se  Se121  1  0.41247788  0.07220775  0.05940240  1
  Se  Se122  1  0.41421964  0.08922079  0.55401874  1
  Se  Se123  1  0.41536552  0.40862949  0.05016381  1
  Se  Se124  1  0.42849399  0.42374374  0.54873297  1
  Se  Se125  1  0.42215102  0.74599484  0.05859260  1
  Se  Se126  1  0.41018624  0.75726320  0.55430270  1
  Se  Se127  1  0.75061200  0.08792777  0.05354506  1
  Se  Se128  1  0.74951763  0.08110822  0.54326131  1
  Se  Se129  1  0.74648792  0.41641067  0.05984198  1
  Se  Se130  1  0.75508150  0.41663701  0.55202676  1
  Se  Se131  1  0.74811514  0.74444734  0.06401916  1
  Se  Se132  1  0.76050330  0.76618154  0.53595558  1
  Se  Se133  1  0.24573892  0.24412190  0.04483853  1
  Se  Se134  1  0.26082628  0.25622054  0.56366539  1
  Se  Se135  1  0.25532081  0.58244343  0.06140437  1
  Se  Se136  1  0.25033116  0.58606869  0.55243129  1
  Se  Se137  1  0.25033117  0.91140113  0.05089520  1
  Se  Se138  1  0.24967684  0.92884431  0.56368217  1
  Se  Se139  1  0.58562298  0.24946966  0.06202963  1
  Se  Se140  1  0.58775103  0.25376291  0.55348779  1
  Se  Se141  1  0.57933497  0.57600906  0.06075349  1
  Se  Se142  1  0.60805397  0.60945988  0.55609203  1
  Se  Se143  1  0.58764397  0.91203651  0.05181867  1
  Se  Se144  1  0.58901354  0.93677409  0.54200098  1
  Se  Se145  1  0.90869573  0.24685919  0.05758362  1
  Se  Se146  1  0.94229849  0.26298570  0.55713903  1
  Se  Se147  1  0.91226852  0.59197606  0.05885070  1
  Se  Se148  1  0.91588134  0.57618539  0.54531455  1
  Se  Se149  1  0.92339537  0.92700866  0.06208851  1
  Se  Se150  1  0.91474066  0.91102442  0.55488268  1
  Se  Se151  1  0.08310843  0.24500414  0.43095028  1
  Se  Se152  1  0.07677046  0.25245483  0.95003082  1
  Se  Se153  1  0.09351136  0.58034263  0.44598676  1
  Se  Se154  1  0.07418454  0.58942192  0.93788159  1
  Se  Se155  1  0.07050626  0.91438265  0.43773255  1
  Se  Se156  1  0.08320355  0.91629937  0.94811727  1
  Se  Se157  1  0.40595872  0.27260523  0.45052244  1
  Se  Se158  1  0.41005589  0.25161832  0.93160432  1
  Se  Se159  1  0.41933548  0.58944553  0.44643444  1
  Se  Se160  1  0.41942411  0.57869405  0.94963102  1
  Se  Se161  1  0.41391351  0.92106581  0.45011458  1
  Se  Se162  1  0.42232123  0.90957900  0.94811299  1
  Se  Se163  1  0.74986911  0.25015706  0.44284649  1
  Se  Se164  1  0.74645809  0.24767471  0.94942892  1
  Se  Se165  1  0.75555896  0.57984082  0.44783214  1
  Se  Se166  1  0.75037656  0.57970671  0.95428853  1
  Se  Se167  1  0.76197450  0.89043218  0.45057040  1
  Se  Se168  1  0.74565920  0.92134222  0.93578390  1
  Se  Se169  1  0.25522741  0.08460951  0.43847107  1
  Se  Se170  1  0.25073590  0.08120022  0.94602965  1
  Se  Se171  1  0.25829845  0.41304227  0.45338313  1
  Se  Se172  1  0.25606394  0.41197208  0.93414032  1
  Se  Se173  1  0.24771750  0.74518869  0.43725798  1
  Se  Se174  1  0.25240250  0.74504840  0.94936927  1
  Se  Se175  1  0.57165210  0.10576098  0.44423536  1
  Se  Se176  1  0.59145854  0.07378773  0.93702015  1
  Se  Se177  1  0.58919684  0.42751764  0.44812567  1
  Se  Se178  1  0.57914010  0.41412178  0.95005422  1
  Se  Se179  1  0.56006276  0.77036500  0.44403131  1
  Se  Se180  1  0.58408760  0.74608750  0.95476965  1
  Se  Se181  1  0.91270413  0.08719229  0.45501647  1
  Se  Se182  1  0.91112188  0.08430505  0.94863682  1
  Se  Se183  1  0.93450412  0.39877517  0.44126091  1
  Se  Se184  1  0.90853006  0.42134756  0.95133147  1
  Se  Se185  1  0.91963421  0.74399826  0.44441847  1
  Se  Se186  1  0.92252163  0.74627343  0.93605285  1
  Se  Se187  1  0.24950704  0.24088697  0.30873561  1
  Se  Se188  1  0.23928646  0.24467647  0.80820446  1
  Se  Se189  1  0.25915957  0.58417238  0.30491023  1
  Se  Se190  1  0.25398474  0.58634615  0.79528972  1
  Se  Se191  1  0.24290619  0.90444859  0.31592530  1
  Se  Se192  1  0.25501818  0.91623373  0.81158595  1
  Se  Se193  1  0.57869613  0.26211946  0.30210583  1
  Se  Se194  1  0.59054098  0.25660315  0.79495734  1
  Se  Se195  1  0.58759236  0.58788076  0.30601271  1
  Se  Se196  1  0.58088852  0.58341642  0.81066957  1
  Se  Se197  1  0.58575413  0.91545434  0.30803074  1
  Se  Se198  1  0.58447596  0.91019813  0.80552834  1
  Se  Se199  1  0.90359599  0.24420086  0.31412096  1
  Se  Se200  1  0.90971037  0.24513040  0.81115879  1
  Se  Se201  1  0.92297184  0.58631936  0.30394508  1
  Se  Se202  1  0.91043188  0.58067307  0.80731310  1
  Se  Se203  1  0.89496396  0.92154608  0.32207485  1
  Se  Se204  1  0.91327323  0.91453539  0.79399497  1
  Se  Se205  1  0.08488535  0.08316896  0.29962820  1
  Se  Se206  1  0.07406114  0.07498668  0.80824340  1
  Se  Se207  1  0.09344159  0.42711127  0.31229592  1
  Se  Se208  1  0.08922233  0.42634854  0.80119305  1
  Se  Se209  1  0.08240207  0.74902962  0.29604726  1
  Se  Se210  1  0.08718687  0.75090224  0.81230889  1
  Se  Se211  1  0.43553805  0.08536957  0.31193912  1
  Se  Se212  1  0.42535776  0.08318179  0.79916539  1
  Se  Se213  1  0.42652667  0.42439194  0.31808616  1
  Se  Se214  1  0.42786574  0.42767764  0.80529059  1
  Se  Se215  1  0.41545711  0.74559923  0.30085781  1
  Se  Se216  1  0.41933606  0.74889596  0.80672448  1
  Se  Se217  1  0.74552046  0.07806096  0.31457171  1
  Se  Se218  1  0.75326043  0.08892090  0.80740168  1
  Se  Se219  1  0.75245778  0.42274026  0.30060646  1
  Se  Se220  1  0.74535945  0.41722828  0.81025839  1
  Se  Se221  1  0.74798422  0.74606174  0.30792768  1
  Se  Se222  1  0.75451040  0.75381811  0.80223156  1
  Se  Se223  1  0.25270332  0.08553031  0.19268987  1
  Se  Se224  1  0.25845022  0.08166563  0.70978961  1
  Se  Se225  1  0.24506291  0.42134158  0.19185232  1
  Se  Se226  1  0.25020317  0.42144875  0.68382632  1
  Se  Se227  1  0.25753248  0.74333815  0.19497640  1
  Se  Se228  1  0.25124381  0.75124615  0.70211111  1
  Se  Se229  1  0.58140269  0.07888060  0.20111483  1
  Se  Se230  1  0.57923886  0.09218870  0.68188634  1
  Se  Se231  1  0.58293659  0.41455347  0.19983343  1
  Se  Se232  1  0.58930115  0.42169310  0.69482543  1
  Se  Se233  1  0.58770088  0.74803987  0.19960445  1
  Se  Se234  1  0.57390342  0.76492399  0.68289112  1
  Se  Se235  1  0.90915817  0.09117304  0.19710287  1
  Se  Se236  1  0.91231805  0.07640877  0.69293462  1
  Se  Se237  1  0.90669357  0.42345677  0.19382288  1
  Se  Se238  1  0.90831528  0.42158718  0.69051580  1
  Se  Se239  1  0.91413385  0.76205629  0.20029934  1
  Se  Se240  1  0.90077256  0.74382874  0.67779920  1
  Se  Se241  1  0.08520706  0.25203346  0.19336407  1
  Se  Se242  1  0.09572739  0.23267862  0.69355272  1
  Se  Se243  1  0.08356842  0.58631674  0.19618618  1
  Se  Se244  1  0.08204846  0.57360853  0.68077320  1
  Se  Se245  1  0.09711550  0.91268992  0.18856951  1
  Se  Se246  1  0.08302257  0.91217103  0.70236510  1
  Se  Se247  1  0.42480026  0.23868918  0.19220422  1
  Se  Se248  1  0.42455296  0.25039344  0.68725071  1
  Se  Se249  1  0.41795602  0.58038563  0.19995496  1
  Se  Se250  1  0.41729327  0.59094580  0.69141633  1
  Se  Se251  1  0.42257400  0.90886559  0.19279779  1
  Se  Se252  1  0.41641425  0.92348017  0.69480085  1
  Se  Se253  1  0.74395884  0.24950257  0.20031883  1
  Se  Se254  1  0.75176461  0.25076448  0.69271031  1
  Se  Se255  1  0.73520480  0.59524971  0.20216818  1
  Se  Se256  1  0.75726210  0.57650233  0.68650484  1
  Se  Se257  1  0.74629884  0.92106184  0.20039060  1
  Se  Se258  1  0.74572149  0.90208564  0.67703504  1
