# generated using pymatgen
data_In86Cu29Se144
_symmetry_space_group_name_H-M   'P 1'
_cell_length_a   17.58245708
_cell_length_b   17.58489250
_cell_length_c   23.45572894
_cell_angle_alpha   90.01665645
_cell_angle_beta   89.95787924
_cell_angle_gamma   89.99596797
_symmetry_Int_Tables_number   1
_chemical_formula_structural   In86Cu29Se144
_chemical_formula_sum   'In86 Cu29 Se144'
_cell_volume   7252.17175305
_cell_formula_units_Z   1
loop_
 _symmetry_equiv_pos_site_id
 _symmetry_equiv_pos_as_xyz
  1  'x, y, z'
loop_
 _atom_site_type_symbol
 _atom_site_label
 _atom_site_symmetry_multiplicity
 _atom_site_fract_x
 _atom_site_fract_y
 _atom_site_fract_z
 _atom_site_occupancy
  In  In0  1  -0.00680084  0.17085410  0.13355889  1
  In  In1  1  -0.01131595  0.18058476  0.63547954  1
  In  In2  1  -0.00735617  0.50448175  0.13053557  1
  In  In3  1  -0.02422056  0.49577005  0.61931080  1
  In  In4  1  0.01258309  0.81928222  0.12645941  1
  In  In5  1  0.00860962  0.83863566  0.62706143  1
  In  In6  1  0.34142575  0.15759399  0.13096564  1
  In  In7  1  0.32692602  0.16636350  0.62793423  1
  In  In8  1  0.32372406  0.49749957  0.12934033  1
  In  In9  1  0.35327565  0.50833652  0.61611925  1
  In  In10  1  0.34001815  0.84145514  0.11711010  1
  In  In11  1  0.35520875  0.81767413  0.63791935  1
  In  In12  1  0.67049196  0.17974662  0.12461179  1
  In  In13  1  0.67707758  0.16014005  0.62320256  1
  In  In14  1  0.67209412  0.49513353  0.13031748  1
  In  In15  1  0.66883396  0.50116656  0.62969638  1
  In  In16  1  0.65381482  0.82814811  0.12269202  1
  In  In17  1  0.65197193  0.84557309  0.63011316  1
  In  In18  1  0.16994828  -0.00440222  0.36702562  1
  In  In19  1  0.15982091  -0.00654969  0.87163977  1
  In  In20  1  0.16312806  0.32879684  0.36624260  1
  In  In21  1  0.15539700  0.34507138  0.87572276  1
  In  In22  1  0.16847893  0.67675014  0.37067232  1
  In  In23  1  0.18158537  0.66607892  0.87237818  1
  In  In24  1  0.48880515  0.00464723  0.37662730  1
  In  In25  1  0.49752684  0.00038658  0.87079287  1
  In  In26  1  0.51040394  0.33554299  0.37258060  1
  In  In27  1  0.50073411  0.31853202  0.87559977  1
  In  In28  1  0.51031544  0.64617244  0.39000416  1
  In  In29  1  0.51276466  0.68259721  0.87075057  1
  In  In30  1  0.84434015  -0.00493251  0.37744155  1
  In  In31  1  0.83535670  0.00189966  0.86491151  1
  In  In32  1  0.83020570  0.33177241  0.38027883  1
  In  In33  1  0.83722670  0.34611822  0.87181740  1
  In  In34  1  0.81813272  0.65335806  0.36407717  1
  In  In35  1  0.81325618  0.66326157  0.88281608  1
  In  In36  1  -0.00530439  0.15857368  0.37045449  1
  In  In37  1  -0.00137393  0.17051376  0.87197958  1
  In  In38  1  -0.01500424  0.48611397  0.36509736  1
  In  In39  1  -0.00762214  0.48791949  0.87726979  1
  In  In40  1  0.00467853  0.83533168  0.36346811  1
  In  In41  1  -0.00482601  0.84449338  0.87774101  1
  In  In42  1  0.33445673  0.16115841  0.36700405  1
  In  In43  1  0.35162489  0.16950660  0.87430837  1
  In  In44  1  0.35442018  0.49031798  0.38286999  1
  In  In45  1  0.32075453  0.50542309  0.87073725  1
  In  In46  1  0.33423462  0.83746311  0.37647301  1
  In  In47  1  0.33587989  0.83798224  0.87384207  1
  In  In48  1  0.66694966  0.18231396  0.38165228  1
  In  In49  1  0.65960298  0.15834734  0.86567805  1
  In  In50  1  0.66478939  0.49375939  0.38045878  1
  In  In51  1  0.67752486  0.51185353  0.86694998  1
  In  In52  1  0.67105111  0.81757036  0.37598911  1
  In  In53  1  0.65518045  0.82492390  0.86915961  1
  In  In54  1  0.17516913  -0.00900001  0.12609816  1
  In  In55  1  0.17040431  0.00170287  0.63553573  1
  In  In56  1  0.16325967  0.33837629  0.13594672  1
  In  In57  1  0.16689893  0.32227934  0.62725995  1
  In  In58  1  0.14851724  0.67110452  0.11983695  1
  In  In59  1  0.16663140  0.67987422  0.62689335  1
  In  In60  1  0.49386507  -0.01044733  0.11863816  1
  In  In61  1  0.51294383  -0.01254759  0.62830551  1
  In  In62  1  0.51172567  0.32526802  0.13266000  1
  In  In63  1  0.50971750  0.35541428  0.61374788  1
  In  In64  1  0.49880546  0.67732433  0.12426262  1
  In  In65  1  0.50196073  0.67068362  0.62607717  1
  In  In66  1  0.83567307  0.01235352  0.12835584  1
  In  In67  1  0.81586524  0.01805608  0.63618398  1
  In  In68  1  0.82876363  0.33910343  0.13147131  1
  In  In69  1  0.82798859  0.33399936  0.62455800  1
  In  In70  1  0.84317696  0.65646171  0.12939129  1
  In  In71  1  0.82538036  0.64857447  0.62185009  1
  In  In72  1  0.50216614  0.50208683  -0.00098833  1
  In  In73  1  0.17044147  0.83579911  0.49641324  1
  In  In74  1  0.83323678  0.82901717  -0.00024085  1
  In  In75  1  0.16030606  0.50655843  0.00503698  1
  In  In76  1  0.16674321  0.50207857  0.49586431  1
  In  In77  1  0.82886130  0.17156683  0.00316106  1
  In  In78  1  0.33566902  0.66344732  0.25173271  1
  In  In79  1  0.16519767  0.16775383  -0.00421441  1
  In  In80  1  -0.00306889  0.66643684  0.74684651  1
  In  In81  1  0.33504078  0.33455250  0.74654690  1
  In  In82  1  0.66613644  -0.00015129  0.25055352  1
  In  In83  1  0.16753057  0.16634433  0.50633314  1
  In  In84  1  0.83032027  0.83392761  0.49940916  1
  In  In85  1  0.50619917  0.16977717  0.50006587  1
  Cu  Cu86  1  0.83205255  0.17039593  0.74984977  1
  Cu  Cu87  1  0.83550689  0.17157130  0.25395402  1
  Cu  Cu88  1  0.49797822  0.83644927  0.75128757  1
  Cu  Cu89  1  0.50851203  0.49554243  0.25686989  1
  Cu  Cu90  1  0.83196308  0.83191505  0.75362792  1
  Cu  Cu91  1  0.65580979  -0.00368955  -0.00938245  1
  Cu  Cu92  1  -0.00921809  0.66373824  0.48924270  1
  Cu  Cu93  1  0.33879950  -0.00643156  0.50280944  1
  Cu  Cu94  1  -0.00742824  0.33177903  0.50102994  1
  Cu  Cu95  1  0.33543092  0.32781271  0.00542352  1
  Cu  Cu96  1  0.16515065  0.16140740  0.24689461  1
  Cu  Cu97  1  0.66534879  0.33301304  0.00234530  1
  Cu  Cu98  1  0.16837593  0.83318472  0.24506515  1
  Cu  Cu99  1  0.16273181  0.49946174  0.74857928  1
  Cu  Cu100  1  -0.00792240  0.00858942  0.50195427  1
  Cu  Cu101  1  0.33892126  0.67788929  -0.00451471  1
  Cu  Cu102  1  0.83717205  0.83204562  0.25040893  1
  Cu  Cu103  1  0.83343666  0.49893595  0.25246429  1
  Cu  Cu104  1  0.17060424  0.83892296  0.75220327  1
  Cu  Cu105  1  0.00317333  -0.00250294  0.00168500  1
  Cu  Cu106  1  0.50084014  0.50433785  0.74649599  1
  Cu  Cu107  1  0.33801813  -0.00119887  -0.00102731  1
  Cu  Cu108  1  0.16485936  0.16660076  0.75430124  1
  Cu  Cu109  1  0.50461349  0.16727514  0.74570311  1
  Cu  Cu110  1  0.82915964  0.49461386  0.74755096  1
  Cu  Cu111  1  0.49792615  0.82983711  0.24812380  1
  Cu  Cu112  1  0.16714283  0.49914860  0.25059787  1
  Cu  Cu113  1  0.49827170  0.16593549  0.25196729  1
  Cu  Cu114  1  0.66207141  0.66161616  0.50154275  1
  Se  Se115  1  0.07744387  0.08238204  0.06189706  1
  Se  Se116  1  0.07517380  0.07954769  0.56597466  1
  Se  Se117  1  0.07678017  0.40955389  0.06122807  1
  Se  Se118  1  0.07820876  0.40964922  0.55912456  1
  Se  Se119  1  0.08566651  0.75536662  0.04418333  1
  Se  Se120  1  0.07056325  0.74277114  0.55020522  1
  Se  Se121  1  0.41790634  0.08380147  0.05365481  1
  Se  Se122  1  0.41347744  0.08044030  0.56114179  1
  Se  Se123  1  0.41323401  0.41301999  0.06281119  1
  Se  Se124  1  0.41145260  0.41338347  0.54592374  1
  Se  Se125  1  0.42385883  0.75647824  0.05023158  1
  Se  Se126  1  0.42143426  0.75318723  0.55522988  1
  Se  Se127  1  0.73569417  0.07272828  0.05530239  1
  Se  Se128  1  0.75129805  0.07768388  0.54994996  1
  Se  Se129  1  0.74865213  0.41383830  0.05642742  1
  Se  Se130  1  0.76931402  0.44054889  0.56213644  1
  Se  Se131  1  0.74724529  0.74132413  0.06245974  1
  Se  Se132  1  0.74113777  0.74542217  0.56133636  1
  Se  Se133  1  0.25040357  0.25263875  0.06382402  1
  Se  Se134  1  0.26439383  0.26226894  0.55358312  1
  Se  Se135  1  0.26102645  0.59702100  0.05799615  1
  Se  Se136  1  0.25003299  0.59367175  0.55909859  1
  Se  Se137  1  0.24970291  0.91653112  0.04852595  1
  Se  Se138  1  0.25504470  0.91954921  0.56404951  1
  Se  Se139  1  0.58114763  0.24808997  0.05269490  1
  Se  Se140  1  0.59792979  0.25921924  0.55721047  1
  Se  Se141  1  0.58896445  0.58749570  0.06240822  1
  Se  Se142  1  0.58228442  0.58069455  0.55997066  1
  Se  Se143  1  0.58127404  0.91205073  0.04993798  1
  Se  Se144  1  0.58158356  0.91413593  0.54910151  1
  Se  Se145  1  0.92157930  0.25910587  0.05997899  1
  Se  Se146  1  0.91261990  0.24765180  0.55628316  1
  Se  Se147  1  0.93065630  0.59165890  0.05519446  1
  Se  Se148  1  0.91001404  0.58284815  0.54496235  1
  Se  Se149  1  0.91895624  0.92256383  0.06231011  1
  Se  Se150  1  0.91893678  0.92223247  0.56215748  1
  Se  Se151  1  0.07693089  0.25250315  0.44350329  1
  Se  Se152  1  0.07016297  0.26266945  0.94609244  1
  Se  Se153  1  0.07604050  0.58696372  0.43198122  1
  Se  Se154  1  0.07986939  0.58892531  0.93388224  1
  Se  Se155  1  0.07321206  0.92743883  0.44238599  1
  Se  Se156  1  0.08546672  0.91554358  0.94807051  1
  Se  Se157  1  0.41184245  0.24972801  0.43680590  1
  Se  Se158  1  0.42055410  0.24768440  0.95244490  1
  Se  Se159  1  0.40878165  0.58502042  0.45438872  1
  Se  Se160  1  0.41058064  0.58896124  0.93652112  1
  Se  Se161  1  0.42015414  0.91287399  0.44729554  1
  Se  Se162  1  0.42148498  0.91658412  0.94373781  1
  Se  Se163  1  0.75235927  0.25110829  0.45282483  1
  Se  Se164  1  0.74109766  0.25317567  0.93664729  1
  Se  Se165  1  0.74902104  0.58383987  0.44588880  1
  Se  Se166  1  0.74681316  0.57214814  0.95194580  1
  Se  Se167  1  0.74046646  0.92300409  0.43935860  1
  Se  Se168  1  0.74801509  0.92222463  0.93682052  1
  Se  Se169  1  0.25508924  0.07317866  0.44374533  1
  Se  Se170  1  0.25902662  0.07985971  0.93774871  1
  Se  Se171  1  0.25083518  0.40494913  0.43903029  1
  Se  Se172  1  0.25627725  0.41089521  0.94691173  1
  Se  Se173  1  0.26168742  0.73874255  0.44535576  1
  Se  Se174  1  0.25017650  0.75539182  0.94304725  1
  Se  Se175  1  0.59081866  0.07538158  0.43980694  1
  Se  Se176  1  0.57784166  0.08707018  0.94095380  1
  Se  Se177  1  0.57122068  0.42279843  0.44801365  1
  Se  Se178  1  0.58796844  0.41073258  0.93765441  1
  Se  Se179  1  0.58358851  0.74945241  0.44851797  1
  Se  Se180  1  0.59334328  0.74535150  0.94895911  1
  Se  Se181  1  0.91132222  0.08959913  0.44692366  1
  Se  Se182  1  0.92002398  0.07735857  0.94410425  1
  Se  Se183  1  0.91471998  0.41949946  0.44763062  1
  Se  Se184  1  0.90911736  0.41850211  0.95029964  1
  Se  Se185  1  0.91587063  0.74921107  0.43075503  1
  Se  Se186  1  0.92250982  0.74023194  0.93811731  1
  Se  Se187  1  0.24828413  0.24388359  0.30168478  1
  Se  Se188  1  0.24490282  0.25039688  0.81422342  1
  Se  Se189  1  0.24947780  0.57201779  0.31415301  1
  Se  Se190  1  0.24977043  0.58503574  0.79463321  1
  Se  Se191  1  0.25409854  0.91100257  0.30138254  1
  Se  Se192  1  0.25419953  0.92296302  0.80442801  1
  Se  Se193  1  0.58603498  0.24639102  0.30283290  1
  Se  Se194  1  0.58453254  0.25284673  0.79942265  1
  Se  Se195  1  0.58781429  0.58280059  0.30895013  1
  Se  Se196  1  0.58209738  0.58637780  0.80359436  1
  Se  Se197  1  0.57744596  0.90931769  0.31113932  1
  Se  Se198  1  0.58471919  0.91981429  0.80282242  1
  Se  Se199  1  0.91768484  0.25448838  0.30886396  1
  Se  Se200  1  0.91353706  0.25259171  0.80613306  1
  Se  Se201  1  0.92018217  0.58752109  0.30034040  1
  Se  Se202  1  0.90779036  0.57927156  0.80868751  1
  Se  Se203  1  0.91850325  0.92045257  0.29954412  1
  Se  Se204  1  0.92005702  0.91638934  0.79963780  1
  Se  Se205  1  0.08336944  0.07924173  0.30379489  1
  Se  Se206  1  0.07999395  0.08363940  0.80662078  1
  Se  Se207  1  0.08117362  0.41397850  0.30025913  1
  Se  Se208  1  0.07738394  0.41910701  0.80077465  1
  Se  Se209  1  0.08569696  0.74795511  0.29710545  1
  Se  Se210  1  0.08631909  0.75566620  0.80876615  1
  Se  Se211  1  0.41459472  0.07634190  0.29795092  1
  Se  Se212  1  0.41879359  0.08656925  0.79896874  1
  Se  Se213  1  0.41957689  0.41175287  0.30321820  1
  Se  Se214  1  0.42305273  0.42375884  0.81085175  1
  Se  Se215  1  0.42621018  0.74785656  0.31382163  1
  Se  Se216  1  0.41566315  0.75113627  0.80472720  1
  Se  Se217  1  0.75507704  0.08785430  0.31240387  1
  Se  Se218  1  0.74887059  0.08136565  0.79853524  1
  Se  Se219  1  0.75166199  0.41716649  0.30944657  1
  Se  Se220  1  0.74389287  0.41241473  0.80102317  1
  Se  Se221  1  0.74755343  0.74922037  0.29715521  1
  Se  Se222  1  0.74978845  0.74709745  0.80510187  1
  Se  Se223  1  0.25102855  0.07811337  0.19558806  1
  Se  Se224  1  0.25276544  0.08720232  0.70243993  1
  Se  Se225  1  0.25457318  0.41380818  0.20327400  1
  Se  Se226  1  0.24755372  0.42634004  0.68504770  1
  Se  Se227  1  0.24988136  0.75119821  0.18566695  1
  Se  Se228  1  0.25010278  0.75149366  0.69950211  1
  Se  Se229  1  0.57829234  0.08774020  0.18745760  1
  Se  Se230  1  0.58764150  0.08313228  0.69206156  1
  Se  Se231  1  0.58991162  0.41276848  0.19972385  1
  Se  Se232  1  0.58294258  0.41702544  0.69756877  1
  Se  Se233  1  0.58402991  0.74605699  0.19922832  1
  Se  Se234  1  0.58273742  0.75175866  0.69867833  1
  Se  Se235  1  0.91674478  0.08340804  0.20303780  1
  Se  Se236  1  0.91818175  0.08316320  0.70021654  1
  Se  Se237  1  0.91793218  0.41538290  0.19959057  1
  Se  Se238  1  0.91595936  0.41190637  0.69729609  1
  Se  Se239  1  0.92022396  0.74936202  0.19553213  1
  Se  Se240  1  0.90620684  0.75463498  0.68510094  1
  Se  Se241  1  0.08097635  0.24986818  0.20006998  1
  Se  Se242  1  0.08409708  0.25334385  0.70198678  1
  Se  Se243  1  0.08728683  0.58285553  0.19522375  1
  Se  Se244  1  0.08273517  0.57501544  0.68283343  1
  Se  Se245  1  0.08270848  0.91615606  0.19289876  1
  Se  Se246  1  0.08269891  0.91909249  0.70055258  1
  Se  Se247  1  0.41637066  0.25060214  0.19717111  1
  Se  Se248  1  0.42828062  0.25094709  0.68436050  1
  Se  Se249  1  0.42836571  0.57232609  0.19197372  1
  Se  Se250  1  0.41595720  0.58748220  0.69620342  1
  Se  Se251  1  0.41630647  0.91461475  0.19531823  1
  Se  Se252  1  0.41619919  0.92443696  0.69896154  1
  Se  Se253  1  0.74935151  0.25124299  0.20007636  1
  Se  Se254  1  0.74766165  0.25019805  0.69461796  1
  Se  Se255  1  0.75187121  0.58269241  0.19769453  1
  Se  Se256  1  0.74686121  0.58679196  0.70256363  1
  Se  Se257  1  0.75523656  0.90937503  0.18803008  1
  Se  Se258  1  0.74950379  0.91387491  0.69719080  1
