# generated using pymatgen
data_In86Cu29Se144
_symmetry_space_group_name_H-M   'P 1'
_cell_length_a   17.58422486
_cell_length_b   17.58208599
_cell_length_c   23.44634005
_cell_angle_alpha   90.00157718
_cell_angle_beta   89.96720529
_cell_angle_gamma   89.99216559
_symmetry_Int_Tables_number   1
_chemical_formula_structural   In86Cu29Se144
_chemical_formula_sum   'In86 Cu29 Se144'
_cell_volume   7248.84164514
_cell_formula_units_Z   1
loop_
 _symmetry_equiv_pos_site_id
 _symmetry_equiv_pos_as_xyz
  1  'x, y, z'
loop_
 _atom_site_type_symbol
 _atom_site_label
 _atom_site_symmetry_multiplicity
 _atom_site_fract_x
 _atom_site_fract_y
 _atom_site_fract_z
 _atom_site_occupancy
  In  In0  1  0.01152974  0.17563760  0.12855451  1
  In  In1  1  0.00217406  0.16089397  0.62954295  1
  In  In2  1  0.00713144  0.50264403  0.12582523  1
  In  In3  1  -0.00842669  0.49066540  0.62072991  1
  In  In4  1  -0.01762468  0.81474254  0.11240251  1
  In  In5  1  0.00059541  0.84728214  0.63072602  1
  In  In6  1  0.31841850  0.16530925  0.12979273  1
  In  In7  1  0.34015868  0.17091990  0.61433971  1
  In  In8  1  0.33166571  0.51595002  0.12871508  1
  In  In9  1  0.33711607  0.50400706  0.61308050  1
  In  In10  1  0.33520918  0.83053599  0.12478386  1
  In  In11  1  0.33861391  0.81905181  0.63413209  1
  In  In12  1  0.67591400  0.17213872  0.12850574  1
  In  In13  1  0.65905363  0.16805207  0.62252130  1
  In  In14  1  0.66989560  0.50108053  0.13284321  1
  In  In15  1  0.66792105  0.49977452  0.62042267  1
  In  In16  1  0.65832390  0.81831985  0.10964294  1
  In  In17  1  0.66790919  0.81555065  0.63411788  1
  In  In18  1  0.18125870  -0.00566137  0.37721843  1
  In  In19  1  0.15445508  0.00091961  0.87217964  1
  In  In20  1  0.15125145  0.34739344  0.38159694  1
  In  In21  1  0.15075026  0.35230482  0.88281909  1
  In  In22  1  0.14687518  0.64174631  0.34924907  1
  In  In23  1  0.17403168  0.65981873  0.88364651  1
  In  In24  1  0.49881474  0.00990427  0.38117287  1
  In  In25  1  0.50221216  -0.03030906  0.86557758  1
  In  In26  1  0.51013487  0.32719158  0.37976279  1
  In  In27  1  0.49579076  0.34592576  0.87455518  1
  In  In28  1  0.48944079  0.65765075  0.36824017  1
  In  In29  1  0.52810988  0.70339390  0.83336771  1
  In  In30  1  0.81900601  -0.00942833  0.38451216  1
  In  In31  1  0.82235213  -0.00919648  0.85642192  1
  In  In32  1  0.84923243  0.35005935  0.36760130  1
  In  In33  1  0.84464567  0.34398265  0.87544367  1
  In  In34  1  0.83106591  0.66796090  0.37621275  1
  In  In35  1  0.81844823  0.67566854  0.89424739  1
  In  In36  1  -0.00333897  0.18574215  0.37629558  1
  In  In37  1  -0.01126145  0.16663766  0.86028133  1
  In  In38  1  -0.00131663  0.50206160  0.37533417  1
  In  In39  1  -0.00463500  0.49654257  0.88338115  1
  In  In40  1  -0.00204827  0.82110623  0.37413172  1
  In  In41  1  -0.00884274  0.84017373  0.88387375  1
  In  In42  1  0.33796630  0.16055709  0.38150158  1
  In  In43  1  0.33295599  0.16843639  0.87212507  1
  In  In44  1  0.32357813  0.50781806  0.37890979  1
  In  In45  1  0.32931962  0.50760329  0.87614096  1
  In  In46  1  0.32634445  0.82499907  0.36478827  1
  In  In47  1  0.35053852  0.81152513  0.88881082  1
  In  In48  1  0.65466780  0.16423558  0.37950997  1
  In  In49  1  0.68728420  0.16231354  0.86516515  1
  In  In50  1  0.67032094  0.50364320  0.37538414  1
  In  In51  1  0.66333247  0.54415645  0.87436010  1
  In  In52  1  0.68116992  0.83324906  0.37964745  1
  In  In53  1  0.67199559  0.83000147  0.87013651  1
  In  In54  1  0.17970543  0.00087585  0.12879974  1
  In  In55  1  0.15723818  0.00245335  0.62481755  1
  In  In56  1  0.14744146  0.35275520  0.13570047  1
  In  In57  1  0.16258263  0.32741738  0.61743313  1
  In  In58  1  0.16381431  0.66384735  0.12419933  1
  In  In59  1  0.17667422  0.66054434  0.62325563  1
  In  In60  1  0.50755607  -0.02092835  0.12327098  1
  In  In61  1  0.49902170  0.00450709  0.62733642  1
  In  In62  1  0.50590342  0.34970004  0.12935331  1
  In  In63  1  0.50323878  0.33152920  0.61288098  1
  In  In64  1  0.50166045  0.67123231  0.12961595  1
  In  In65  1  0.51275000  0.64822663  0.64231128  1
  In  In66  1  0.83585843  -0.00653921  0.12267796  1
  In  In67  1  0.83892455  -0.00693813  0.63037639  1
  In  In68  1  0.83366526  0.34110196  0.13139295  1
  In  In69  1  0.83155459  0.35044759  0.62499040  1
  In  In70  1  0.83369863  0.66632888  0.12808009  1
  In  In71  1  0.82562845  0.65247517  0.61865200  1
  In  In72  1  0.16878252  0.83073765  0.50334396  1
  In  In73  1  0.50246047  0.15557286  -0.00502356  1
  In  In74  1  0.00440015  -0.00054952  0.24642170  1
  In  In75  1  0.83455796  0.16409736  0.00103655  1
  In  In76  1  0.32630790  0.33851948  0.75546901  1
  In  In77  1  0.33361558  0.33603059  0.25072944  1
  In  In78  1  0.50075081  0.51233867  0.00115640  1
  In  In79  1  0.67244618  0.33362108  0.74670817  1
  In  In80  1  0.50273081  0.82975355  0.50599385  1
  In  In81  1  0.33059274  -0.00441267  0.74564221  1
  In  In82  1  0.83341527  0.16795039  0.49978728  1
  In  In83  1  0.66319837  -0.00005920  0.25650457  1
  In  In84  1  0.00098786  0.66588706  0.75899861  1
  In  In85  1  0.16226444  0.16643202  -0.00632584  1
  Cu  Cu86  1  0.00387399  0.65850446  0.00365907  1
  Cu  Cu87  1  0.00449461  0.33877158  0.49812952  1
  Cu  Cu88  1  0.00073662  0.00224849  0.50704301  1
  Cu  Cu89  1  0.16960410  0.16824732  0.25595800  1
  Cu  Cu90  1  0.33583134  0.33238832  0.49307058  1
  Cu  Cu91  1  0.50325887  0.16812979  0.74671530  1
  Cu  Cu92  1  0.83116023  0.82958598  0.24835007  1
  Cu  Cu93  1  0.82800349  0.50504320  0.75023433  1
  Cu  Cu94  1  0.50888417  0.49992144  0.25432028  1
  Cu  Cu95  1  0.17054429  0.83505526  0.75363746  1
  Cu  Cu96  1  0.15689836  0.17417216  0.74476510  1
  Cu  Cu97  1  0.16012049  0.49635687  0.75465616  1
  Cu  Cu98  1  0.83680537  0.50557411  0.25067427  1
  Cu  Cu99  1  0.33408843  0.66841381  0.00415490  1
  Cu  Cu100  1  0.33744185  -0.00024680  0.50221638  1
  Cu  Cu101  1  0.49581608  0.16387316  0.25710784  1
  Cu  Cu102  1  0.66615580  0.34049894  0.00467185  1
  Cu  Cu103  1  0.32774470  0.66186181  0.49307170  1
  Cu  Cu104  1  -0.00196037  0.66717024  0.49465889  1
  Cu  Cu105  1  0.16717841  0.82855827  0.24256569  1
  Cu  Cu106  1  -0.00320567  -0.00376774  -0.00394681  1
  Cu  Cu107  1  0.49791471  0.83160723  0.24696386  1
  Cu  Cu108  1  0.83381356  0.17839750  0.25199817  1
  Cu  Cu109  1  0.66786126  -0.01158839  -0.01233418  1
  Cu  Cu110  1  0.67179885  0.33833170  0.49644664  1
  Cu  Cu111  1  0.33731649  -0.01000570  0.00371241  1
  Cu  Cu112  1  0.32218618  0.33576879  0.00227428  1
  Cu  Cu113  1  0.83767942  0.82436402  0.75370867  1
  Cu  Cu114  1  0.66396858  0.66210619  0.50174253  1
  Se  Se115  1  0.07617557  0.07434777  0.05856556  1
  Se  Se116  1  0.08568680  0.08899969  0.55332529  1
  Se  Se117  1  0.08039645  0.41497758  0.05245450  1
  Se  Se118  1  0.08700933  0.42210904  0.55271463  1
  Se  Se119  1  0.08682664  0.74903212  0.05186231  1
  Se  Se120  1  0.07401805  0.74324718  0.56276747  1
  Se  Se121  1  0.40986476  0.07848832  0.06307580  1
  Se  Se122  1  0.42461554  0.08308033  0.55163386  1
  Se  Se123  1  0.40825950  0.41453736  0.05889025  1
  Se  Se124  1  0.41811551  0.41532390  0.54819403  1
  Se  Se125  1  0.42139382  0.74938808  0.05645574  1
  Se  Se126  1  0.40853868  0.73573225  0.55718028  1
  Se  Se127  1  0.73570618  0.07101715  0.05511152  1
  Se  Se128  1  0.74913730  0.07728681  0.56080090  1
  Se  Se129  1  0.74867621  0.41851190  0.06102941  1
  Se  Se130  1  0.75344130  0.42278162  0.54928766  1
  Se  Se131  1  0.77193597  0.76290917  0.05669146  1
  Se  Se132  1  0.74648994  0.74567353  0.55541081  1
  Se  Se133  1  0.24298931  0.25748155  0.06199102  1
  Se  Se134  1  0.25256324  0.25094070  0.54959288  1
  Se  Se135  1  0.24924823  0.58242652  0.05282107  1
  Se  Se136  1  0.24291365  0.57865314  0.54619816  1
  Se  Se137  1  0.24851105  0.91387056  0.05647338  1
  Se  Se138  1  0.26154354  0.91914841  0.56565392  1
  Se  Se139  1  0.58474176  0.25446532  0.05793487  1
  Se  Se140  1  0.58940713  0.24993442  0.54653936  1
  Se  Se141  1  0.59652746  0.59439440  0.06054292  1
  Se  Se142  1  0.57762591  0.58257995  0.55602322  1
  Se  Se143  1  0.58168892  0.91074665  0.04355885  1
  Se  Se144  1  0.59153210  0.91665378  0.56622373  1
  Se  Se145  1  0.92229181  0.25478338  0.06050807  1
  Se  Se146  1  0.92187651  0.25967688  0.55958390  1
  Se  Se147  1  0.91692993  0.58218253  0.05926761  1
  Se  Se148  1  0.91905090  0.58154798  0.55135793  1
  Se  Se149  1  0.91139962  0.91535652  0.04929828  1
  Se  Se150  1  0.91793340  0.91468307  0.55464906  1
  Se  Se151  1  0.08597601  0.24842067  0.45006658  1
  Se  Se152  1  0.06503680  0.25090614  0.93864074  1
  Se  Se153  1  0.08550687  0.58826307  0.44141248  1
  Se  Se154  1  0.08578331  0.57729084  0.94769429  1
  Se  Se155  1  0.07695275  0.92079411  0.44206438  1
  Se  Se156  1  0.08809193  0.91643487  0.94764434  1
  Se  Se157  1  0.42260887  0.24580751  0.44620826  1
  Se  Se158  1  0.40834294  0.25931913  0.94534071  1
  Se  Se159  1  0.41913893  0.57963207  0.44606707  1
  Se  Se160  1  0.41574223  0.59862238  0.93759508  1
  Se  Se161  1  0.40712646  0.91201250  0.44079808  1
  Se  Se162  1  0.42404056  0.91269164  0.94878393  1
  Se  Se163  1  0.75195928  0.25933878  0.43419781  1
  Se  Se164  1  0.74203299  0.25649061  0.94333211  1
  Se  Se165  1  0.75206381  0.58370232  0.44738541  1
  Se  Se166  1  0.75931619  0.56664840  0.95360179  1
  Se  Se167  1  0.74669920  0.91161138  0.45766568  1
  Se  Se168  1  0.76001902  0.91266264  0.93789618  1
  Se  Se169  1  0.25011626  0.08054696  0.45042607  1
  Se  Se170  1  0.26178072  0.07328137  0.94186362  1
  Se  Se171  1  0.24838324  0.41780593  0.44645349  1
  Se  Se172  1  0.24893938  0.42242066  0.94536954  1
  Se  Se173  1  0.24421343  0.74059613  0.43515580  1
  Se  Se174  1  0.24630368  0.75178400  0.95269827  1
  Se  Se175  1  0.59559927  0.06944292  0.44942187  1
  Se  Se176  1  0.59242275  0.07486880  0.92896721  1
  Se  Se177  1  0.58538646  0.42077984  0.44461417  1
  Se  Se178  1  0.59064798  0.41915459  0.94084817  1
  Se  Se179  1  0.58530126  0.74126467  0.43909173  1
  Se  Se180  1  0.58492529  0.74003784  0.93015387  1
  Se  Se181  1  0.92478653  0.07683327  0.43843224  1
  Se  Se182  1  0.91670544  0.07453990  0.93528866  1
  Se  Se183  1  0.91730130  0.42212186  0.44888940  1
  Se  Se184  1  0.91236945  0.41756972  0.95404052  1
  Se  Se185  1  0.91242900  0.75338496  0.44756882  1
  Se  Se186  1  0.92250745  0.74615331  0.95167478  1
  Se  Se187  1  0.24775782  0.24989556  0.31641039  1
  Se  Se188  1  0.23214239  0.24791417  0.81337320  1
  Se  Se189  1  0.26835890  0.59458095  0.30064368  1
  Se  Se190  1  0.24361173  0.58224734  0.80435263  1
  Se  Se191  1  0.24586573  0.91381872  0.29856459  1
  Se  Se192  1  0.25173298  0.91145666  0.81661120  1
  Se  Se193  1  0.58462991  0.24646025  0.30377193  1
  Se  Se194  1  0.57678337  0.24804955  0.81160608  1
  Se  Se195  1  0.58971473  0.58828382  0.30505950  1
  Se  Se196  1  0.57075762  0.57173370  0.79435382  1
  Se  Se197  1  0.57360273  0.90707355  0.31455515  1
  Se  Se198  1  0.60422741  0.92216094  0.79815201  1
  Se  Se199  1  0.92439425  0.25960997  0.29857720  1
  Se  Se200  1  0.89576813  0.24776082  0.80231895  1
  Se  Se201  1  0.91710615  0.58866731  0.30733789  1
  Se  Se202  1  0.90462504  0.58200185  0.81590146  1
  Se  Se203  1  0.90778528  0.91583710  0.30802869  1
  Se  Se204  1  0.92420216  0.91089416  0.80078406  1
  Se  Se205  1  0.08707102  0.08695625  0.31445665  1
  Se  Se206  1  0.08235856  0.08456603  0.79951627  1
  Se  Se207  1  0.08038183  0.42052117  0.30480186  1
  Se  Se208  1  0.07061057  0.41808406  0.80494908  1
  Se  Se209  1  0.07865598  0.75360600  0.29766966  1
  Se  Se210  1  0.09118933  0.75796462  0.81674639  1
  Se  Se211  1  0.41337563  0.07866966  0.30658754  1
  Se  Se212  1  0.42411806  0.08666396  0.80769336  1
  Se  Se213  1  0.42476374  0.42073899  0.31332077  1
  Se  Se214  1  0.42328588  0.43299068  0.80255239  1
  Se  Se215  1  0.41482053  0.74634282  0.29882817  1
  Se  Se216  1  0.39847853  0.75008471  0.79701423  1
  Se  Se217  1  0.76011037  0.09200952  0.31124574  1
  Se  Se218  1  0.75705609  0.08660835  0.78903085  1
  Se  Se219  1  0.75207840  0.42126859  0.30389620  1
  Se  Se220  1  0.74631901  0.42865764  0.81388265  1
  Se  Se221  1  0.74773634  0.74944888  0.30424527  1
  Se  Se222  1  0.75635155  0.73846954  0.80565567  1
  Se  Se223  1  0.25121015  0.08171085  0.20511441  1
  Se  Se224  1  0.24691589  0.09762570  0.68950715  1
  Se  Se225  1  0.24434093  0.43222564  0.19833672  1
  Se  Se226  1  0.24104357  0.42262325  0.68891704  1
  Se  Se227  1  0.25280443  0.74545008  0.19182280  1
  Se  Se228  1  0.24348126  0.74626520  0.69858141  1
  Se  Se229  1  0.57553920  0.08816799  0.18979364  1
  Se  Se230  1  0.58541560  0.08409122  0.69572293  1
  Se  Se231  1  0.59135705  0.41371932  0.20357867  1
  Se  Se232  1  0.57507787  0.41685245  0.68875576  1
  Se  Se233  1  0.58929439  0.75513186  0.19523480  1
  Se  Se234  1  0.57799475  0.74793497  0.70630736  1
  Se  Se235  1  0.90810920  0.09350791  0.19045937  1
  Se  Se236  1  0.92704593  0.07244643  0.69537486  1
  Se  Se237  1  0.92043095  0.42180535  0.19700709  1
  Se  Se238  1  0.91411358  0.42139244  0.70034757  1
  Se  Se239  1  0.91953028  0.74863968  0.19854364  1
  Se  Se240  1  0.91494469  0.74650631  0.68876703  1
  Se  Se241  1  0.08655001  0.25210414  0.20374817  1
  Se  Se242  1  0.07686216  0.25982968  0.69255458  1
  Se  Se243  1  0.08090857  0.58961456  0.19687512  1
  Se  Se244  1  0.08369336  0.57777687  0.69137383  1
  Se  Se245  1  0.08313870  0.90666134  0.18201308  1
  Se  Se246  1  0.08923957  0.91968337  0.70104018  1
  Se  Se247  1  0.42458828  0.24432070  0.18905000  1
  Se  Se248  1  0.42004518  0.25048239  0.69223486  1
  Se  Se249  1  0.42677077  0.58035735  0.19745768  1
  Se  Se250  1  0.39366581  0.59195561  0.68978241  1
  Se  Se251  1  0.41570830  0.91768697  0.19532624  1
  Se  Se252  1  0.43017416  0.90482235  0.69653371  1
  Se  Se253  1  0.74700350  0.25756343  0.19918931  1
  Se  Se254  1  0.76018577  0.24404111  0.68566228  1
  Se  Se255  1  0.75002915  0.58803951  0.19994498  1
  Se  Se256  1  0.74326102  0.58291928  0.69472685  1
  Se  Se257  1  0.74922473  0.91240988  0.19166490  1
  Se  Se258  1  0.75592722  0.90434990  0.69503713  1
