# generated using pymatgen
data_In86Cu29Se144
_symmetry_space_group_name_H-M   'P 1'
_cell_length_a   17.58109338
_cell_length_b   17.58217337
_cell_length_c   23.44539012
_cell_angle_alpha   90.00197065
_cell_angle_beta   90.00639324
_cell_angle_gamma   90.01681387
_symmetry_Int_Tables_number   1
_chemical_formula_structural   In86Cu29Se144
_chemical_formula_sum   'In86 Cu29 Se144'
_cell_volume   7247.29402016
_cell_formula_units_Z   1
loop_
 _symmetry_equiv_pos_site_id
 _symmetry_equiv_pos_as_xyz
  1  'x, y, z'
loop_
 _atom_site_type_symbol
 _atom_site_label
 _atom_site_symmetry_multiplicity
 _atom_site_fract_x
 _atom_site_fract_y
 _atom_site_fract_z
 _atom_site_occupancy
  In  In0  1  -0.00639042  0.17452802  0.12981195  1
  In  In1  1  -0.01735317  0.14439894  0.62643044  1
  In  In2  1  -0.01042645  0.51344920  0.13131651  1
  In  In3  1  0.00078764  0.51204004  0.62388542  1
  In  In4  1  -0.00176053  0.83362796  0.12704309  1
  In  In5  1  -0.00665060  0.83531426  0.62926118  1
  In  In6  1  0.34999920  0.15950300  0.13757001  1
  In  In7  1  0.34495018  0.17217095  0.62908156  1
  In  In8  1  0.34095783  0.49013067  0.12992113  1
  In  In9  1  0.33350046  0.50325809  0.63411756  1
  In  In10  1  0.32563925  0.84045676  0.13042401  1
  In  In11  1  0.32514745  0.82259590  0.61882424  1
  In  In12  1  0.65833304  0.15442291  0.12397800  1
  In  In13  1  0.67905043  0.17607026  0.62681076  1
  In  In14  1  0.67607156  0.51036515  0.11831063  1
  In  In15  1  0.67676088  0.48442764  0.62559023  1
  In  In16  1  0.67657698  0.82777526  0.13253697  1
  In  In17  1  0.66924781  0.84363225  0.60456719  1
  In  In18  1  0.16836827  -0.00138655  0.36598283  1
  In  In19  1  0.15006426  0.00253935  0.87580698  1
  In  In20  1  0.16664678  0.33549761  0.36666856  1
  In  In21  1  0.17416704  0.32169597  0.87354746  1
  In  In22  1  0.15832968  0.66324635  0.36697140  1
  In  In23  1  0.17043761  0.67358111  0.87463825  1
  In  In24  1  0.49356615  -0.00852281  0.36961869  1
  In  In25  1  0.51277584  0.00374446  0.87927175  1
  In  In26  1  0.49984736  0.34280484  0.37141933  1
  In  In27  1  0.50319577  0.33534449  0.87990807  1
  In  In28  1  0.51310973  0.67882992  0.36179430  1
  In  In29  1  0.48534869  0.66522395  0.87568964  1
  In  In30  1  0.82686403  -0.01246553  0.37107626  1
  In  In31  1  0.83868672  -0.01027930  0.88527054  1
  In  In32  1  0.83877485  0.32590122  0.37385969  1
  In  In33  1  0.82383772  0.33560705  0.87989191  1
  In  In34  1  0.83629379  0.67319598  0.37657415  1
  In  In35  1  0.84358254  0.65976118  0.87857729  1
  In  In36  1  -0.01053949  0.15938547  0.36133224  1
  In  In37  1  -0.00165184  0.15039415  0.87549710  1
  In  In38  1  -0.00778704  0.50078906  0.37101753  1
  In  In39  1  -0.01541592  0.50123330  0.87670983  1
  In  In40  1  -0.01054872  0.82860647  0.37168949  1
  In  In41  1  -0.00048814  0.83302338  0.87761269  1
  In  In42  1  0.33540793  0.15826191  0.36080360  1
  In  In43  1  0.33317858  0.17990435  0.87606883  1
  In  In44  1  0.33056211  0.50197387  0.36555080  1
  In  In45  1  0.33840110  0.50483619  0.87650826  1
  In  In46  1  0.34950849  0.84527441  0.36600543  1
  In  In47  1  0.33395212  0.81760359  0.87664146  1
  In  In48  1  0.67066309  0.16157296  0.36788169  1
  In  In49  1  0.65627043  0.17232495  0.88692992  1
  In  In50  1  0.66379635  0.51185450  0.37465665  1
  In  In51  1  0.67847331  0.48864382  0.88339477  1
  In  In52  1  0.67116259  0.83421059  0.37806931  1
  In  In53  1  0.67271806  0.84757418  0.87686975  1
  In  In54  1  0.17511608  -0.01031078  0.13005702  1
  In  In55  1  0.15525989  -0.01636180  0.62061130  1
  In  In56  1  0.17123363  0.32991536  0.12984921  1
  In  In57  1  0.16818724  0.34332477  0.63110358  1
  In  In58  1  0.15397824  0.67882327  0.13161571  1
  In  In59  1  0.16808698  0.67047362  0.63224758  1
  In  In60  1  0.49927776  0.01204145  0.13900670  1
  In  In61  1  0.51012826  0.00135481  0.61575964  1
  In  In62  1  0.49383557  0.32494248  0.12029011  1
  In  In63  1  0.50480933  0.33073561  0.63480571  1
  In  In64  1  0.50966993  0.65950719  0.13017678  1
  In  In65  1  0.49071944  0.66645081  0.62287903  1
  In  In66  1  0.83382805  -0.00101659  0.12848526  1
  In  In67  1  0.84182247  -0.00056651  0.62020956  1
  In  In68  1  0.84018587  0.34227299  0.11919742  1
  In  In69  1  0.81897819  0.32927029  0.62578402  1
  In  In70  1  0.83218485  0.67051211  0.12532295  1
  In  In71  1  0.84921439  0.67892840  0.61207840  1
  In  In72  1  0.50409994  0.16160491  0.49845917  1
  In  In73  1  0.82847962  0.16126070  0.49708489  1
  In  In74  1  0.67803386  0.00808989  0.74554304  1
  In  In75  1  0.16431804  0.50191010  0.00635066  1
  In  In76  1  0.66284357  0.32993507  0.24737947  1
  In  In77  1  0.16675196  0.16432717  0.48898439  1
  In  In78  1  0.16083481  0.50727718  0.48969887  1
  In  In79  1  0.16544274  0.16225762  -0.00089901  1
  In  In80  1  0.50417780  0.50516011  0.49713683  1
  In  In81  1  0.00285371  0.33278128  0.75688537  1
  In  In82  1  0.50412848  0.83272774  0.00277451  1
  In  In83  1  0.66509624  0.66287305  0.74699071  1
  In  In84  1  0.16382390  0.82983682  0.49413682  1
  In  In85  1  0.32836277  -0.00062503  0.74591399  1
  Cu  Cu86  1  0.66860294  0.66759424  0.00373820  1
  Cu  Cu87  1  0.50212450  0.83079192  0.24811716  1
  Cu  Cu88  1  0.16178952  0.16462268  0.75080189  1
  Cu  Cu89  1  0.34276576  0.33042507  0.00398029  1
  Cu  Cu90  1  0.49783384  0.83006246  0.74443419  1
  Cu  Cu91  1  0.83530985  0.50151200  0.75284835  1
  Cu  Cu92  1  0.33846198  0.33018099  0.50307856  1
  Cu  Cu93  1  0.17560408  0.50575147  0.75258237  1
  Cu  Cu94  1  0.50064247  0.17712145  0.75633079  1
  Cu  Cu95  1  0.83662900  0.16660032  0.24749199  1
  Cu  Cu96  1  0.33407058  0.66961769  0.49602307  1
  Cu  Cu97  1  -0.00243972  -0.00646376  0.00318375  1
  Cu  Cu98  1  -0.00563323  0.67199786  0.00542729  1
  Cu  Cu99  1  0.67233375  0.66685937  0.49462558  1
  Cu  Cu100  1  0.16180268  0.83005554  0.75079095  1
  Cu  Cu101  1  0.83141107  0.50616562  0.24751477  1
  Cu  Cu102  1  -0.00738419  0.33620280  0.49473099  1
  Cu  Cu103  1  0.49919756  0.49663904  0.75428134  1
  Cu  Cu104  1  0.66620408  0.33404228  0.00510456  1
  Cu  Cu105  1  0.49733442  0.50023906  0.24728849  1
  Cu  Cu106  1  0.16583070  0.83342059  0.25136560  1
  Cu  Cu107  1  0.83330333  0.83241412  0.25078969  1
  Cu  Cu108  1  0.33641576  -0.00039541  0.00952636  1
  Cu  Cu109  1  0.16573750  0.16751278  0.24670163  1
  Cu  Cu110  1  0.33193763  0.66488733  0.00125695  1
  Cu  Cu111  1  0.84096239  0.82994972  0.75123365  1
  Cu  Cu112  1  0.16308448  0.50195258  0.24619698  1
  Cu  Cu113  1  0.67084976  0.00157866  0.00535703  1
  Cu  Cu114  1  -0.00981182  0.33606783  0.00218941  1
  Se  Se115  1  0.07830915  0.07637409  0.06299629  1
  Se  Se116  1  0.07630248  0.07751323  0.55279486  1
  Se  Se117  1  0.07340704  0.41004810  0.06359788  1
  Se  Se118  1  0.07982317  0.40993658  0.55404401  1
  Se  Se119  1  0.08229846  0.75454974  0.05378803  1
  Se  Se120  1  0.07949074  0.74299784  0.56008172  1
  Se  Se121  1  0.42144603  0.08216893  0.05942073  1
  Se  Se122  1  0.40420091  0.07734971  0.55578794  1
  Se  Se123  1  0.42187043  0.42105092  0.05302996  1
  Se  Se124  1  0.41479031  0.41467763  0.56127744  1
  Se  Se125  1  0.41262447  0.74552172  0.06285046  1
  Se  Se126  1  0.41746358  0.75065880  0.55031026  1
  Se  Se127  1  0.75494330  0.08514063  0.05755250  1
  Se  Se128  1  0.73571079  0.07291972  0.55760290  1
  Se  Se129  1  0.75303597  0.42094469  0.05147390  1
  Se  Se130  1  0.75460379  0.41288925  0.55052340  1
  Se  Se131  1  0.75043460  0.75349789  0.05420089  1
  Se  Se132  1  0.75470950  0.75216161  0.54678989  1
  Se  Se133  1  0.25866563  0.24795694  0.05952018  1
  Se  Se134  1  0.25083247  0.25435231  0.55900859  1
  Se  Se135  1  0.25322647  0.59014793  0.06672617  1
  Se  Se136  1  0.25605812  0.58788377  0.55645256  1
  Se  Se137  1  0.24871607  0.91321660  0.05208460  1
  Se  Se138  1  0.25665517  0.92336908  0.55186475  1
  Se  Se139  1  0.58471706  0.24681553  0.05592932  1
  Se  Se140  1  0.58879398  0.25834972  0.55779943  1
  Se  Se141  1  0.58129764  0.58407314  0.05128572  1
  Se  Se142  1  0.59521650  0.59015038  0.56112341  1
  Se  Se143  1  0.58771381  0.92215125  0.06636098  1
  Se  Se144  1  0.57000949  0.91170864  0.54291855  1
  Se  Se145  1  0.91283396  0.24547161  0.05341361  1
  Se  Se146  1  0.92258219  0.25152007  0.55841018  1
  Se  Se147  1  0.91135220  0.58410112  0.05407048  1
  Se  Se148  1  0.90996999  0.57163401  0.55191994  1
  Se  Se149  1  0.91246657  0.91330858  0.05767553  1
  Se  Se150  1  0.92315935  0.91674067  0.55457717  1
  Se  Se151  1  0.07104927  0.25590023  0.43473103  1
  Se  Se152  1  0.07299458  0.25726449  0.94246826  1
  Se  Se153  1  0.06428468  0.59969348  0.44273217  1
  Se  Se154  1  0.07425918  0.58918986  0.94393856  1
  Se  Se155  1  0.07781608  0.92386056  0.43675952  1
  Se  Se156  1  0.08402300  0.91482528  0.94858260  1
  Se  Se157  1  0.41217758  0.25287463  0.43831870  1
  Se  Se158  1  0.42192034  0.24591006  0.94806151  1
  Se  Se159  1  0.41447743  0.59090474  0.43431960  1
  Se  Se160  1  0.41737358  0.58159034  0.95150870  1
  Se  Se161  1  0.42263332  0.91129340  0.44653970  1
  Se  Se162  1  0.41148216  0.92160449  0.94080288  1
  Se  Se163  1  0.73829689  0.25575491  0.44094331  1
  Se  Se164  1  0.74942885  0.24979306  0.95148584  1
  Se  Se165  1  0.75441115  0.58196000  0.44333903  1
  Se  Se166  1  0.75148621  0.58642128  0.94597523  1
  Se  Se167  1  0.75577347  0.91264971  0.44821373  1
  Se  Se168  1  0.75115981  0.91262776  0.95539173  1
  Se  Se169  1  0.26246001  0.07328837  0.43815574  1
  Se  Se170  1  0.25975014  0.07326782  0.93941303  1
  Se  Se171  1  0.25890952  0.40976694  0.44227869  1
  Se  Se172  1  0.25359198  0.40725477  0.94681657  1
  Se  Se173  1  0.25545957  0.74442785  0.43217893  1
  Se  Se174  1  0.24824827  0.74986754  0.95092966  1
  Se  Se175  1  0.59184493  0.07382836  0.43752554  1
  Se  Se176  1  0.58050638  0.08233326  0.95616074  1
  Se  Se177  1  0.59377780  0.40930772  0.44302874  1
  Se  Se178  1  0.58358605  0.41845888  0.95032115  1
  Se  Se179  1  0.58341418  0.74679829  0.44357988  1
  Se  Se180  1  0.59090982  0.74399958  0.93710808  1
  Se  Se181  1  0.92198085  0.07557553  0.43870427  1
  Se  Se182  1  0.91722696  0.08173288  0.95164166  1
  Se  Se183  1  0.91066159  0.41834734  0.44176631  1
  Se  Se184  1  0.90911746  0.41941029  0.94788323  1
  Se  Se185  1  0.90629616  0.76335822  0.44798010  1
  Se  Se186  1  0.91311945  0.75332446  0.94698476  1
  Se  Se187  1  0.24956148  0.24949433  0.30174280  1
  Se  Se188  1  0.25085211  0.24654513  0.79824217  1
  Se  Se189  1  0.24698844  0.58556381  0.29986832  1
  Se  Se190  1  0.25551613  0.58869079  0.80917956  1
  Se  Se191  1  0.25426138  0.91732831  0.29965466  1
  Se  Se192  1  0.24382525  0.91070694  0.81148974  1
  Se  Se193  1  0.57126250  0.24143685  0.30636111  1
  Se  Se194  1  0.58817529  0.25432145  0.80964049  1
  Se  Se195  1  0.58575332  0.58167444  0.29754241  1
  Se  Se196  1  0.58020520  0.57723999  0.81410028  1
  Se  Se197  1  0.58476967  0.91054507  0.30563144  1
  Se  Se198  1  0.57796353  0.91325188  0.80155129  1
  Se  Se199  1  0.91804190  0.25653753  0.29664045  1
  Se  Se200  1  0.91162884  0.24411190  0.81400040  1
  Se  Se201  1  0.91400279  0.58871066  0.30338172  1
  Se  Se202  1  0.92079701  0.58706897  0.80045682  1
  Se  Se203  1  0.91860215  0.91875996  0.30021893  1
  Se  Se204  1  0.91645664  0.91698604  0.80773620  1
  Se  Se205  1  0.08381800  0.08190771  0.29923245  1
  Se  Se206  1  0.07753916  0.07874198  0.79856086  1
  Se  Se207  1  0.08102673  0.42107506  0.30401091  1
  Se  Se208  1  0.09481311  0.42714089  0.81512729  1
  Se  Se209  1  0.07816587  0.75222115  0.30244871  1
  Se  Se210  1  0.07990137  0.74807122  0.80696553  1
  Se  Se211  1  0.42481770  0.08049388  0.29764219  1
  Se  Se212  1  0.42243239  0.08577055  0.80905811  1
  Se  Se213  1  0.41487764  0.41657247  0.30051313  1
  Se  Se214  1  0.41646636  0.41520948  0.81026508  1
  Se  Se215  1  0.41334478  0.74666325  0.29773533  1
  Se  Se216  1  0.41652283  0.74937712  0.80023583  1
  Se  Se217  1  0.75604034  0.08229112  0.30163369  1
  Se  Se218  1  0.75105756  0.08537914  0.82243207  1
  Se  Se219  1  0.75304986  0.42182387  0.30746592  1
  Se  Se220  1  0.75153090  0.41706003  0.80342505  1
  Se  Se221  1  0.74945850  0.74996261  0.30586993  1
  Se  Se222  1  0.75284149  0.75514397  0.80956349  1
  Se  Se223  1  0.25060132  0.08228800  0.19592612  1
  Se  Se224  1  0.23798554  0.08789606  0.68395618  1
  Se  Se225  1  0.24912997  0.41683069  0.19755787  1
  Se  Se226  1  0.25437397  0.41573471  0.70177907  1
  Se  Se227  1  0.24960098  0.74994571  0.19771762  1
  Se  Se228  1  0.25331301  0.75200046  0.69959192  1
  Se  Se229  1  0.59126718  0.08459898  0.20579385  1
  Se  Se230  1  0.57474277  0.09510901  0.69195130  1
  Se  Se231  1  0.58084635  0.42422706  0.18509951  1
  Se  Se232  1  0.58605063  0.42005928  0.69870807  1
  Se  Se233  1  0.58778368  0.74678478  0.19778302  1
  Se  Se234  1  0.58464863  0.75900105  0.68399529  1
  Se  Se235  1  0.92076951  0.08093153  0.19653288  1
  Se  Se236  1  0.89345322  0.08593688  0.70032613  1
  Se  Se237  1  0.91413272  0.41912410  0.19652664  1
  Se  Se238  1  0.91611542  0.41955194  0.69176228  1
  Se  Se239  1  0.91635561  0.74926342  0.19596683  1
  Se  Se240  1  0.91947063  0.74304160  0.69739114  1
  Se  Se241  1  0.08176079  0.25373563  0.19682954  1
  Se  Se242  1  0.08142474  0.24167535  0.68643774  1
  Se  Se243  1  0.07789964  0.58903647  0.19915824  1
  Se  Se244  1  0.08791313  0.58091554  0.69707625  1
  Se  Se245  1  0.08240127  0.91626816  0.19660565  1
  Se  Se246  1  0.07932850  0.91580109  0.69927854  1
  Se  Se247  1  0.40887401  0.26632571  0.19820436  1
  Se  Se248  1  0.41343784  0.25664859  0.70294315  1
  Se  Se249  1  0.41421488  0.58566016  0.19543186  1
  Se  Se250  1  0.42141640  0.58473737  0.69932808  1
  Se  Se251  1  0.41746036  0.91555222  0.19677124  1
  Se  Se252  1  0.42130772  0.91383723  0.68488390  1
  Se  Se253  1  0.75710196  0.24678519  0.18627311  1
  Se  Se254  1  0.75315420  0.24888985  0.70262839  1
  Se  Se255  1  0.74693939  0.58903805  0.19544585  1
  Se  Se256  1  0.76112485  0.58121283  0.68728703  1
  Se  Se257  1  0.74987515  0.91940065  0.20001824  1
  Se  Se258  1  0.75498017  0.90271549  0.68937638  1
