# generated using pymatgen
data_In86Cu29Se144
_symmetry_space_group_name_H-M   'P 1'
_cell_length_a   17.58970220
_cell_length_b   17.58652086
_cell_length_c   23.45394179
_cell_angle_alpha   90.00659319
_cell_angle_beta   89.98646604
_cell_angle_gamma   89.99541778
_symmetry_Int_Tables_number   1
_chemical_formula_structural   In86Cu29Se144
_chemical_formula_sum   'In86 Cu29 Se144'
_cell_volume   7255.28112386
_cell_formula_units_Z   1
loop_
 _symmetry_equiv_pos_site_id
 _symmetry_equiv_pos_as_xyz
  1  'x, y, z'
loop_
 _atom_site_type_symbol
 _atom_site_label
 _atom_site_symmetry_multiplicity
 _atom_site_fract_x
 _atom_site_fract_y
 _atom_site_fract_z
 _atom_site_occupancy
  In  In0  1  -0.00046652  0.17249834  0.11210729  1
  In  In1  1  0.00871982  0.16763418  0.62685352  1
  In  In2  1  -0.00176343  0.49576316  0.11625926  1
  In  In3  1  -0.00175456  0.50327862  0.62422416  1
  In  In4  1  -0.00257868  0.84207925  0.12155626  1
  In  In5  1  -0.01889660  0.81499717  0.60980835  1
  In  In6  1  0.32990270  0.18312223  0.12499098  1
  In  In7  1  0.32635771  0.18486936  0.63222462  1
  In  In8  1  0.32856251  0.50967306  0.12970213  1
  In  In9  1  0.33137927  0.50076784  0.62646043  1
  In  In10  1  0.33104636  0.81229606  0.12361029  1
  In  In11  1  0.31626288  0.82822851  0.61981322  1
  In  In12  1  0.67417203  0.17203883  0.12089768  1
  In  In13  1  0.65090864  0.17967877  0.65376605  1
  In  In14  1  0.66814532  0.48525315  0.12084980  1
  In  In15  1  0.67060252  0.49347834  0.62308211  1
  In  In16  1  0.67003347  0.83917939  0.11111854  1
  In  In17  1  0.67515100  0.81834214  0.63411550  1
  In  In18  1  0.16219028  0.00894823  0.38007884  1
  In  In19  1  0.17602323  0.00754478  0.87636579  1
  In  In20  1  0.17678120  0.32972371  0.38383609  1
  In  In21  1  0.16482917  0.33474212  0.87245046  1
  In  In22  1  0.17646739  0.64165048  0.40253101  1
  In  In23  1  0.15600367  0.65273521  0.86192294  1
  In  In24  1  0.51377348  -0.00156933  0.37347215  1
  In  In25  1  0.50227106  -0.00846469  0.87749414  1
  In  In26  1  0.50757669  0.35240911  0.36111919  1
  In  In27  1  0.51462754  0.33639836  0.86263328  1
  In  In28  1  0.48389480  0.66063298  0.37301289  1
  In  In29  1  0.50956392  0.67453379  0.86540839  1
  In  In30  1  0.82436159  -0.00825503  0.37812429  1
  In  In31  1  0.81717406  0.01303822  0.87719520  1
  In  In32  1  0.83029827  0.34430208  0.37893960  1
  In  In33  1  0.83724480  0.33563511  0.86801209  1
  In  In34  1  0.83783550  0.66049837  0.39082691  1
  In  In35  1  0.83521564  0.66457230  0.87308244  1
  In  In36  1  0.00806305  0.17897104  0.37631754  1
  In  In37  1  -0.02245571  0.18892461  0.88062201  1
  In  In38  1  0.00601077  0.50306145  0.39379263  1
  In  In39  1  0.00240603  0.49796229  0.87044994  1
  In  In40  1  0.00976476  0.81803757  0.39723546  1
  In  In41  1  -0.00032510  0.81614466  0.87053675  1
  In  In42  1  0.31754209  0.18918023  0.37723248  1
  In  In43  1  0.32074337  0.16978504  0.87968608  1
  In  In44  1  0.33227158  0.49575636  0.38156131  1
  In  In45  1  0.32776642  0.48838932  0.86552727  1
  In  In46  1  0.33760603  0.81533196  0.37492047  1
  In  In47  1  0.34303641  0.83348344  0.87548694  1
  In  In48  1  0.65605187  0.17443288  0.37811044  1
  In  In49  1  0.70414416  0.19933337  0.83371103  1
  In  In50  1  0.66914670  0.48617039  0.38690538  1
  In  In51  1  0.67088717  0.50212041  0.86983337  1
  In  In52  1  0.67694413  0.83805560  0.38374939  1
  In  In53  1  0.66870309  0.83117445  0.87203113  1
  In  In54  1  0.15649136  0.00288750  0.12496188  1
  In  In55  1  0.15909758  -0.00372229  0.61553793  1
  In  In56  1  0.17040962  0.33804363  0.11905052  1
  In  In57  1  0.16709505  0.33815157  0.62457073  1
  In  In58  1  0.18028221  0.65956664  0.12768775  1
  In  In59  1  0.16270797  0.66729644  0.62451367  1
  In  In60  1  0.51258390  0.00055012  0.11899762  1
  In  In61  1  0.50668302  0.01176707  0.63259387  1
  In  In62  1  0.49697171  0.34466873  0.13428381  1
  In  In63  1  0.49493781  0.33545070  0.63417291  1
  In  In64  1  0.48269925  0.65485121  0.11879361  1
  In  In65  1  0.51296561  0.64897575  0.63353386  1
  In  In66  1  0.83315222  0.00052482  0.11196790  1
  In  In67  1  0.83095883  -0.00436273  0.63373959  1
  In  In68  1  0.82374507  0.32734169  0.10927581  1
  In  In69  1  0.81327198  0.35166996  0.64082309  1
  In  In70  1  0.83209178  0.66513960  0.11236390  1
  In  In71  1  0.83593480  0.65643581  0.62198627  1
  In  In72  1  0.00162875  -0.00091681  0.75206146  1
  In  In73  1  0.50610961  0.16622053  -0.00522535  1
  In  In74  1  0.33896899  0.00622839  0.24930673  1
  In  In75  1  0.66970972  0.00393206  0.24968154  1
  In  In76  1  0.66024647  0.66108116  0.25028640  1
  In  In77  1  0.00616988  0.33719486  0.24579856  1
  In  In78  1  -0.00413970  0.00098407  0.25813301  1
  In  In79  1  0.50184853  0.82894478  0.49835443  1
  In  In80  1  0.83602530  0.16544087  0.50903883  1
  In  In81  1  0.00321810  0.66617712  0.26231508  1
  In  In82  1  0.49661678  0.17746140  0.51504675  1
  In  In83  1  0.16555268  0.82808793  0.00129070  1
  In  In84  1  0.33542868  -0.00390427  0.74976278  1
  In  In85  1  0.50597373  0.50179975  -0.01041994  1
  Cu  Cu86  1  0.33368521  0.66282827  0.50518349  1
  Cu  Cu87  1  -0.00075405  0.33455331  -0.00632571  1
  Cu  Cu88  1  0.33039421  0.33983628  -0.00228893  1
  Cu  Cu89  1  0.16644185  0.17117097  0.75155888  1
  Cu  Cu90  1  0.83563003  0.82735766  0.75025412  1
  Cu  Cu91  1  0.66903323  0.67258628  -0.00980264  1
  Cu  Cu92  1  0.00230138  0.00398065  0.50402393  1
  Cu  Cu93  1  0.49337075  0.17799084  0.25387170  1
  Cu  Cu94  1  0.83515865  0.82598751  0.25028866  1
  Cu  Cu95  1  0.66670570  -0.00013675  -0.00802445  1
  Cu  Cu96  1  0.00035767  0.66049304  -0.00628094  1
  Cu  Cu97  1  0.67087211  0.00113003  0.51093058  1
  Cu  Cu98  1  0.83662242  0.50606354  0.74876754  1
  Cu  Cu99  1  0.33197807  0.33911698  0.50462514  1
  Cu  Cu100  1  0.16296215  0.82579746  0.74373418  1
  Cu  Cu101  1  0.16917775  0.49509936  0.74421458  1
  Cu  Cu102  1  0.17572067  0.82840916  0.25639615  1
  Cu  Cu103  1  0.49776530  0.82698649  0.75019558  1
  Cu  Cu104  1  0.33088836  0.00497073  0.49714654  1
  Cu  Cu105  1  0.49945498  0.50140432  0.74824676  1
  Cu  Cu106  1  -0.00136682  -0.00073292  -0.00441124  1
  Cu  Cu107  1  0.33418265  0.00028662  -0.00199702  1
  Cu  Cu108  1  0.00272852  0.33295705  0.50637409  1
  Cu  Cu109  1  0.83274696  0.17509787  0.24045252  1
  Cu  Cu110  1  0.66805173  0.65646545  0.50578495  1
  Cu  Cu111  1  0.82771602  0.49316730  0.25341305  1
  Cu  Cu112  1  0.16921956  0.50386065  0.25576294  1
  Cu  Cu113  1  0.49949298  0.82352177  0.24129648  1
  Cu  Cu114  1  0.33054964  0.66122395  -0.00270151  1
  Se  Se115  1  0.08211960  0.07988069  0.05037081  1
  Se  Se116  1  0.08583486  0.09197767  0.55072786  1
  Se  Se117  1  0.08308587  0.41474889  0.05006502  1
  Se  Se118  1  0.08482331  0.42082588  0.55569628  1
  Se  Se119  1  0.07629000  0.73654447  0.06252364  1
  Se  Se120  1  0.10490649  0.77478269  0.56089989  1
  Se  Se121  1  0.41120936  0.08153354  0.06036169  1
  Se  Se122  1  0.40424531  0.07774905  0.56483592  1
  Se  Se123  1  0.41258264  0.42002249  0.05583469  1
  Se  Se124  1  0.41773554  0.41499450  0.56050979  1
  Se  Se125  1  0.41549212  0.74692797  0.04737425  1
  Se  Se126  1  0.41816122  0.74179527  0.56357572  1
  Se  Se127  1  0.74494580  0.08448214  0.04993274  1
  Se  Se128  1  0.73922901  0.08814435  0.57268625  1
  Se  Se129  1  0.76075947  0.43133394  0.04747339  1
  Se  Se130  1  0.75784349  0.41743698  0.55316938  1
  Se  Se131  1  0.75373926  0.75412192  0.04641167  1
  Se  Se132  1  0.74881455  0.74417681  0.55622521  1
  Se  Se133  1  0.24889567  0.25100581  0.04833790  1
  Se  Se134  1  0.24830950  0.25134413  0.55382124  1
  Se  Se135  1  0.24755444  0.57837459  0.05077816  1
  Se  Se136  1  0.24680601  0.58146102  0.55654115  1
  Se  Se137  1  0.25660975  0.92007457  0.06215346  1
  Se  Se138  1  0.24924800  0.91868742  0.54863190  1
  Se  Se139  1  0.58204947  0.26079703  0.06124841  1
  Se  Se140  1  0.59825540  0.25997396  0.56678246  1
  Se  Se141  1  0.59213566  0.59219776  0.05488637  1
  Se  Se142  1  0.58104462  0.57404136  0.55405653  1
  Se  Se143  1  0.58110771  0.91765972  0.04440515  1
  Se  Se144  1  0.58661695  0.91683889  0.56466219  1
  Se  Se145  1  0.91356945  0.24815898  0.04398613  1
  Se  Se146  1  0.91816556  0.26145352  0.56810929  1
  Se  Se147  1  0.91616850  0.57926728  0.04888491  1
  Se  Se148  1  0.93492248  0.59709250  0.55102722  1
  Se  Se149  1  0.91656397  0.91301908  0.04729398  1
  Se  Se150  1  0.91432087  0.92750533  0.55731784  1
  Se  Se151  1  0.08586126  0.25137120  0.45107237  1
  Se  Se152  1  0.08468714  0.24886952  0.94276864  1
  Se  Se153  1  0.04999834  0.61603013  0.45644287  1
  Se  Se154  1  0.08675835  0.57958848  0.94256890  1
  Se  Se155  1  0.08644779  0.92239071  0.44978356  1
  Se  Se156  1  0.08042192  0.91834717  0.93685253  1
  Se  Se157  1  0.41552082  0.26003637  0.44459906  1
  Se  Se158  1  0.41538678  0.26248874  0.93857098  1
  Se  Se159  1  0.41647041  0.58054561  0.45018770  1
  Se  Se160  1  0.41083820  0.58854835  0.93174385  1
  Se  Se161  1  0.41294294  0.92550542  0.43855497  1
  Se  Se162  1  0.41680876  0.91467509  0.94881536  1
  Se  Se163  1  0.74606095  0.25263033  0.44562778  1
  Se  Se164  1  0.75253670  0.24420897  0.93021687  1
  Se  Se165  1  0.75268144  0.57310137  0.45205753  1
  Se  Se166  1  0.74946534  0.58305364  0.94205647  1
  Se  Se167  1  0.75300016  0.91775832  0.45742595  1
  Se  Se168  1  0.75143698  0.91335554  0.94273559  1
  Se  Se169  1  0.25130286  0.09087054  0.44400853  1
  Se  Se170  1  0.24681617  0.08579464  0.95291253  1
  Se  Se171  1  0.24324919  0.42251464  0.45398174  1
  Se  Se172  1  0.24668348  0.42023372  0.94261006  1
  Se  Se173  1  0.25432392  0.75060445  0.45144559  1
  Se  Se174  1  0.24976003  0.74126907  0.93578075  1
  Se  Se175  1  0.58755723  0.07860813  0.45203059  1
  Se  Se176  1  0.59473265  0.08509159  0.93114138  1
  Se  Se177  1  0.57543664  0.40688641  0.44864557  1
  Se  Se178  1  0.59830580  0.40413540  0.94114425  1
  Se  Se179  1  0.59200339  0.73634349  0.43925625  1
  Se  Se180  1  0.57906832  0.75383960  0.94290009  1
  Se  Se181  1  0.92218638  0.07947729  0.43767593  1
  Se  Se182  1  0.91526739  0.08240915  0.94219511  1
  Se  Se183  1  0.91810826  0.41296317  0.45107737  1
  Se  Se184  1  0.91760492  0.41826445  0.93992838  1
  Se  Se185  1  0.89160553  0.77099514  0.44960464  1
  Se  Se186  1  0.91763892  0.74769227  0.94559943  1
  Se  Se187  1  0.23912156  0.25677124  0.30073120  1
  Se  Se188  1  0.25261806  0.25222720  0.80376833  1
  Se  Se189  1  0.24705586  0.58530932  0.31553524  1
  Se  Se190  1  0.25222157  0.57979043  0.79811987  1
  Se  Se191  1  0.25138653  0.91608029  0.31350455  1
  Se  Se192  1  0.23892715  0.90506860  0.80698366  1
  Se  Se193  1  0.58771662  0.25419754  0.30211974  1
  Se  Se194  1  0.57412500  0.24083644  0.79240462  1
  Se  Se195  1  0.57945051  0.57328007  0.31596340  1
  Se  Se196  1  0.58612363  0.58264374  0.80094682  1
  Se  Se197  1  0.58204168  0.89936074  0.30284313  1
  Se  Se198  1  0.57824524  0.91016365  0.80479012  1
  Se  Se199  1  0.91056742  0.24893301  0.30656047  1
  Se  Se200  1  0.92099964  0.25739734  0.79532167  1
  Se  Se201  1  0.90886797  0.57004058  0.31420764  1
  Se  Se202  1  0.92107159  0.58649407  0.80315638  1
  Se  Se203  1  0.91351152  0.90159796  0.31456009  1
  Se  Se204  1  0.91056718  0.91078547  0.81237119  1
  Se  Se205  1  0.09245719  0.09754420  0.30310036  1
  Se  Se206  1  0.08667416  0.09241897  0.81312378  1
  Se  Se207  1  0.08462007  0.42718675  0.31476375  1
  Se  Se208  1  0.08486293  0.41547705  0.80047030  1
  Se  Se209  1  0.09802587  0.75164448  0.31976296  1
  Se  Se210  1  0.07808810  0.74340723  0.79548177  1
  Se  Se211  1  0.42441962  0.09340825  0.31716761  1
  Se  Se212  1  0.41456453  0.08534600  0.81546096  1
  Se  Se213  1  0.38569607  0.39464232  0.31080396  1
  Se  Se214  1  0.41937938  0.41241535  0.79949762  1
  Se  Se215  1  0.41596368  0.74539058  0.29754392  1
  Se  Se216  1  0.40996877  0.74747644  0.80179541  1
  Se  Se217  1  0.75955673  0.09639684  0.30892159  1
  Se  Se218  1  0.74635628  0.06932052  0.79183362  1
  Se  Se219  1  0.74306623  0.41230242  0.30576851  1
  Se  Se220  1  0.75234095  0.42072572  0.79985301  1
  Se  Se221  1  0.75490316  0.74897299  0.31181377  1
  Se  Se222  1  0.74984613  0.74578987  0.80372921  1
  Se  Se223  1  0.24358239  0.08966456  0.19052137  1
  Se  Se224  1  0.23892008  0.08240543  0.69107438  1
  Se  Se225  1  0.24229845  0.42230672  0.19310160  1
  Se  Se226  1  0.25606297  0.41059111  0.69591100  1
  Se  Se227  1  0.25309314  0.74276771  0.20142284  1
  Se  Se228  1  0.25258846  0.74447701  0.69607146  1
  Se  Se229  1  0.57478492  0.09639280  0.19433387  1
  Se  Se230  1  0.59240157  0.06664707  0.70964140  1
  Se  Se231  1  0.57453102  0.43820890  0.19626964  1
  Se  Se232  1  0.58568569  0.41824196  0.69676087  1
  Se  Se233  1  0.58353815  0.75210060  0.17993485  1
  Se  Se234  1  0.58410078  0.74305761  0.70055227  1
  Se  Se235  1  0.91109880  0.08710518  0.18738224  1
  Se  Se236  1  0.91293962  0.09221786  0.69476170  1
  Se  Se237  1  0.90802410  0.41976726  0.18854666  1
  Se  Se238  1  0.92070934  0.42003565  0.69695085  1
  Se  Se239  1  0.91630236  0.74936726  0.19066076  1
  Se  Se240  1  0.91523447  0.74516376  0.69277820  1
  Se  Se241  1  0.08871738  0.24150557  0.18642166  1
  Se  Se242  1  0.08631689  0.25325665  0.69562194  1
  Se  Se243  1  0.08402959  0.57675534  0.19409246  1
  Se  Se244  1  0.08482641  0.58198435  0.69487094  1
  Se  Se245  1  0.09099821  0.90540539  0.19888083  1
  Se  Se246  1  0.08230295  0.90864270  0.68692007  1
  Se  Se247  1  0.41109060  0.25743610  0.19744736  1
  Se  Se248  1  0.43589545  0.22687669  0.69614325  1
  Se  Se249  1  0.41909351  0.58139825  0.19880294  1
  Se  Se250  1  0.41190705  0.58447227  0.69816239  1
  Se  Se251  1  0.42321078  0.91210009  0.18529044  1
  Se  Se252  1  0.42066940  0.90527170  0.68573711  1
  Se  Se253  1  0.74791384  0.25903202  0.19113948  1
  Se  Se254  1  0.75974441  0.24602797  0.70768305  1
  Se  Se255  1  0.75984862  0.58098460  0.19116149  1
  Se  Se256  1  0.74893037  0.58193144  0.69253602  1
  Se  Se257  1  0.76019390  0.91006852  0.19064382  1
  Se  Se258  1  0.74978667  0.91054678  0.70074026  1
