# generated using pymatgen
data_In86Cu29Se144
_symmetry_space_group_name_H-M   'P 1'
_cell_length_a   17.57688782
_cell_length_b   17.57872945
_cell_length_c   23.43898773
_cell_angle_alpha   89.99315356
_cell_angle_beta   89.97596080
_cell_angle_gamma   90.00087077
_symmetry_Int_Tables_number   1
_chemical_formula_structural   In86Cu29Se144
_chemical_formula_sum   'In86 Cu29 Se144'
_cell_volume   7242.16263274
_cell_formula_units_Z   1
loop_
 _symmetry_equiv_pos_site_id
 _symmetry_equiv_pos_as_xyz
  1  'x, y, z'
loop_
 _atom_site_type_symbol
 _atom_site_label
 _atom_site_symmetry_multiplicity
 _atom_site_fract_x
 _atom_site_fract_y
 _atom_site_fract_z
 _atom_site_occupancy
  In  In0  1  -0.00802394  0.17126064  0.13219733  1
  In  In1  1  -0.00188902  0.16906688  0.62464692  1
  In  In2  1  -0.01586439  0.50020483  0.12077364  1
  In  In3  1  -0.01522906  0.49270987  0.62564081  1
  In  In4  1  0.01394834  0.84702475  0.10421492  1
  In  In5  1  0.00147975  0.84007897  0.61609829  1
  In  In6  1  0.33137415  0.15098912  0.12539297  1
  In  In7  1  0.33005836  0.15769911  0.61969413  1
  In  In8  1  0.35410600  0.49917659  0.12316445  1
  In  In9  1  0.34251529  0.48615555  0.62183746  1
  In  In10  1  0.32827825  0.85151779  0.13992917  1
  In  In11  1  0.33123210  0.84784915  0.62237256  1
  In  In12  1  0.68037627  0.17510928  0.11613660  1
  In  In13  1  0.66214914  0.16249046  0.62738110  1
  In  In14  1  0.65918023  0.49997445  0.11365382  1
  In  In15  1  0.66487240  0.50053185  0.62907479  1
  In  In16  1  0.67744425  0.82589451  0.11879779  1
  In  In17  1  0.67055038  0.82886089  0.63095599  1
  In  In18  1  0.16500957  0.00199852  0.37807825  1
  In  In19  1  0.15710476  -0.00975289  0.87443036  1
  In  In20  1  0.15022764  0.33035965  0.37451419  1
  In  In21  1  0.15589571  0.33360369  0.86976348  1
  In  In22  1  0.18290478  0.66767789  0.37170526  1
  In  In23  1  0.16853032  0.68077071  0.88063760  1
  In  In24  1  0.50202027  0.01090009  0.37282903  1
  In  In25  1  0.51342830  0.01832404  0.85258112  1
  In  In26  1  0.51165786  0.32628590  0.38289285  1
  In  In27  1  0.52793019  0.31111249  0.87554492  1
  In  In28  1  0.48496932  0.66891392  0.37510829  1
  In  In29  1  0.50536200  0.65316128  0.88351131  1
  In  In30  1  0.83943888  -0.00533704  0.38056603  1
  In  In31  1  0.82166421  0.01708533  0.89298729  1
  In  In32  1  0.82229708  0.32643412  0.36647618  1
  In  In33  1  0.82847790  0.33107509  0.87407713  1
  In  In34  1  0.84230040  0.67736490  0.37277002  1
  In  In35  1  0.81554984  0.68614620  0.89781842  1
  In  In36  1  -0.00300175  0.16545605  0.37786300  1
  In  In37  1  -0.02987115  0.16102250  0.87202399  1
  In  In38  1  0.00829942  0.49194739  0.37167816  1
  In  In39  1  -0.01212184  0.48486728  0.87532126  1
  In  In40  1  -0.00668972  0.84968085  0.37803807  1
  In  In41  1  -0.01994994  0.85978416  0.90404895  1
  In  In42  1  0.34158798  0.15894444  0.37911853  1
  In  In43  1  0.34839922  0.16475492  0.86673583  1
  In  In44  1  0.33573080  0.51256161  0.37361648  1
  In  In45  1  0.33621884  0.50942633  0.87851222  1
  In  In46  1  0.32617934  0.82253513  0.36611465  1
  In  In47  1  0.32389013  0.84414573  0.87894984  1
  In  In48  1  0.65874449  0.17141756  0.38318406  1
  In  In49  1  0.67247683  0.16643978  0.86667179  1
  In  In50  1  0.67236970  0.48508848  0.37436308  1
  In  In51  1  0.66915993  0.50418657  0.87752126  1
  In  In52  1  0.67208416  0.84606471  0.37836398  1
  In  In53  1  0.67373621  0.84463784  0.86747379  1
  In  In54  1  0.17102562  -0.00748243  0.13264440  1
  In  In55  1  0.17514066  0.01477589  0.61675460  1
  In  In56  1  0.16467632  0.31500312  0.12856139  1
  In  In57  1  0.16832296  0.30858090  0.62751772  1
  In  In58  1  0.16441160  0.68824897  0.12452866  1
  In  In59  1  0.15511766  0.67236057  0.62167249  1
  In  In60  1  0.48718873  0.00100925  0.12673989  1
  In  In61  1  0.48629592  0.01266609  0.64079433  1
  In  In62  1  0.51738307  0.33955468  0.11780510  1
  In  In63  1  0.50637861  0.33442134  0.61909774  1
  In  In64  1  0.50622205  0.65910546  0.12632854  1
  In  In65  1  0.51602861  0.66179465  0.62719168  1
  In  In66  1  0.84599691  0.01125637  0.11127158  1
  In  In67  1  0.82692612  -0.00026732  0.62383616  1
  In  In68  1  0.83063131  0.33048909  0.12467829  1
  In  In69  1  0.83659528  0.31227087  0.64891604  1
  In  In70  1  0.84410822  0.66935456  0.10133927  1
  In  In71  1  0.82337984  0.66742841  0.62646851  1
  In  In72  1  0.33475758  0.67200884  0.76078504  1
  In  In73  1  -0.00157322  0.66543482  0.24107382  1
  In  In74  1  0.66484885  0.66202126  0.23642830  1
  In  In75  1  0.16780866  0.16143547  0.00140955  1
  In  In76  1  0.49766973  0.83673281  0.00363595  1
  In  In77  1  0.17058630  0.49705223  0.49542791  1
  In  In78  1  0.33710026  0.33262958  0.75033373  1
  In  In79  1  -0.00334824  0.00778597  0.75240474  1
  In  In80  1  0.16695370  0.49915174  0.00014007  1
  In  In81  1  0.66120184  0.00120591  0.25152466  1
  In  In82  1  -0.00476885  0.66879311  0.76768891  1
  In  In83  1  0.33527391  0.33098411  0.25019902  1
  In  In84  1  0.50123378  0.83759386  0.50133336  1
  In  In85  1  0.82954826  0.49900213  0.50294613  1
  Cu  Cu86  1  0.83227123  0.49326878  0.24211571  1
  Cu  Cu87  1  0.66518421  0.00297343  -0.00900089  1
  Cu  Cu88  1  0.15993784  0.15766855  0.25320667  1
  Cu  Cu89  1  0.15888086  0.83694504  0.25246059  1
  Cu  Cu90  1  0.33524169  0.66923569  0.49661525  1
  Cu  Cu91  1  0.66813905  0.66700846  0.50601583  1
  Cu  Cu92  1  0.33585978  0.67104355  0.00177207  1
  Cu  Cu93  1  0.66864841  0.00359739  0.50561492  1
  Cu  Cu94  1  -0.00410181  0.32840053  0.50385024  1
  Cu  Cu95  1  -0.00816340  0.32479962  0.00207267  1
  Cu  Cu96  1  0.33175368  0.00120766  0.49920809  1
  Cu  Cu97  1  0.34035208  0.32680599  0.49993707  1
  Cu  Cu98  1  0.15521733  0.49663765  0.74843398  1
  Cu  Cu99  1  0.67102599  0.32920250  0.50337726  1
  Cu  Cu100  1  0.50514300  0.49942055  0.24683323  1
  Cu  Cu101  1  0.16787896  0.84159669  0.75120344  1
  Cu  Cu102  1  0.50455214  0.83135172  0.74891852  1
  Cu  Cu103  1  0.50242807  0.49958825  0.75530119  1
  Cu  Cu104  1  -0.00288114  0.00586538  0.50042538  1
  Cu  Cu105  1  0.66783443  0.33020116  -0.00500472  1
  Cu  Cu106  1  0.33725644  -0.00057774  0.00231735  1
  Cu  Cu107  1  0.34983322  0.33293768  -0.00475114  1
  Cu  Cu108  1  0.16737662  0.49608139  0.25109183  1
  Cu  Cu109  1  0.83362346  0.16477070  0.24859246  1
  Cu  Cu110  1  0.50401718  0.17390709  0.25285377  1
  Cu  Cu111  1  0.83754976  0.82867199  0.75325847  1
  Cu  Cu112  1  0.83475276  0.83584879  0.24541139  1
  Cu  Cu113  1  0.82230076  0.49919969  0.75341337  1
  Cu  Cu114  1  0.00125602  0.68278385  0.49517387  1
  Se  Se115  1  0.08033882  0.07933964  0.06682073  1
  Se  Se116  1  0.07998549  0.08990375  0.55336442  1
  Se  Se117  1  0.08046391  0.40189904  0.05920978  1
  Se  Se118  1  0.07966895  0.41243893  0.55977198  1
  Se  Se119  1  0.07271719  0.73465080  0.04813724  1
  Se  Se120  1  0.08943666  0.75951901  0.54868782  1
  Se  Se121  1  0.42060185  0.08677712  0.05110244  1
  Se  Se122  1  0.42049500  0.07754601  0.55392518  1
  Se  Se123  1  0.42772596  0.41825074  0.05000053  1
  Se  Se124  1  0.42277683  0.41599737  0.54727559  1
  Se  Se125  1  0.40800520  0.75163292  0.06764575  1
  Se  Se126  1  0.41351474  0.74312698  0.56347707  1
  Se  Se127  1  0.75121204  0.08435729  0.04614400  1
  Se  Se128  1  0.75236303  0.09016796  0.55527737  1
  Se  Se129  1  0.74800319  0.41127762  0.05411836  1
  Se  Se130  1  0.75181340  0.40527966  0.56648433  1
  Se  Se131  1  0.73379572  0.73354839  0.04655367  1
  Se  Se132  1  0.75120606  0.75362722  0.55448534  1
  Se  Se133  1  0.26517982  0.25642425  0.05537637  1
  Se  Se134  1  0.25200277  0.24617336  0.55004669  1
  Se  Se135  1  0.25614390  0.58780509  0.06286538  1
  Se  Se136  1  0.25665069  0.58851625  0.56106900  1
  Se  Se137  1  0.25407600  0.91827128  0.05781476  1
  Se  Se138  1  0.24590166  0.91762648  0.54990476  1
  Se  Se139  1  0.58444047  0.24508423  0.04897975  1
  Se  Se140  1  0.58417183  0.24439219  0.55280891  1
  Se  Se141  1  0.58642561  0.59511816  0.04947256  1
  Se  Se142  1  0.58566649  0.57805040  0.55285338  1
  Se  Se143  1  0.59194203  0.92921931  0.06101613  1
  Se  Se144  1  0.58606051  0.92335910  0.56581860  1
  Se  Se145  1  0.91006272  0.24113955  0.05618245  1
  Se  Se146  1  0.90827734  0.25464626  0.56124161  1
  Se  Se147  1  0.91663141  0.57006809  0.04051325  1
  Se  Se148  1  0.92541371  0.59667021  0.55509017  1
  Se  Se149  1  0.89099183  0.89279041  0.05598592  1
  Se  Se150  1  0.91311569  0.92153433  0.55320999  1
  Se  Se151  1  0.08079186  0.24815724  0.44928207  1
  Se  Se152  1  0.07519132  0.24915310  0.94124845  1
  Se  Se153  1  0.07739072  0.59313373  0.43914083  1
  Se  Se154  1  0.08063028  0.58130924  0.93429923  1
  Se  Se155  1  0.08202443  0.92031211  0.44885726  1
  Se  Se156  1  0.09559908  0.91603925  0.95629724  1
  Se  Se157  1  0.42405672  0.24320397  0.44666329  1
  Se  Se158  1  0.42434253  0.24553955  0.93955587  1
  Se  Se159  1  0.41919488  0.58117777  0.44976796  1
  Se  Se160  1  0.41623980  0.58124215  0.95407538  1
  Se  Se161  1  0.41027759  0.92040380  0.43704893  1
  Se  Se162  1  0.42178168  0.93039820  0.93673048  1
  Se  Se163  1  0.75417794  0.24967452  0.44608530  1
  Se  Se164  1  0.75024448  0.24380967  0.94344331  1
  Se  Se165  1  0.74677820  0.59254279  0.43820549  1
  Se  Se166  1  0.75556788  0.57343816  0.95102819  1
  Se  Se167  1  0.75132408  0.91882604  0.45213352  1
  Se  Se168  1  0.74990795  0.91072048  0.94888473  1
  Se  Se169  1  0.24887373  0.08647151  0.44629585  1
  Se  Se170  1  0.25949883  0.07827356  0.93792867  1
  Se  Se171  1  0.26055228  0.40500331  0.43550864  1
  Se  Se172  1  0.25725617  0.40523943  0.93932919  1
  Se  Se173  1  0.25008381  0.75269054  0.44681531  1
  Se  Se174  1  0.25308795  0.75627195  0.95128676  1
  Se  Se175  1  0.58165683  0.08030756  0.44965279  1
  Se  Se176  1  0.58363182  0.08516960  0.93576088  1
  Se  Se177  1  0.59015572  0.41652546  0.45012292  1
  Se  Se178  1  0.58348748  0.41474417  0.94252374  1
  Se  Se179  1  0.59009173  0.74425966  0.44046425  1
  Se  Se180  1  0.58680414  0.75525787  0.93840380  1
  Se  Se181  1  0.91091205  0.08789691  0.44824260  1
  Se  Se182  1  0.94003168  0.06192100  0.94888757  1
  Se  Se183  1  0.92059319  0.41102972  0.44104996  1
  Se  Se184  1  0.90950513  0.40963802  0.94992269  1
  Se  Se185  1  0.91129431  0.76175052  0.44565284  1
  Se  Se186  1  0.93699785  0.73385280  0.94821197  1
  Se  Se187  1  0.24293921  0.24276201  0.31011430  1
  Se  Se188  1  0.24314875  0.24425396  0.80742827  1
  Se  Se189  1  0.25262266  0.58219981  0.29811348  1
  Se  Se190  1  0.23459394  0.57653183  0.80867528  1
  Se  Se191  1  0.24422531  0.91726671  0.30683881  1
  Se  Se192  1  0.25176513  0.92487087  0.80324432  1
  Se  Se193  1  0.58969678  0.25374571  0.30554652  1
  Se  Se194  1  0.59555852  0.24767569  0.79085054  1
  Se  Se195  1  0.58364988  0.57908319  0.31072639  1
  Se  Se196  1  0.58463044  0.58608291  0.80575983  1
  Se  Se197  1  0.57220685  0.90567778  0.30857512  1
  Se  Se198  1  0.59136416  0.91910886  0.79462247  1
  Se  Se199  1  0.91665645  0.24760323  0.30498551  1
  Se  Se200  1  0.91956676  0.26064543  0.80301959  1
  Se  Se201  1  0.90911968  0.57359504  0.30534484  1
  Se  Se202  1  0.89702663  0.57950967  0.81770848  1
  Se  Se203  1  0.91334213  0.91989719  0.30152781  1
  Se  Se204  1  0.91154681  0.91332559  0.81303893  1
  Se  Se205  1  0.07594744  0.07817610  0.30860919  1
  Se  Se206  1  0.08657959  0.09562961  0.81375726  1
  Se  Se207  1  0.08047563  0.41137189  0.29722582  1
  Se  Se208  1  0.07292541  0.41384960  0.80104302  1
  Se  Se209  1  0.08149095  0.75069432  0.31117911  1
  Se  Se210  1  0.08534494  0.77023171  0.81471222  1
  Se  Se211  1  0.41879373  0.08754974  0.30062685  1
  Se  Se212  1  0.40994459  0.08029872  0.79008003  1
  Se  Se213  1  0.42617080  0.42053781  0.31044650  1
  Se  Se214  1  0.42325928  0.42012093  0.81585035  1
  Se  Se215  1  0.41631536  0.74681141  0.29976050  1
  Se  Se216  1  0.42767655  0.75996875  0.81829848  1
  Se  Se217  1  0.75284804  0.08792918  0.31274784  1
  Se  Se218  1  0.76533790  0.08213366  0.80649703  1
  Se  Se219  1  0.74702136  0.41377763  0.29616302  1
  Se  Se220  1  0.74176200  0.41420334  0.80705601  1
  Se  Se221  1  0.75140754  0.75622104  0.30303682  1
  Se  Se222  1  0.75423118  0.74645301  0.80780778  1
  Se  Se223  1  0.24988531  0.08079296  0.20062830  1
  Se  Se224  1  0.24631425  0.08793386  0.69420795  1
  Se  Se225  1  0.24756663  0.42022719  0.18597348  1
  Se  Se226  1  0.24059703  0.42234941  0.68968238  1
  Se  Se227  1  0.24616743  0.75543363  0.20047269  1
  Se  Se228  1  0.24321071  0.75372533  0.69332904  1
  Se  Se229  1  0.58124228  0.09510546  0.18764889  1
  Se  Se230  1  0.60011142  0.06377557  0.69643473  1
  Se  Se231  1  0.59041140  0.41977957  0.19324104  1
  Se  Se232  1  0.57679666  0.41843543  0.69415098  1
  Se  Se233  1  0.57590115  0.76495989  0.19029883  1
  Se  Se234  1  0.58767406  0.74452746  0.70000470  1
  Se  Se235  1  0.91371999  0.07705459  0.19668134  1
  Se  Se236  1  0.90232036  0.09335329  0.69410379  1
  Se  Se237  1  0.92038019  0.40998098  0.19361415  1
  Se  Se238  1  0.91150287  0.41920492  0.70245277  1
  Se  Se239  1  0.90940189  0.75488883  0.18265322  1
  Se  Se240  1  0.91905917  0.75343084  0.69123727  1
  Se  Se241  1  0.08058450  0.24671168  0.20234309  1
  Se  Se242  1  0.07286331  0.25282171  0.69741853  1
  Se  Se243  1  0.09185601  0.57403947  0.18402637  1
  Se  Se244  1  0.07698169  0.58239648  0.69254074  1
  Se  Se245  1  0.07441057  0.91137627  0.19287205  1
  Se  Se246  1  0.08623689  0.91826334  0.68924723  1
  Se  Se247  1  0.42433899  0.24699969  0.18577597  1
  Se  Se248  1  0.42108454  0.24525361  0.68612641  1
  Se  Se249  1  0.41973427  0.58481089  0.19866102  1
  Se  Se250  1  0.41756427  0.57826269  0.69551561  1
  Se  Se251  1  0.41874469  0.92721234  0.20519138  1
  Se  Se252  1  0.41281160  0.91028999  0.70030483  1
  Se  Se253  1  0.74899277  0.24857437  0.19698795  1
  Se  Se254  1  0.71705459  0.26217838  0.70180510  1
  Se  Se255  1  0.76397250  0.58018607  0.17998354  1
  Se  Se256  1  0.74635543  0.58597536  0.69729636  1
  Se  Se257  1  0.75346405  0.91848927  0.18786061  1
  Se  Se258  1  0.75731868  0.91126628  0.69662122  1
