# generated using pymatgen
data_In86Cu29Se144
_symmetry_space_group_name_H-M   'P 1'
_cell_length_a   17.58058377
_cell_length_b   17.58020927
_cell_length_c   23.43684998
_cell_angle_alpha   89.99545535
_cell_angle_beta   89.97430567
_cell_angle_gamma   90.01141503
_symmetry_Int_Tables_number   1
_chemical_formula_structural   In86Cu29Se144
_chemical_formula_sum   'In86 Cu29 Se144'
_cell_volume   7243.63433818
_cell_formula_units_Z   1
loop_
 _symmetry_equiv_pos_site_id
 _symmetry_equiv_pos_as_xyz
  1  'x, y, z'
loop_
 _atom_site_type_symbol
 _atom_site_label
 _atom_site_symmetry_multiplicity
 _atom_site_fract_x
 _atom_site_fract_y
 _atom_site_fract_z
 _atom_site_occupancy
  In  In0  1  0.00344306  0.16611373  0.13366407  1
  In  In1  1  -0.01306602  0.16570326  0.61898412  1
  In  In2  1  -0.00031392  0.48190809  0.12863471  1
  In  In3  1  -0.00016383  0.50255968  0.61556841  1
  In  In4  1  0.02006716  0.83479236  0.12703628  1
  In  In5  1  0.00536157  0.83696693  0.61425763  1
  In  In6  1  0.32062882  0.15108403  0.11688227  1
  In  In7  1  0.34222456  0.17260492  0.63188573  1
  In  In8  1  0.34937589  0.51650163  0.11869459  1
  In  In9  1  0.34277797  0.49591833  0.62904737  1
  In  In10  1  0.33381581  0.83312311  0.12776306  1
  In  In11  1  0.32006187  0.81619766  0.62108711  1
  In  In12  1  0.67195273  0.16843739  0.11543059  1
  In  In13  1  0.67438762  0.15468167  0.62842005  1
  In  In14  1  0.65755881  0.51245083  0.12967939  1
  In  In15  1  0.66769394  0.51003728  0.62071776  1
  In  In16  1  0.65087466  0.82522264  0.12136290  1
  In  In17  1  0.66175890  0.83409815  0.62170746  1
  In  In18  1  0.15356384  -0.00542854  0.36261408  1
  In  In19  1  0.17358934  -0.00420379  0.88732924  1
  In  In20  1  0.15556617  0.33416565  0.36364251  1
  In  In21  1  0.17327598  0.32771804  0.88488967  1
  In  In22  1  0.18419499  0.66724347  0.37085038  1
  In  In23  1  0.17361746  0.66002135  0.88439061  1
  In  In24  1  0.48545898  -0.00317119  0.37237430  1
  In  In25  1  0.51075583  -0.01102263  0.88237948  1
  In  In26  1  0.50692350  0.33302578  0.37651269  1
  In  In27  1  0.49110164  0.34913757  0.88491650  1
  In  In28  1  0.50235939  0.66471901  0.37407316  1
  In  In29  1  0.50096623  0.67467258  0.87603350  1
  In  In30  1  0.83813621  -0.00335666  0.37759202  1
  In  In31  1  0.82756480  0.01394400  0.87347423  1
  In  In32  1  0.85031398  0.32275524  0.39572888  1
  In  In33  1  0.82371874  0.32191961  0.87279712  1
  In  In34  1  0.82055117  0.67555607  0.38137101  1
  In  In35  1  0.82343494  0.67348998  0.87094027  1
  In  In36  1  -0.00991168  0.15996785  0.35879811  1
  In  In37  1  -0.00021277  0.16621374  0.88397237  1
  In  In38  1  -0.00722259  0.48323519  0.37316374  1
  In  In39  1  0.00510193  0.50970133  0.87918430  1
  In  In40  1  -0.00745690  0.84126010  0.37938715  1
  In  In41  1  0.00113781  0.84294685  0.87996015  1
  In  In42  1  0.33518833  0.15941085  0.36374929  1
  In  In43  1  0.32596904  0.17655343  0.88530997  1
  In  In44  1  0.33706781  0.51255060  0.36845174  1
  In  In45  1  0.33461434  0.50460913  0.87702816  1
  In  In46  1  0.33506548  0.83116218  0.37871998  1
  In  In47  1  0.33706477  0.82736375  0.87810715  1
  In  In48  1  0.67518625  0.17839256  0.37403772  1
  In  In49  1  0.67428112  0.15749324  0.88357254  1
  In  In50  1  0.65615277  0.50880925  0.38231657  1
  In  In51  1  0.65341644  0.50623338  0.87744667  1
  In  In52  1  0.67227593  0.82398652  0.37994192  1
  In  In53  1  0.65025967  0.82316761  0.85935027  1
  In  In54  1  0.17181043  0.00150569  0.13227818  1
  In  In55  1  0.17677572  -0.01148309  0.62873148  1
  In  In56  1  0.15893462  0.32561687  0.11738608  1
  In  In57  1  0.17143624  0.34145808  0.62833909  1
  In  In58  1  0.18598857  0.68114133  0.11531552  1
  In  In59  1  0.17470707  0.67836579  0.62565318  1
  In  In60  1  0.48894357  -0.01470705  0.11604031  1
  In  In61  1  0.51289688  0.00106374  0.62719026  1
  In  In62  1  0.50792253  0.33915743  0.11557239  1
  In  In63  1  0.48502494  0.33291847  0.62792323  1
  In  In64  1  0.49514292  0.66087030  0.12852704  1
  In  In65  1  0.49713623  0.66894045  0.62542323  1
  In  In66  1  0.83727853  0.01496976  0.13112093  1
  In  In67  1  0.82973566  -0.00850042  0.61727404  1
  In  In68  1  0.84650737  0.32510436  0.13044994  1
  In  In69  1  0.82887231  0.33180923  0.61263345  1
  In  In70  1  0.82323284  0.65838711  0.13170634  1
  In  In71  1  0.82301667  0.66124256  0.61771892  1
  In  In72  1  0.16084823  0.16246212  0.48679575  1
  In  In73  1  0.16303915  0.50113292  0.49205834  1
  In  In74  1  0.00348050  0.33015631  0.75246516  1
  In  In75  1  0.00249883  0.66994418  0.74486539  1
  In  In76  1  0.83069910  0.83454296  0.00171027  1
  In  In77  1  0.00054641  -0.00400747  0.74483125  1
  In  In78  1  0.34146360  -0.00368580  0.76323994  1
  In  In79  1  0.50582521  0.16638153  0.50200478  1
  In  In80  1  0.66725246  -0.00305434  0.25037263  1
  In  In81  1  0.83499052  0.48973094  -0.00114005  1
  In  In82  1  0.33096690  0.33240507  0.24082497  1
  In  In83  1  0.67278018  0.33871017  0.24615161  1
  In  In84  1  0.00101631  0.66560851  0.24656351  1
  In  In85  1  0.66191495  0.33324507  0.74622334  1
  Cu  Cu86  1  0.49909879  0.83525857  0.74796669  1
  Cu  Cu87  1  0.82917266  0.50085614  0.74122953  1
  Cu  Cu88  1  0.66661513  0.33979039  0.49980829  1
  Cu  Cu89  1  0.33436966  0.33938828  0.00409595  1
  Cu  Cu90  1  0.65974145  0.67004179  0.50159960  1
  Cu  Cu91  1  0.00272420  0.32421254  0.00584711  1
  Cu  Cu92  1  0.00313495  0.00347359  0.49305012  1
  Cu  Cu93  1  0.33911515  0.66599593  0.49728599  1
  Cu  Cu94  1  0.67066454  0.33031748  -0.00022274  1
  Cu  Cu95  1  0.00567727  0.66377892  0.00567831  1
  Cu  Cu96  1  0.50150869  0.17587324  0.75613542  1
  Cu  Cu97  1  0.32888873  0.33502218  0.50146179  1
  Cu  Cu98  1  0.16830430  0.50158026  0.24394356  1
  Cu  Cu99  1  0.49640222  0.15985248  0.24018374  1
  Cu  Cu100  1  0.16878759  0.16867755  0.75886327  1
  Cu  Cu101  1  0.34065046  0.66945271  -0.00077155  1
  Cu  Cu102  1  0.33307540  0.00040297  0.00294415  1
  Cu  Cu103  1  0.33347551  -0.01200900  0.50021493  1
  Cu  Cu104  1  0.00642157  0.00380364  0.00630903  1
  Cu  Cu105  1  0.49450137  0.82380625  0.24850024  1
  Cu  Cu106  1  0.83312811  0.83730069  0.25542567  1
  Cu  Cu107  1  0.17363031  0.83495511  0.25062670  1
  Cu  Cu108  1  0.66908726  -0.00085208  0.49945088  1
  Cu  Cu109  1  0.82254086  0.49882939  0.25771498  1
  Cu  Cu110  1  0.17954119  0.50138344  0.75213055  1
  Cu  Cu111  1  0.49410058  0.51140971  0.75578429  1
  Cu  Cu112  1  -0.00270564  0.66988318  0.49600682  1
  Cu  Cu113  1  0.66741068  -0.00282292  0.00089246  1
  Cu  Cu114  1  0.82233885  0.83636418  0.74265353  1
  Se  Se115  1  0.08746189  0.08438737  0.06310509  1
  Se  Se116  1  0.08347701  0.07400544  0.56132805  1
  Se  Se117  1  0.08197536  0.41874265  0.05019736  1
  Se  Se118  1  0.08002921  0.40388054  0.55277396  1
  Se  Se119  1  0.08881742  0.75423729  0.05072835  1
  Se  Se120  1  0.08583498  0.74424348  0.55207539  1
  Se  Se121  1  0.42078502  0.08482234  0.05140359  1
  Se  Se122  1  0.40831716  0.07624602  0.55891244  1
  Se  Se123  1  0.42246826  0.42353711  0.05093966  1
  Se  Se124  1  0.41567405  0.41574765  0.55230816  1
  Se  Se125  1  0.41823238  0.75136539  0.05901444  1
  Se  Se126  1  0.41714318  0.75187234  0.55322916  1
  Se  Se127  1  0.75479677  0.07831821  0.05220725  1
  Se  Se128  1  0.75252593  0.08476896  0.55070028  1
  Se  Se129  1  0.74625299  0.40883813  0.06690717  1
  Se  Se130  1  0.74879096  0.42538860  0.55244960  1
  Se  Se131  1  0.74295650  0.73733178  0.05641534  1
  Se  Se132  1  0.74725453  0.75360544  0.55245285  1
  Se  Se133  1  0.25162401  0.25022100  0.05219705  1
  Se  Se134  1  0.25190946  0.24810703  0.55725724  1
  Se  Se135  1  0.25399093  0.58378768  0.04927566  1
  Se  Se136  1  0.25508277  0.58351375  0.55654161  1
  Se  Se137  1  0.25082547  0.91825774  0.05973370  1
  Se  Se138  1  0.24577012  0.90902718  0.55250087  1
  Se  Se139  1  0.58327580  0.24692275  0.04949340  1
  Se  Se140  1  0.59149032  0.25804537  0.56514608  1
  Se  Se141  1  0.57793534  0.58230665  0.05579193  1
  Se  Se142  1  0.57636113  0.58457496  0.55410874  1
  Se  Se143  1  0.58153793  0.91117291  0.04860632  1
  Se  Se144  1  0.58081374  0.91947656  0.55094142  1
  Se  Se145  1  0.91819900  0.24169298  0.05733580  1
  Se  Se146  1  0.92221080  0.25601878  0.54996120  1
  Se  Se147  1  0.92094791  0.58502369  0.06233066  1
  Se  Se148  1  0.91643965  0.58659544  0.55125475  1
  Se  Se149  1  0.92356881  0.92018798  0.06335486  1
  Se  Se150  1  0.92048145  0.91899205  0.54830625  1
  Se  Se151  1  0.07101760  0.25689547  0.43547755  1
  Se  Se152  1  0.08810602  0.24352952  0.95044744  1
  Se  Se153  1  0.07486810  0.59258218  0.43116722  1
  Se  Se154  1  0.08775745  0.57844286  0.95342673  1
  Se  Se155  1  0.08784167  0.91765559  0.44380120  1
  Se  Se156  1  0.08430090  0.91521294  0.95269059  1
  Se  Se157  1  0.40734059  0.24986759  0.44098272  1
  Se  Se158  1  0.41773228  0.25429175  0.95050095  1
  Se  Se159  1  0.41888275  0.57957554  0.44475411  1
  Se  Se160  1  0.42156071  0.58605731  0.94385615  1
  Se  Se161  1  0.42290098  0.91106628  0.44850160  1
  Se  Se162  1  0.41347811  0.91703786  0.94606828  1
  Se  Se163  1  0.74775742  0.24750004  0.45404696  1
  Se  Se164  1  0.75650833  0.24515749  0.95140208  1
  Se  Se165  1  0.74582006  0.58618614  0.44999207  1
  Se  Se166  1  0.74747881  0.58797921  0.94473919  1
  Se  Se167  1  0.75168268  0.91565680  0.44432623  1
  Se  Se168  1  0.74369823  0.91787205  0.93591903  1
  Se  Se169  1  0.25975044  0.07161650  0.43767516  1
  Se  Se170  1  0.24848801  0.08702222  0.95265810  1
  Se  Se171  1  0.25420023  0.40841377  0.43326992  1
  Se  Se172  1  0.25181216  0.42099355  0.94723946  1
  Se  Se173  1  0.24977759  0.74825265  0.44849997  1
  Se  Se174  1  0.25137115  0.75183158  0.94965630  1
  Se  Se175  1  0.59010321  0.07788579  0.43564664  1
  Se  Se176  1  0.58241854  0.08285816  0.95009072  1
  Se  Se177  1  0.57681625  0.41730285  0.44937227  1
  Se  Se178  1  0.58814077  0.41914078  0.95147833  1
  Se  Se179  1  0.57791212  0.75231100  0.44612064  1
  Se  Se180  1  0.58491975  0.75901222  0.94307015  1
  Se  Se181  1  0.92011197  0.08782565  0.44128108  1
  Se  Se182  1  0.91856837  0.07632627  0.94762773  1
  Se  Se183  1  0.91057619  0.43147037  0.45438368  1
  Se  Se184  1  0.92716721  0.40082495  0.93679059  1
  Se  Se185  1  0.91214364  0.75477125  0.44601314  1
  Se  Se186  1  0.92310628  0.73890725  0.94310769  1
  Se  Se187  1  0.24133516  0.24228578  0.30109331  1
  Se  Se188  1  0.25193568  0.25471001  0.80782447  1
  Se  Se189  1  0.25278301  0.58447580  0.29518401  1
  Se  Se190  1  0.25336732  0.58981472  0.80701152  1
  Se  Se191  1  0.25554472  0.91594386  0.30752017  1
  Se  Se192  1  0.23974940  0.90812183  0.81043182  1
  Se  Se193  1  0.57498004  0.24031812  0.30130506  1
  Se  Se194  1  0.58055367  0.25344083  0.81905865  1
  Se  Se195  1  0.58584557  0.58368410  0.30488396  1
  Se  Se196  1  0.58415091  0.59099695  0.80440154  1
  Se  Se197  1  0.57556679  0.90633477  0.30864933  1
  Se  Se198  1  0.58127479  0.92510664  0.79712883  1
  Se  Se199  1  0.91039179  0.26365898  0.30701101  1
  Se  Se200  1  0.91152914  0.23615807  0.80595056  1
  Se  Se201  1  0.90902516  0.58319513  0.31112569  1
  Se  Se202  1  0.91007512  0.57698278  0.80527623  1
  Se  Se203  1  0.91937957  0.92039964  0.30301341  1
  Se  Se204  1  0.90536352  0.90845286  0.80646166  1
  Se  Se205  1  0.09393836  0.09648391  0.29875387  1
  Se  Se206  1  0.08863943  0.08302101  0.81239809  1
  Se  Se207  1  0.08036664  0.42317829  0.29552204  1
  Se  Se208  1  0.09168554  0.42508700  0.80993028  1
  Se  Se209  1  0.08765902  0.75526678  0.30978054  1
  Se  Se210  1  0.08453198  0.75094516  0.81551696  1
  Se  Se211  1  0.41598011  0.07679005  0.29482275  1
  Se  Se212  1  0.42564829  0.09419475  0.81935700  1
  Se  Se213  1  0.42109060  0.41515980  0.30699124  1
  Se  Se214  1  0.41581455  0.42023810  0.80599737  1
  Se  Se215  1  0.41268551  0.74597056  0.30814444  1
  Se  Se216  1  0.41699253  0.75309088  0.80335346  1
  Se  Se217  1  0.75676730  0.08953818  0.30715340  1
  Se  Se218  1  0.74441988  0.08745528  0.80250617  1
  Se  Se219  1  0.75095991  0.41618207  0.32166211  1
  Se  Se220  1  0.75366514  0.42500753  0.80799095  1
  Se  Se221  1  0.74837085  0.75043715  0.30204296  1
  Se  Se222  1  0.74588887  0.74684312  0.79579436  1
  Se  Se223  1  0.25645092  0.08329266  0.20017917  1
  Se  Se224  1  0.24868261  0.08732760  0.69787345  1
  Se  Se225  1  0.24715599  0.42530690  0.17965145  1
  Se  Se226  1  0.25756889  0.41364724  0.69830020  1
  Se  Se227  1  0.25407490  0.74796316  0.19911604  1
  Se  Se228  1  0.25233837  0.74584102  0.70302428  1
  Se  Se229  1  0.58148685  0.08172931  0.18286498  1
  Se  Se230  1  0.57893931  0.09218498  0.69909964  1
  Se  Se231  1  0.57054311  0.42449091  0.19710537  1
  Se  Se232  1  0.57094279  0.42885768  0.69192696  1
  Se  Se233  1  0.58306740  0.74436682  0.19764477  1
  Se  Se234  1  0.58209905  0.75194124  0.69324913  1
  Se  Se235  1  0.92377868  0.08011145  0.20298290  1
  Se  Se236  1  0.90630038  0.08588839  0.69155796  1
  Se  Se237  1  0.90784844  0.42039317  0.20201562  1
  Se  Se238  1  0.91441009  0.41993334  0.68869218  1
  Se  Se239  1  0.91039321  0.75951976  0.18864422  1
  Se  Se240  1  0.91030543  0.75908824  0.68519639  1
  Se  Se241  1  0.07129421  0.27080724  0.19428466  1
  Se  Se242  1  0.09026617  0.23746680  0.68919875  1
  Se  Se243  1  0.09089863  0.58366408  0.18133637  1
  Se  Se244  1  0.09299868  0.57180683  0.68939587  1
  Se  Se245  1  0.08593113  0.91831221  0.20221938  1
  Se  Se246  1  0.09374447  0.89889086  0.69589255  1
  Se  Se247  1  0.42319571  0.24502349  0.18050260  1
  Se  Se248  1  0.41298102  0.25575471  0.70580551  1
  Se  Se249  1  0.41008875  0.58763861  0.20197338  1
  Se  Se250  1  0.41169135  0.58999586  0.69671261  1
  Se  Se251  1  0.41796920  0.91582527  0.19758563  1
  Se  Se252  1  0.41678116  0.91428830  0.68740662  1
  Se  Se253  1  0.75706206  0.23594445  0.19509084  1
  Se  Se254  1  0.76102418  0.24736484  0.69268786  1
  Se  Se255  1  0.74197331  0.58350856  0.20451733  1
  Se  Se256  1  0.74513769  0.58858958  0.69536113  1
  Se  Se257  1  0.75321403  0.90699102  0.18586557  1
  Se  Se258  1  0.74243332  0.92257204  0.69033129  1
