# generated using pymatgen
data_In86Cu29Se144
_symmetry_space_group_name_H-M   'P 1'
_cell_length_a   17.58379526
_cell_length_b   17.59316024
_cell_length_c   23.44351830
_cell_angle_alpha   90.04232653
_cell_angle_beta   90.00820748
_cell_angle_gamma   89.99531864
_symmetry_Int_Tables_number   1
_chemical_formula_structural   In86Cu29Se144
_chemical_formula_sum   'In86 Cu29 Se144'
_cell_volume   7252.35645437
_cell_formula_units_Z   1
loop_
 _symmetry_equiv_pos_site_id
 _symmetry_equiv_pos_as_xyz
  1  'x, y, z'
loop_
 _atom_site_type_symbol
 _atom_site_label
 _atom_site_symmetry_multiplicity
 _atom_site_fract_x
 _atom_site_fract_y
 _atom_site_fract_z
 _atom_site_occupancy
  In  In0  1  -0.00163805  0.17054052  0.12239763  1
  In  In1  1  -0.01044686  0.17368851  0.63145488  1
  In  In2  1  0.00107419  0.48928702  0.13729520  1
  In  In3  1  -0.00859797  0.50239550  0.62800776  1
  In  In4  1  -0.03285472  0.86809553  0.15936705  1
  In  In5  1  0.01027366  0.82929911  0.61848192  1
  In  In6  1  0.34183863  0.17831358  0.11646545  1
  In  In7  1  0.32864542  0.15587296  0.62443672  1
  In  In8  1  0.31752465  0.49720789  0.12400071  1
  In  In9  1  0.32762374  0.50011390  0.62684604  1
  In  In10  1  0.33817540  0.83190884  0.12525113  1
  In  In11  1  0.34251350  0.84391080  0.61510747  1
  In  In12  1  0.66803698  0.16561784  0.12437583  1
  In  In13  1  0.67505324  0.17922269  0.61421959  1
  In  In14  1  0.67709882  0.50367832  0.14275248  1
  In  In15  1  0.67730207  0.49000029  0.62996581  1
  In  In16  1  0.69449207  0.81901590  0.15136332  1
  In  In17  1  0.65658224  0.83167815  0.61989896  1
  In  In18  1  0.15258868  -0.00883430  0.36988335  1
  In  In19  1  0.17135436  0.00490295  0.86936957  1
  In  In20  1  0.16210595  0.33460281  0.36617506  1
  In  In21  1  0.14887782  0.34251418  0.88235315  1
  In  In22  1  0.15895722  0.68320852  0.38248735  1
  In  In23  1  0.15297526  0.66199968  0.87853371  1
  In  In24  1  0.50726548  -0.00843304  0.38303006  1
  In  In25  1  0.50063346  0.01372694  0.87153793  1
  In  In26  1  0.50159128  0.32971964  0.36978355  1
  In  In27  1  0.50161037  0.32039609  0.87445427  1
  In  In28  1  0.51690928  0.66712291  0.38430678  1
  In  In29  1  0.51075975  0.66285682  0.87268115  1
  In  In30  1  0.84501695  0.00359900  0.36559014  1
  In  In31  1  0.84092584  -0.00625764  0.88041355  1
  In  In32  1  0.83004120  0.33099922  0.37034461  1
  In  In33  1  0.82442753  0.32207732  0.87274803  1
  In  In34  1  0.81958935  0.66598067  0.36462584  1
  In  In35  1  0.83451683  0.67567934  0.87933685  1
  In  In36  1  -0.00848706  0.15768263  0.36715830  1
  In  In37  1  -0.00336929  0.16638326  0.87931783  1
  In  In38  1  -0.02166685  0.49123680  0.35889292  1
  In  In39  1  0.01435315  0.49441498  0.87976261  1
  In  In40  1  -0.00537466  0.83609828  0.36688656  1
  In  In41  1  -0.01561774  0.82847896  0.87661884  1
  In  In42  1  0.33532912  0.17931030  0.37312323  1
  In  In43  1  0.33708838  0.16028666  0.87877327  1
  In  In44  1  0.34377625  0.49722558  0.37285992  1
  In  In45  1  0.32457620  0.49031890  0.87590338  1
  In  In46  1  0.33619041  0.82379139  0.39262256  1
  In  In47  1  0.31768992  0.83751003  0.87001918  1
  In  In48  1  0.66916220  0.16673265  0.37316516  1
  In  In49  1  0.65753714  0.16833377  0.88302586  1
  In  In50  1  0.68864785  0.51320515  0.35429628  1
  In  In51  1  0.67557949  0.50125562  0.86861184  1
  In  In52  1  0.66207146  0.82811502  0.36787768  1
  In  In53  1  0.67991917  0.83000042  0.87640532  1
  In  In54  1  0.15156518  0.00377326  0.12162177  1
  In  In55  1  0.17009892  -0.00070980  0.63204282  1
  In  In56  1  0.16542419  0.33381511  0.12531540  1
  In  In57  1  0.16497914  0.32280785  0.63160934  1
  In  In58  1  0.15634512  0.65229120  0.12089684  1
  In  In59  1  0.15257164  0.67221160  0.61558057  1
  In  In60  1  0.50652628  0.01362246  0.12007215  1
  In  In61  1  0.49439775  -0.00367988  0.61663368  1
  In  In62  1  0.51129623  0.32389036  0.13208087  1
  In  In63  1  0.51968488  0.34229241  0.62055876  1
  In  In64  1  0.51640970  0.67534600  0.12984214  1
  In  In65  1  0.50469984  0.68352687  0.61838184  1
  In  In66  1  0.82823644  0.00606690  0.12714635  1
  In  In67  1  0.83238308  0.01488805  0.62353428  1
  In  In68  1  0.84147783  0.33000108  0.13508506  1
  In  In69  1  0.83408259  0.33182210  0.62301134  1
  In  In70  1  0.83105487  0.68033254  0.14212625  1
  In  In71  1  0.83790094  0.64578450  0.61585775  1
  In  In72  1  0.83351405  0.49894574  0.00814560  1
  In  In73  1  0.50978433  0.50268043  0.49340076  1
  In  In74  1  0.66815746  0.00365057  0.74762642  1
  In  In75  1  0.15756085  0.50480234  0.50250463  1
  In  In76  1  -0.00274143  0.66364734  0.74750097  1
  In  In77  1  0.33364426  0.00094956  0.24370356  1
  In  In78  1  0.33453044  0.66158267  0.25286439  1
  In  In79  1  0.83035718  0.82746073  0.48934344  1
  In  In80  1  0.15711351  0.83083614  0.00003612  1
  In  In81  1  0.33330061  0.67155771  0.74661963  1
  In  In82  1  0.50635523  0.49467575  0.01385962  1
  In  In83  1  0.50795633  0.84083215  -0.00256370  1
  In  In84  1  0.16399240  0.16025566  0.49843704  1
  In  In85  1  0.33343019  0.32534411  0.75147295  1
  Cu  Cu86  1  0.32449860  0.32935429  -0.00334820  1
  Cu  Cu87  1  -0.00136455  0.33348839  0.00781335  1
  Cu  Cu88  1  0.33208898  0.00181734  0.50120225  1
  Cu  Cu89  1  0.49637315  0.49504935  0.25170912  1
  Cu  Cu90  1  -0.00975272  0.33253999  0.49699001  1
  Cu  Cu91  1  0.51112608  0.83281606  0.25734313  1
  Cu  Cu92  1  0.49916633  0.83930161  0.74175653  1
  Cu  Cu93  1  0.50371793  0.16374769  0.24842468  1
  Cu  Cu94  1  0.83659462  0.49240425  0.74959278  1
  Cu  Cu95  1  -0.00970190  0.00269487  0.00462328  1
  Cu  Cu96  1  0.67196388  -0.00154811  0.00252065  1
  Cu  Cu97  1  0.33810389  0.65518427  0.00026619  1
  Cu  Cu98  1  0.16497673  0.84290520  0.74415360  1
  Cu  Cu99  1  0.16859687  0.83121068  0.25298285  1
  Cu  Cu100  1  0.66283400  0.32767306  0.00253188  1
  Cu  Cu101  1  0.34016340  0.33417582  0.49315439  1
  Cu  Cu102  1  -0.00231823  -0.00297635  0.49451520  1
  Cu  Cu103  1  -0.00522576  0.67013530  0.00670228  1
  Cu  Cu104  1  0.15755113  0.16520794  0.75500720  1
  Cu  Cu105  1  0.50387201  0.16849997  0.74951146  1
  Cu  Cu106  1  0.16355626  0.17293046  0.24701787  1
  Cu  Cu107  1  0.66754675  0.00741999  0.49778747  1
  Cu  Cu108  1  0.67424067  0.33399715  0.49511069  1
  Cu  Cu109  1  0.83660301  0.16892775  0.75056635  1
  Cu  Cu110  1  0.32820325  0.00688312  -0.00205232  1
  Cu  Cu111  1  0.16609823  0.49575255  0.25013913  1
  Cu  Cu112  1  0.83259667  0.83036133  0.75167572  1
  Cu  Cu113  1  0.50988562  0.50137485  0.74784456  1
  Cu  Cu114  1  0.83388399  0.16879956  0.24721877  1
  Se  Se115  1  0.07963755  0.08754376  0.04984737  1
  Se  Se116  1  0.07268689  0.07652662  0.56040961  1
  Se  Se117  1  0.08051512  0.42028990  0.05876572  1
  Se  Se118  1  0.07742587  0.40209057  0.55980361  1
  Se  Se119  1  0.07103483  0.75346533  0.06818031  1
  Se  Se120  1  0.07351186  0.74558216  0.54279452  1
  Se  Se121  1  0.41678760  0.08417774  0.05071942  1
  Se  Se122  1  0.41531373  0.08828541  0.55120794  1
  Se  Se123  1  0.40719410  0.40349830  0.06203412  1
  Se  Se124  1  0.41308698  0.41575687  0.55671518  1
  Se  Se125  1  0.41646975  0.74021176  0.05585142  1
  Se  Se126  1  0.41245399  0.74853236  0.55055864  1
  Se  Se127  1  0.75231195  0.08722457  0.05297963  1
  Se  Se128  1  0.75425682  0.08876332  0.54879547  1
  Se  Se129  1  0.73922550  0.40875781  0.06450914  1
  Se  Se130  1  0.75422503  0.41700162  0.55273604  1
  Se  Se131  1  0.75088788  0.74843202  0.06542907  1
  Se  Se132  1  0.74741474  0.74240705  0.55816323  1
  Se  Se133  1  0.24268143  0.24802345  0.05328212  1
  Se  Se134  1  0.25670040  0.25749602  0.55448658  1
  Se  Se135  1  0.24599517  0.58043561  0.05031060  1
  Se  Se136  1  0.25756034  0.59197510  0.55674099  1
  Se  Se137  1  0.25579428  0.92096076  0.05804833  1
  Se  Se138  1  0.24467136  0.92323983  0.55534492  1
  Se  Se139  1  0.57838364  0.24370022  0.05396319  1
  Se  Se140  1  0.58400012  0.25484047  0.54626553  1
  Se  Se141  1  0.60134465  0.58859235  0.06313145  1
  Se  Se142  1  0.59291330  0.58423031  0.56323906  1
  Se  Se143  1  0.59662621  0.91691412  0.06579346  1
  Se  Se144  1  0.58618589  0.92091088  0.55029493  1
  Se  Se145  1  0.90941647  0.25225702  0.05574445  1
  Se  Se146  1  0.91411057  0.24525610  0.55300625  1
  Se  Se147  1  0.92045141  0.58771067  0.06939658  1
  Se  Se148  1  0.93598768  0.58542491  0.54911004  1
  Se  Se149  1  0.91524446  0.91663357  0.06251553  1
  Se  Se150  1  0.91471283  0.91980500  0.55632934  1
  Se  Se151  1  0.07659491  0.25381962  0.43956640  1
  Se  Se152  1  0.07847632  0.25004889  0.94988221  1
  Se  Se153  1  0.07306799  0.57539341  0.42842263  1
  Se  Se154  1  0.07786350  0.58573764  0.95388408  1
  Se  Se155  1  0.07825880  0.91061155  0.44306372  1
  Se  Se156  1  0.07133027  0.92405357  0.94019187  1
  Se  Se157  1  0.42370466  0.24906344  0.44463858  1
  Se  Se158  1  0.41493893  0.25027625  0.94616160  1
  Se  Se159  1  0.40859845  0.59298574  0.44359678  1
  Se  Se160  1  0.41948987  0.57829380  0.94055151  1
  Se  Se161  1  0.41856228  0.91692032  0.45191987  1
  Se  Se162  1  0.40617793  0.92283925  0.93836954  1
  Se  Se163  1  0.75476371  0.24588405  0.44370100  1
  Se  Se164  1  0.74830647  0.24675563  0.94913116  1
  Se  Se165  1  0.74299465  0.58766123  0.43885579  1
  Se  Se166  1  0.74557983  0.58747617  0.94519075  1
  Se  Se167  1  0.74634126  0.92823137  0.43537909  1
  Se  Se168  1  0.75290996  0.91394582  0.94800032  1
  Se  Se169  1  0.25379206  0.07479869  0.43405584  1
  Se  Se170  1  0.24250199  0.08646951  0.94503330  1
  Se  Se171  1  0.25139812  0.41326521  0.44111437  1
  Se  Se172  1  0.24280145  0.41884877  0.94899110  1
  Se  Se173  1  0.24292896  0.75043557  0.45572703  1
  Se  Se174  1  0.25657752  0.73934974  0.94332714  1
  Se  Se175  1  0.58218421  0.08940894  0.44473684  1
  Se  Se176  1  0.58174443  0.07684402  0.95016848  1
  Se  Se177  1  0.59677476  0.41418056  0.43257154  1
  Se  Se178  1  0.58928048  0.41254976  0.94108438  1
  Se  Se179  1  0.58973928  0.75880998  0.44874926  1
  Se  Se180  1  0.59468765  0.74039698  0.94574351  1
  Se  Se181  1  0.91567173  0.08363398  0.44434823  1
  Se  Se182  1  0.91012363  0.08684461  0.94906060  1
  Se  Se183  1  0.91184843  0.41563937  0.44096740  1
  Se  Se184  1  0.91800341  0.41014798  0.94292050  1
  Se  Se185  1  0.92131053  0.73730071  0.43304290  1
  Se  Se186  1  0.91189136  0.75318812  0.95409600  1
  Se  Se187  1  0.24980500  0.25134962  0.30155012  1
  Se  Se188  1  0.24003997  0.24572919  0.81534860  1
  Se  Se189  1  0.24074387  0.57784707  0.31424774  1
  Se  Se190  1  0.24366093  0.58245209  0.80839174  1
  Se  Se191  1  0.25563324  0.90698108  0.31070998  1
  Se  Se192  1  0.25155208  0.92326174  0.79676598  1
  Se  Se193  1  0.58583024  0.24778052  0.30207383  1
  Se  Se194  1  0.58906137  0.24812222  0.80356748  1
  Se  Se195  1  0.57495810  0.58349224  0.30460709  1
  Se  Se196  1  0.59160309  0.58592057  0.80152218  1
  Se  Se197  1  0.58764051  0.92690236  0.30437404  1
  Se  Se198  1  0.57992891  0.91127561  0.80955685  1
  Se  Se199  1  0.91899059  0.25109423  0.30139078  1
  Se  Se200  1  0.91917244  0.25082149  0.80644215  1
  Se  Se201  1  0.89053686  0.57290365  0.29282047  1
  Se  Se202  1  0.91186325  0.57439317  0.81384376  1
  Se  Se203  1  0.92685591  0.92439513  0.29456930  1
  Se  Se204  1  0.91502531  0.91495723  0.80344612  1
  Se  Se205  1  0.08652335  0.08475070  0.30093582  1
  Se  Se206  1  0.07500977  0.08070921  0.80772555  1
  Se  Se207  1  0.07662497  0.41295006  0.29848788  1
  Se  Se208  1  0.08482948  0.42014499  0.80232390  1
  Se  Se209  1  0.08227655  0.74826886  0.30232944  1
  Se  Se210  1  0.08897287  0.76012239  0.80632948  1
  Se  Se211  1  0.42135507  0.08529732  0.30919346  1
  Se  Se212  1  0.41591510  0.08776772  0.80028890  1
  Se  Se213  1  0.41267077  0.40999524  0.30156495  1
  Se  Se214  1  0.42616401  0.42329352  0.80728620  1
  Se  Se215  1  0.42190702  0.75483087  0.31244351  1
  Se  Se216  1  0.42461980  0.76064961  0.80970309  1
  Se  Se217  1  0.75326858  0.08578087  0.30332673  1
  Se  Se218  1  0.75529948  0.08900383  0.81222621  1
  Se  Se219  1  0.73635589  0.39655411  0.29945200  1
  Se  Se220  1  0.75039014  0.41067439  0.80250799  1
  Se  Se221  1  0.76435607  0.77301492  0.30073667  1
  Se  Se222  1  0.75109845  0.74465905  0.80279290  1
  Se  Se223  1  0.24413348  0.09276603  0.18551194  1
  Se  Se224  1  0.24643164  0.08889290  0.70048834  1
  Se  Se225  1  0.25064382  0.41281770  0.19816241  1
  Se  Se226  1  0.24277552  0.42189149  0.69728504  1
  Se  Se227  1  0.24521702  0.75159163  0.18981545  1
  Se  Se228  1  0.24209516  0.75806452  0.68483296  1
  Se  Se229  1  0.58771614  0.08101798  0.19616193  1
  Se  Se230  1  0.58097928  0.09076856  0.68407503  1
  Se  Se231  1  0.58419270  0.41605188  0.19909476  1
  Se  Se232  1  0.59187403  0.41153115  0.70064897  1
  Se  Se233  1  0.59193084  0.74238107  0.20892788  1
  Se  Se234  1  0.58471928  0.75178907  0.69669279  1
  Se  Se235  1  0.91915992  0.08743309  0.19297782  1
  Se  Se236  1  0.91684835  0.08023372  0.69973556  1
  Se  Se237  1  0.90335045  0.42598049  0.20430062  1
  Se  Se238  1  0.91894085  0.41106785  0.69497316  1
  Se  Se239  1  0.94221438  0.73663856  0.20124669  1
  Se  Se240  1  0.90924340  0.75301495  0.68587595  1
  Se  Se241  1  0.07861243  0.25421623  0.19357381  1
  Se  Se242  1  0.07814614  0.25003793  0.70076013  1
  Se  Se243  1  0.08346958  0.58248425  0.20053069  1
  Se  Se244  1  0.09503871  0.57733423  0.69192027  1
  Se  Se245  1  0.09268124  0.92354353  0.20187696  1
  Se  Se246  1  0.07408965  0.91874437  0.69257520  1
  Se  Se247  1  0.41728556  0.24658336  0.19668777  1
  Se  Se248  1  0.42631125  0.24737481  0.68477909  1
  Se  Se249  1  0.42361445  0.57665483  0.18601552  1
  Se  Se250  1  0.42719228  0.57916248  0.68911183  1
  Se  Se251  1  0.43261679  0.90743289  0.19145336  1
  Se  Se252  1  0.41410187  0.92310883  0.69286385  1
  Se  Se253  1  0.74621133  0.24971415  0.19539874  1
  Se  Se254  1  0.75215026  0.24744529  0.69369068  1
  Se  Se255  1  0.76132888  0.58430043  0.21003868  1
  Se  Se256  1  0.75850873  0.58050919  0.69555819  1
  Se  Se257  1  0.75575388  0.92815076  0.20525341  1
  Se  Se258  1  0.75589042  0.91053839  0.68769937  1
