# generated using pymatgen
data_In86Cu29Se144
_symmetry_space_group_name_H-M   'P 1'
_cell_length_a   17.57385778
_cell_length_b   17.57667741
_cell_length_c   23.43271337
_cell_angle_alpha   89.97676396
_cell_angle_beta   90.01002373
_cell_angle_gamma   89.98714595
_symmetry_Int_Tables_number   1
_chemical_formula_structural   In86Cu29Se144
_chemical_formula_sum   'In86 Cu29 Se144'
_cell_volume   7238.13062528
_cell_formula_units_Z   1
loop_
 _symmetry_equiv_pos_site_id
 _symmetry_equiv_pos_as_xyz
  1  'x, y, z'
loop_
 _atom_site_type_symbol
 _atom_site_label
 _atom_site_symmetry_multiplicity
 _atom_site_fract_x
 _atom_site_fract_y
 _atom_site_fract_z
 _atom_site_occupancy
  In  In0  1  -0.04175591  0.19879930  0.16429874  1
  In  In1  1  -0.00593090  0.16842062  0.62427227  1
  In  In2  1  -0.01297483  0.48533292  0.11331695  1
  In  In3  1  -0.00897127  0.50683312  0.63064977  1
  In  In4  1  0.00834895  0.83491516  0.13473552  1
  In  In5  1  -0.00826805  0.82946923  0.61935820  1
  In  In6  1  0.34736265  0.18401249  0.13412337  1
  In  In7  1  0.32938838  0.16106039  0.60954573  1
  In  In8  1  0.33476883  0.50318926  0.13053130  1
  In  In9  1  0.35153390  0.50722703  0.61774284  1
  In  In10  1  0.31935789  0.83088558  0.13571999  1
  In  In11  1  0.32812369  0.81742805  0.61037174  1
  In  In12  1  0.67627209  0.17669421  0.12684618  1
  In  In13  1  0.67054435  0.17087933  0.62392175  1
  In  In14  1  0.65072251  0.48423896  0.10939625  1
  In  In15  1  0.65870423  0.49388989  0.61744198  1
  In  In16  1  0.65443256  0.83820932  0.12475533  1
  In  In17  1  0.67903686  0.83612778  0.61262270  1
  In  In18  1  0.15859103  0.00756402  0.38537041  1
  In  In19  1  0.16151020  -0.00505999  0.87496663  1
  In  In20  1  0.15418951  0.32127031  0.36716675  1
  In  In21  1  0.17122770  0.35328955  0.87596627  1
  In  In22  1  0.18743453  0.66483105  0.38142957  1
  In  In23  1  0.16142209  0.65479980  0.86202550  1
  In  In24  1  0.49999195  0.00302033  0.38309963  1
  In  In25  1  0.51803165  -0.00598733  0.86592642  1
  In  In26  1  0.50371193  0.33145276  0.37172241  1
  In  In27  1  0.51699851  0.33283265  0.87542547  1
  In  In28  1  0.48924480  0.66918113  0.39480492  1
  In  In29  1  0.49358145  0.66203642  0.86432503  1
  In  In30  1  0.83770168  0.00154280  0.37877275  1
  In  In31  1  0.83038565  0.01500974  0.87240781  1
  In  In32  1  0.83564566  0.33019676  0.37495352  1
  In  In33  1  0.83589682  0.33364114  0.86976757  1
  In  In34  1  0.82284371  0.66567790  0.39586323  1
  In  In35  1  0.82880159  0.64716484  0.86751400  1
  In  In36  1  -0.00138051  0.16818924  0.37516528  1
  In  In37  1  -0.02488304  0.17021607  0.87838792  1
  In  In38  1  -0.00734743  0.48659616  0.37113982  1
  In  In39  1  0.00163894  0.49368567  0.86945930  1
  In  In40  1  -0.00791518  0.84458713  0.38462083  1
  In  In41  1  0.01406949  0.83075734  0.87004822  1
  In  In42  1  0.33288016  0.16760209  0.37585670  1
  In  In43  1  0.33176176  0.16997254  0.87207062  1
  In  In44  1  0.34042507  0.50706463  0.36895192  1
  In  In45  1  0.32805838  0.50680242  0.87982279  1
  In  In46  1  0.34161980  0.81593698  0.39523018  1
  In  In47  1  0.34739744  0.81036717  0.86850068  1
  In  In48  1  0.66369623  0.18021126  0.37481616  1
  In  In49  1  0.71044765  0.19744394  0.82482125  1
  In  In50  1  0.67410417  0.48871424  0.38616336  1
  In  In51  1  0.68223409  0.47916058  0.89287309  1
  In  In52  1  0.65915398  0.83289843  0.39516751  1
  In  In53  1  0.65598941  0.84908288  0.85927470  1
  In  In54  1  0.15666465  -0.01066908  0.13107906  1
  In  In55  1  0.16712183  0.00165280  0.61539794  1
  In  In56  1  0.15966279  0.34509132  0.12919620  1
  In  In57  1  0.16328793  0.32229858  0.62143594  1
  In  In58  1  0.17951834  0.66864146  0.13162505  1
  In  In59  1  0.16147806  0.66954620  0.62711470  1
  In  In60  1  0.50672502  0.00174495  0.12883855  1
  In  In61  1  0.50875121  0.00659923  0.61416350  1
  In  In62  1  0.49095577  0.34116441  0.14161717  1
  In  In63  1  0.51199404  0.33933113  0.61883033  1
  In  In64  1  0.50412360  0.65331972  0.13114093  1
  In  In65  1  0.50226117  0.66002527  0.60882986  1
  In  In66  1  0.82468262  0.02887931  0.13308025  1
  In  In67  1  0.82813327  0.00162453  0.62221272  1
  In  In68  1  0.83204296  0.34218857  0.12813720  1
  In  In69  1  0.82834127  0.32982367  0.62744292  1
  In  In70  1  0.84587785  0.65280172  0.12850775  1
  In  In71  1  0.84046244  0.67378932  0.61611840  1
  In  In72  1  0.66702686  0.65966786  0.26387886  1
  In  In73  1  0.33730225  -0.00613745  0.73733730  1
  In  In74  1  0.00341874  0.65972336  0.25362832  1
  In  In75  1  0.66418131  0.66351781  0.74306759  1
  In  In76  1  0.83347777  0.82340067  0.00164028  1
  In  In77  1  -0.00925372  -0.00009119  0.73958079  1
  In  In78  1  0.33723603  0.34286523  0.74174051  1
  In  In79  1  0.51027797  0.16854306  0.00155414  1
  In  In80  1  0.16765347  0.49573129  0.49667859  1
  In  In81  1  0.32746760  0.00074101  0.26365491  1
  In  In82  1  0.16298322  0.82822701  0.00029247  1
  In  In83  1  0.14979261  0.17102323  0.01713013  1
  In  In84  1  0.67040289  0.01104897  0.25993579  1
  In  In85  1  0.49709769  0.82236808  -0.01272634  1
  Cu  Cu86  1  0.67037748  0.00985227  -0.00782768  1
  Cu  Cu87  1  0.16847041  0.49745735  0.25021777  1
  Cu  Cu88  1  -0.00247349  0.32712014  0.00189764  1
  Cu  Cu89  1  0.50442901  0.50438444  0.74602786  1
  Cu  Cu90  1  0.16920089  0.50499561  0.74804111  1
  Cu  Cu91  1  0.16796174  0.16065513  0.25485465  1
  Cu  Cu92  1  0.16808616  0.82889383  0.26127505  1
  Cu  Cu93  1  0.49085565  0.82751169  0.26342362  1
  Cu  Cu94  1  0.34026691  0.34536980  0.00508608  1
  Cu  Cu95  1  0.83015679  0.84182602  0.25948665  1
  Cu  Cu96  1  0.33755078  -0.00032978  0.49671931  1
  Cu  Cu97  1  0.66972312  0.66102115  -0.00097189  1
  Cu  Cu98  1  -0.00020827  0.00745588  0.50256087  1
  Cu  Cu99  1  -0.01809760  0.00752598  0.01049342  1
  Cu  Cu100  1  0.67321261  0.00913206  0.49886109  1
  Cu  Cu101  1  0.15353787  0.17112489  0.74871462  1
  Cu  Cu102  1  0.83625784  0.83137383  0.73985329  1
  Cu  Cu103  1  0.49849998  0.49968194  0.25350824  1
  Cu  Cu104  1  0.33602184  0.66032271  0.00572784  1
  Cu  Cu105  1  0.33458990  0.33257616  0.49415295  1
  Cu  Cu106  1  0.00363196  0.65495201  -0.00971230  1
  Cu  Cu107  1  0.17568730  0.82588047  0.74610539  1
  Cu  Cu108  1  0.33244038  0.00787763  -0.00575746  1
  Cu  Cu109  1  0.82671784  0.49554144  0.25279838  1
  Cu  Cu110  1  0.00363620  0.66580024  0.50101162  1
  Cu  Cu111  1  0.66859448  0.32961416  0.50011060  1
  Cu  Cu112  1  0.50183815  0.16380850  0.73841268  1
  Cu  Cu113  1  0.83705445  0.49591967  0.74871374  1
  Cu  Cu114  1  -0.01022306  0.33166642  0.49736327  1
  Se  Se115  1  0.06409985  0.07835325  0.07423730  1
  Se  Se116  1  0.08320333  0.09191962  0.55512798  1
  Se  Se117  1  0.08461760  0.41341947  0.04852380  1
  Se  Se118  1  0.07245212  0.41177955  0.55795172  1
  Se  Se119  1  0.07213613  0.73626090  0.05991053  1
  Se  Se120  1  0.08363198  0.75077809  0.55469646  1
  Se  Se121  1  0.41041697  0.07944025  0.06047960  1
  Se  Se122  1  0.42263811  0.08659875  0.54540266  1
  Se  Se123  1  0.42257807  0.42206687  0.06321172  1
  Se  Se124  1  0.41742890  0.41113182  0.55125129  1
  Se  Se125  1  0.40997396  0.74911296  0.06520848  1
  Se  Se126  1  0.41903520  0.74553050  0.54310290  1
  Se  Se127  1  0.74679676  0.09044454  0.05180095  1
  Se  Se128  1  0.75559037  0.09201953  0.55298683  1
  Se  Se129  1  0.76458801  0.43106695  0.05519859  1
  Se  Se130  1  0.75093357  0.41290228  0.55486118  1
  Se  Se131  1  0.73963143  0.73852369  0.06700076  1
  Se  Se132  1  0.75657658  0.74829728  0.54614246  1
  Se  Se133  1  0.25969733  0.25758002  0.06058178  1
  Se  Se134  1  0.24699904  0.25203101  0.54731120  1
  Se  Se135  1  0.24822155  0.58252486  0.05882627  1
  Se  Se136  1  0.25185755  0.58743833  0.55740484  1
  Se  Se137  1  0.25657181  0.92403869  0.05671450  1
  Se  Se138  1  0.25210202  0.91889077  0.55068380  1
  Se  Se139  1  0.58469111  0.26459028  0.06599945  1
  Se  Se140  1  0.58266479  0.24537479  0.55195705  1
  Se  Se141  1  0.57703908  0.58645791  0.05014510  1
  Se  Se142  1  0.59252761  0.58097511  0.54314131  1
  Se  Se143  1  0.58405788  0.92594224  0.04683039  1
  Se  Se144  1  0.59070353  0.92013866  0.54767481  1
  Se  Se145  1  0.91891348  0.25062254  0.06418195  1
  Se  Se146  1  0.91004561  0.24861564  0.55451583  1
  Se  Se147  1  0.91522683  0.58156118  0.04745209  1
  Se  Se148  1  0.91943228  0.58034307  0.55126368  1
  Se  Se149  1  0.91212169  0.91468870  0.06898138  1
  Se  Se150  1  0.91681357  0.92288211  0.55532635  1
  Se  Se151  1  0.08013203  0.25146759  0.44724543  1
  Se  Se152  1  0.08053412  0.25324662  0.93692602  1
  Se  Se153  1  0.07561120  0.58540266  0.43518747  1
  Se  Se154  1  0.08995517  0.57559387  0.93835815  1
  Se  Se155  1  0.08257020  0.91822073  0.45346221  1
  Se  Se156  1  0.06559071  0.92884831  0.95028364  1
  Se  Se157  1  0.41976430  0.24891270  0.44226418  1
  Se  Se158  1  0.40962370  0.25691068  0.94305425  1
  Se  Se159  1  0.40138684  0.57790442  0.45238308  1
  Se  Se160  1  0.41968724  0.58805484  0.94357762  1
  Se  Se161  1  0.42550212  0.91336486  0.45075917  1
  Se  Se162  1  0.40867530  0.92446948  0.93311401  1
  Se  Se163  1  0.75435843  0.24899021  0.44660016  1
  Se  Se164  1  0.74051518  0.24627496  0.92575948  1
  Se  Se165  1  0.73614609  0.58351429  0.45799984  1
  Se  Se166  1  0.75974462  0.58043719  0.95043864  1
  Se  Se167  1  0.75457599  0.92047761  0.44835011  1
  Se  Se168  1  0.74408181  0.91457040  0.93939532  1
  Se  Se169  1  0.25262049  0.08616781  0.44732217  1
  Se  Se170  1  0.24264409  0.08771159  0.94363431  1
  Se  Se171  1  0.25122797  0.40664218  0.43277647  1
  Se  Se172  1  0.25201996  0.42261864  0.95190124  1
  Se  Se173  1  0.23489048  0.75750195  0.45754366  1
  Se  Se174  1  0.25448429  0.73882437  0.94081481  1
  Se  Se175  1  0.58928367  0.08848504  0.44280999  1
  Se  Se176  1  0.59284375  0.08845371  0.93108861  1
  Se  Se177  1  0.57936434  0.41049839  0.44843980  1
  Se  Se178  1  0.57541426  0.41791145  0.95250984  1
  Se  Se179  1  0.58973665  0.73649758  0.45793978  1
  Se  Se180  1  0.59910814  0.74103785  0.93132328  1
  Se  Se181  1  0.91683301  0.08809450  0.44716636  1
  Se  Se182  1  0.90261723  0.08810652  0.95281471  1
  Se  Se183  1  0.90951177  0.42072812  0.44718182  1
  Se  Se184  1  0.92212749  0.41090787  0.94076781  1
  Se  Se185  1  0.91792876  0.75128526  0.45107362  1
  Se  Se186  1  0.92471954  0.74191065  0.93441257  1
  Se  Se187  1  0.25144433  0.24685281  0.30402585  1
  Se  Se188  1  0.24457727  0.25053958  0.80235754  1
  Se  Se189  1  0.24889154  0.58419576  0.30143827  1
  Se  Se190  1  0.26079298  0.58299990  0.79886761  1
  Se  Se191  1  0.24702707  0.90627896  0.32450776  1
  Se  Se192  1  0.25011090  0.90869725  0.80884709  1
  Se  Se193  1  0.59603691  0.26422803  0.30020746  1
  Se  Se194  1  0.57652154  0.25115675  0.79517403  1
  Se  Se195  1  0.57281241  0.57506303  0.32135697  1
  Se  Se196  1  0.59084218  0.56999273  0.81222076  1
  Se  Se197  1  0.58026839  0.90896947  0.31341323  1
  Se  Se198  1  0.56370623  0.90597789  0.78561074  1
  Se  Se199  1  0.93186315  0.26353033  0.30631698  1
  Se  Se200  1  0.91497065  0.24825460  0.79927961  1
  Se  Se201  1  0.89955675  0.58393626  0.31309066  1
  Se  Se202  1  0.92196951  0.58073069  0.79925054  1
  Se  Se203  1  0.92007814  0.92190991  0.30664686  1
  Se  Se204  1  0.91033375  0.90855380  0.80998309  1
  Se  Se205  1  0.08305700  0.08040630  0.30782131  1
  Se  Se206  1  0.08000812  0.08532710  0.80894339  1
  Se  Se207  1  0.08096134  0.41622864  0.30058784  1
  Se  Se208  1  0.08872292  0.41577591  0.79812071  1
  Se  Se209  1  0.08328754  0.74954754  0.31991118  1
  Se  Se210  1  0.08440548  0.74726225  0.79653168  1
  Se  Se211  1  0.43046757  0.08992939  0.30710768  1
  Se  Se212  1  0.41950787  0.08946557  0.80301854  1
  Se  Se213  1  0.41489233  0.41374029  0.30401053  1
  Se  Se214  1  0.42477001  0.42399899  0.80908008  1
  Se  Se215  1  0.41225327  0.74096476  0.31519298  1
  Se  Se216  1  0.43809537  0.75870699  0.79327700  1
  Se  Se217  1  0.76648868  0.10064256  0.31055632  1
  Se  Se218  1  0.72514270  0.05361525  0.80296812  1
  Se  Se219  1  0.74596429  0.41285912  0.30789401  1
  Se  Se220  1  0.74866523  0.42170117  0.80457889  1
  Se  Se221  1  0.75342586  0.76013862  0.31876693  1
  Se  Se222  1  0.75647293  0.75530285  0.80583757  1
  Se  Se223  1  0.24849458  0.08572938  0.18913497  1
  Se  Se224  1  0.23988312  0.09369042  0.69070775  1
  Se  Se225  1  0.25332101  0.41498388  0.19714166  1
  Se  Se226  1  0.24423239  0.42875411  0.68031504  1
  Se  Se227  1  0.25152020  0.74548703  0.20944607  1
  Se  Se228  1  0.25808667  0.74386780  0.69241035  1
  Se  Se229  1  0.57981162  0.09601478  0.19478784  1
  Se  Se230  1  0.58769637  0.08023714  0.69017955  1
  Se  Se231  1  0.58916932  0.42488541  0.19905423  1
  Se  Se232  1  0.58553814  0.41676460  0.69538423  1
  Se  Se233  1  0.57715422  0.75508538  0.20089605  1
  Se  Se234  1  0.58482777  0.75173593  0.67731194  1
  Se  Se235  1  0.93383403  0.06171375  0.20017597  1
  Se  Se236  1  0.89648690  0.09760987  0.69541557  1
  Se  Se237  1  0.91914680  0.42201021  0.19886974  1
  Se  Se238  1  0.91805175  0.41094624  0.69485666  1
  Se  Se239  1  0.90741289  0.75647854  0.19962781  1
  Se  Se240  1  0.92150205  0.74462029  0.69408109  1
  Se  Se241  1  0.09329785  0.24446955  0.19407437  1
  Se  Se242  1  0.07464286  0.25474292  0.69428627  1
  Se  Se243  1  0.08510352  0.57322622  0.18623742  1
  Se  Se244  1  0.08167214  0.58531610  0.69611168  1
  Se  Se245  1  0.08514071  0.91232458  0.20921384  1
  Se  Se246  1  0.09294844  0.91081004  0.68935838  1
  Se  Se247  1  0.42541836  0.24761760  0.21176377  1
  Se  Se248  1  0.41625990  0.24250894  0.68228075  1
  Se  Se249  1  0.41536892  0.58676089  0.20280005  1
  Se  Se250  1  0.42619434  0.58893534  0.69095150  1
  Se  Se251  1  0.42133366  0.91181712  0.19793755  1
  Se  Se252  1  0.42044957  0.90918067  0.67349411  1
  Se  Se253  1  0.77249320  0.23851046  0.19518139  1
  Se  Se254  1  0.73703422  0.25887637  0.69915062  1
  Se  Se255  1  0.74861037  0.57722850  0.19214005  1
  Se  Se256  1  0.75838685  0.57644071  0.68475663  1
  Se  Se257  1  0.74973542  0.91397011  0.19261630  1
  Se  Se258  1  0.75069739  0.91458869  0.69144333  1
