# generated using pymatgen
data_In86Cu29Se144
_symmetry_space_group_name_H-M   'P 1'
_cell_length_a   17.57920197
_cell_length_b   17.57805615
_cell_length_c   23.44324505
_cell_angle_alpha   90.01600028
_cell_angle_beta   90.02249448
_cell_angle_gamma   90.01176390
_symmetry_Int_Tables_number   1
_chemical_formula_structural   In86Cu29Se144
_chemical_formula_sum   'In86 Cu29 Se144'
_cell_volume   7244.15394104
_cell_formula_units_Z   1
loop_
 _symmetry_equiv_pos_site_id
 _symmetry_equiv_pos_as_xyz
  1  'x, y, z'
loop_
 _atom_site_type_symbol
 _atom_site_label
 _atom_site_symmetry_multiplicity
 _atom_site_fract_x
 _atom_site_fract_y
 _atom_site_fract_z
 _atom_site_occupancy
  In  In0  1  -0.00706482  0.15024594  0.10360659  1
  In  In1  1  -0.00134049  0.16049142  0.61356187  1
  In  In2  1  0.01502559  0.50152716  0.12370320  1
  In  In3  1  0.00224750  0.50253940  0.61965839  1
  In  In4  1  -0.02007349  0.83145337  0.12105156  1
  In  In5  1  -0.01722082  0.83840941  0.62672187  1
  In  In6  1  0.34376167  0.17065877  0.11448768  1
  In  In7  1  0.32508341  0.18032787  0.63480967  1
  In  In8  1  0.32717533  0.50718912  0.12886423  1
  In  In9  1  0.32366885  0.50917427  0.63470478  1
  In  In10  1  0.33563424  0.81729366  0.12195684  1
  In  In11  1  0.32426350  0.82317783  0.63120341  1
  In  In12  1  0.66645396  0.15942068  0.12676483  1
  In  In13  1  0.67317585  0.15848400  0.62899225  1
  In  In14  1  0.66042132  0.50433889  0.13227459  1
  In  In15  1  0.67822803  0.50230154  0.62190999  1
  In  In16  1  0.67109672  0.83053242  0.12380859  1
  In  In17  1  0.67194594  0.82882420  0.62744642  1
  In  In18  1  0.17075330  0.01196529  0.37803461  1
  In  In19  1  0.17478059  0.01682889  0.88070754  1
  In  In20  1  0.16843905  0.33089701  0.37579492  1
  In  In21  1  0.18267957  0.32185927  0.87748523  1
  In  In22  1  0.15914144  0.65845242  0.37138233  1
  In  In23  1  0.15991914  0.65331127  0.87256492  1
  In  In24  1  0.51037479  -0.00974771  0.37300299  1
  In  In25  1  0.50676897  -0.01416392  0.88946592  1
  In  In26  1  0.49925622  0.33237267  0.36270046  1
  In  In27  1  0.48711765  0.34260535  0.87715361  1
  In  In28  1  0.50074622  0.66477695  0.36513687  1
  In  In29  1  0.50896877  0.67407331  0.86239869  1
  In  In30  1  0.81764545  0.01276842  0.39236875  1
  In  In31  1  0.82846753  0.00634019  0.88164794  1
  In  In32  1  0.83222700  0.33785815  0.37735728  1
  In  In33  1  0.82355601  0.32258066  0.87790278  1
  In  In34  1  0.83425217  0.66912222  0.37570667  1
  In  In35  1  0.83483488  0.68014351  0.87426747  1
  In  In36  1  -0.00496948  0.16454737  0.38419215  1
  In  In37  1  0.00248733  0.16119977  0.88490541  1
  In  In38  1  -0.00858674  0.51185079  0.38412383  1
  In  In39  1  0.00038187  0.51498855  0.87222379  1
  In  In40  1  -0.00451971  0.82007433  0.37230639  1
  In  In41  1  0.00339755  0.82011427  0.87584097  1
  In  In42  1  0.31978180  0.17679703  0.37165511  1
  In  In43  1  0.32701629  0.18045221  0.88428894  1
  In  In44  1  0.32789276  0.49129368  0.37051471  1
  In  In45  1  0.33181251  0.48550071  0.86528924  1
  In  In46  1  0.34533565  0.83139447  0.37235834  1
  In  In47  1  0.34926772  0.83471326  0.88180351  1
  In  In48  1  0.66931721  0.16965878  0.36861475  1
  In  In49  1  0.67793993  0.15333905  0.88325835  1
  In  In50  1  0.67766738  0.50927292  0.36663451  1
  In  In51  1  0.65434951  0.52005863  0.87502414  1
  In  In52  1  0.68077943  0.84333851  0.36482081  1
  In  In53  1  0.66334649  0.83336590  0.87717564  1
  In  In54  1  0.15529939  0.00786963  0.11847327  1
  In  In55  1  0.15328714  0.00627752  0.62343874  1
  In  In56  1  0.17239352  0.33776883  0.12211551  1
  In  In57  1  0.16420246  0.33447959  0.62098467  1
  In  In58  1  0.17603516  0.65886504  0.12933113  1
  In  In59  1  0.16997879  0.65590972  0.63322347  1
  In  In60  1  0.51072722  0.01016370  0.11172243  1
  In  In61  1  0.51528557  0.00726365  0.63002646  1
  In  In62  1  0.50739022  0.32310981  0.13150798  1
  In  In63  1  0.49468666  0.32140661  0.63167968  1
  In  In64  1  0.50044643  0.66938077  0.12341894  1
  In  In65  1  0.50176014  0.66047779  0.63917953  1
  In  In66  1  0.82746762  -0.01805626  0.11419418  1
  In  In67  1  0.82206469  -0.01506287  0.60546781  1
  In  In68  1  0.83137981  0.31899564  0.12779318  1
  In  In69  1  0.83017356  0.33597840  0.61478578  1
  In  In70  1  0.82450761  0.67645650  0.13417620  1
  In  In71  1  0.83208862  0.66872693  0.62516608  1
  In  In72  1  0.33873601  -0.00198440  0.76043141  1
  In  In73  1  0.49987861  0.49773263  0.50287331  1
  In  In74  1  0.16430004  0.83958642  -0.00230390  1
  In  In75  1  0.83464018  0.49844775  -0.00460671  1
  In  In76  1  -0.00269570  -0.00085155  0.75294092  1
  In  In77  1  0.65812208  0.34316727  0.75443040  1
  In  In78  1  0.00001032  0.33489596  0.74004085  1
  In  In79  1  0.00033341  0.33478180  0.24669068  1
  In  In80  1  0.16029749  0.83532894  0.50062605  1
  In  In81  1  -0.00447493  -0.00597425  0.24752056  1
  In  In82  1  0.50463742  0.83111128  0.50471131  1
  In  In83  1  0.33906912  -0.00131556  0.24650029  1
  In  In84  1  0.49908756  0.50502342  0.00098461  1
  In  In85  1  0.50331893  0.16801662  0.49684557  1
  Cu  Cu86  1  0.67622677  0.67338009  0.49652285  1
  Cu  Cu87  1  0.49893120  0.16261663  0.24291562  1
  Cu  Cu88  1  0.00159737  0.33475849  0.49854669  1
  Cu  Cu89  1  0.66462288  0.32520309  0.00565065  1
  Cu  Cu90  1  0.82978365  0.83002988  0.25004458  1
  Cu  Cu91  1  0.00638876  0.33405310  0.00217514  1
  Cu  Cu92  1  -0.00133400  0.66637920  -0.00112214  1
  Cu  Cu93  1  0.50361159  0.83822900  0.75695154  1
  Cu  Cu94  1  0.82651899  0.51477343  0.75113411  1
  Cu  Cu95  1  0.32574068  0.65961637  0.50313880  1
  Cu  Cu96  1  0.16738497  0.82236664  0.75620224  1
  Cu  Cu97  1  0.66818558  -0.00525718  0.00147680  1
  Cu  Cu98  1  0.33284104  0.65914791  -0.00048515  1
  Cu  Cu99  1  0.82401838  0.83261489  0.74782735  1
  Cu  Cu100  1  0.50336789  0.16465459  0.75693449  1
  Cu  Cu101  1  0.16873539  0.82649406  0.24892792  1
  Cu  Cu102  1  0.32251108  0.33818478  0.50175713  1
  Cu  Cu103  1  0.16699118  0.50541142  0.25012240  1
  Cu  Cu104  1  0.33133791  0.01248225  0.50377842  1
  Cu  Cu105  1  0.16531098  0.17513910  0.24518274  1
  Cu  Cu106  1  0.49793099  0.49830031  0.24549416  1
  Cu  Cu107  1  0.16336250  0.49449305  0.74820081  1
  Cu  Cu108  1  0.67142298  0.33527478  0.49355284  1
  Cu  Cu109  1  0.50525549  0.82899323  0.24592765  1
  Cu  Cu110  1  0.33277012  0.33655629  0.00024748  1
  Cu  Cu111  1  -0.00363750  0.66735494  0.50190922  1
  Cu  Cu112  1  0.83370215  0.50218329  0.25608493  1
  Cu  Cu113  1  0.82665054  0.15911385  0.24925698  1
  Cu  Cu114  1  0.83469635  0.16284735  0.75000373  1
  Se  Se115  1  0.09868874  0.09342973  0.04112118  1
  Se  Se116  1  0.08537560  0.08108856  0.54616963  1
  Se  Se117  1  0.08951705  0.41945766  0.05163492  1
  Se  Se118  1  0.08400326  0.41836980  0.55226716  1
  Se  Se119  1  0.08091952  0.74488979  0.06138809  1
  Se  Se120  1  0.07800585  0.74398027  0.56511957  1
  Se  Se121  1  0.40817395  0.07342127  0.04882199  1
  Se  Se122  1  0.41460907  0.08530771  0.56596517  1
  Se  Se123  1  0.41483488  0.41218960  0.06330695  1
  Se  Se124  1  0.40901903  0.40924240  0.56298745  1
  Se  Se125  1  0.41846192  0.74365478  0.04846071  1
  Se  Se126  1  0.40951738  0.73875683  0.56060788  1
  Se  Se127  1  0.75005623  0.08089471  0.05538954  1
  Se  Se128  1  0.75549672  0.09611668  0.55314093  1
  Se  Se129  1  0.74422724  0.41254102  0.06114249  1
  Se  Se130  1  0.75070430  0.42261337  0.54667965  1
  Se  Se131  1  0.77046905  0.76437634  0.05702023  1
  Se  Se132  1  0.75514888  0.75577479  0.55362851  1
  Se  Se133  1  0.24994257  0.25135763  0.05301487  1
  Se  Se134  1  0.24793737  0.24622946  0.55477309  1
  Se  Se135  1  0.24687043  0.57881790  0.05197484  1
  Se  Se136  1  0.24343121  0.57721793  0.55613958  1
  Se  Se137  1  0.25483303  0.91943615  0.06339944  1
  Se  Se138  1  0.25762695  0.92330154  0.56098374  1
  Se  Se139  1  0.58058474  0.24179281  0.05714629  1
  Se  Se140  1  0.59252611  0.25942548  0.55818420  1
  Se  Se141  1  0.59718192  0.59286717  0.05429444  1
  Se  Se142  1  0.58944531  0.59731518  0.55599884  1
  Se  Se143  1  0.58508983  0.90909809  0.05319866  1
  Se  Se144  1  0.59466937  0.92708283  0.55648450  1
  Se  Se145  1  0.91546610  0.25516274  0.05096781  1
  Se  Se146  1  0.91658821  0.25230647  0.55156257  1
  Se  Se147  1  0.91928547  0.58656884  0.06132496  1
  Se  Se148  1  0.91237873  0.58345839  0.55542025  1
  Se  Se149  1  0.94468918  0.94083127  0.05487552  1
  Se  Se150  1  0.93309125  0.92624163  0.54892486  1
  Se  Se151  1  0.08411889  0.25089995  0.44439119  1
  Se  Se152  1  0.08772738  0.25179471  0.94502082  1
  Se  Se153  1  0.08509315  0.58659680  0.45066009  1
  Se  Se154  1  0.08257234  0.57990614  0.95049000  1
  Se  Se155  1  0.07745972  0.92179442  0.43424751  1
  Se  Se156  1  0.07530816  0.92777452  0.93597211  1
  Se  Se157  1  0.40937485  0.26232001  0.44197334  1
  Se  Se158  1  0.42180399  0.25496727  0.95094623  1
  Se  Se159  1  0.41218608  0.58857581  0.44093566  1
  Se  Se160  1  0.41147621  0.58514028  0.93334560  1
  Se  Se161  1  0.41024762  0.92744616  0.44689746  1
  Se  Se162  1  0.41252015  0.91718951  0.95749279  1
  Se  Se163  1  0.75076270  0.24727386  0.44140885  1
  Se  Se164  1  0.75201372  0.24427580  0.95346920  1
  Se  Se165  1  0.75263456  0.58214927  0.44465209  1
  Se  Se166  1  0.74430201  0.59566887  0.94455949  1
  Se  Se167  1  0.74720036  0.90781360  0.44888465  1
  Se  Se168  1  0.75115547  0.91328814  0.94576139  1
  Se  Se169  1  0.25098674  0.09356385  0.44779666  1
  Se  Se170  1  0.27078636  0.07493103  0.94982716  1
  Se  Se171  1  0.24385238  0.42155905  0.44527965  1
  Se  Se172  1  0.25150013  0.41901982  0.94451265  1
  Se  Se173  1  0.25625988  0.74804352  0.44131733  1
  Se  Se174  1  0.25104583  0.74146874  0.93971626  1
  Se  Se175  1  0.59293114  0.07478763  0.44222047  1
  Se  Se176  1  0.58502681  0.08245703  0.95124533  1
  Se  Se177  1  0.58629354  0.41302116  0.43568424  1
  Se  Se178  1  0.59418535  0.41193528  0.94344939  1
  Se  Se179  1  0.58825814  0.74603488  0.43654730  1
  Se  Se180  1  0.57295762  0.75176362  0.94106417  1
  Se  Se181  1  0.91959029  0.07971029  0.45210666  1
  Se  Se182  1  0.90815072  0.09141447  0.94875573  1
  Se  Se183  1  0.91508633  0.41758610  0.44707142  1
  Se  Se184  1  0.92619104  0.40725808  0.93582973  1
  Se  Se185  1  0.91437435  0.75105470  0.44868258  1
  Se  Se186  1  0.91611543  0.75369892  0.95031293  1
  Se  Se187  1  0.24795256  0.25903461  0.29757037  1
  Se  Se188  1  0.25482971  0.24462101  0.80172644  1
  Se  Se189  1  0.25337938  0.58594789  0.30490277  1
  Se  Se190  1  0.24680446  0.57661829  0.80348947  1
  Se  Se191  1  0.24357330  0.91176901  0.30917715  1
  Se  Se192  1  0.24142403  0.90730158  0.81602763  1
  Se  Se193  1  0.58215984  0.24564069  0.29897519  1
  Se  Se194  1  0.58315637  0.24548698  0.81854108  1
  Se  Se195  1  0.58350522  0.58027974  0.29949262  1
  Se  Se196  1  0.57642290  0.57807556  0.79501580  1
  Se  Se197  1  0.58630615  0.91620031  0.29764527  1
  Se  Se198  1  0.58536684  0.92366466  0.80789161  1
  Se  Se199  1  0.91224723  0.24018672  0.30563523  1
  Se  Se200  1  0.91454349  0.24492965  0.80746330  1
  Se  Se201  1  0.91895077  0.58638035  0.30582814  1
  Se  Se202  1  0.91389395  0.59228900  0.80503124  1
  Se  Se203  1  0.90530895  0.91363982  0.31244669  1
  Se  Se204  1  0.90793765  0.90700810  0.81137348  1
  Se  Se205  1  0.08596079  0.09268361  0.30404848  1
  Se  Se206  1  0.09010927  0.09356027  0.80602731  1
  Se  Se207  1  0.08343412  0.42638044  0.31055646  1
  Se  Se208  1  0.08437298  0.41601365  0.81106221  1
  Se  Se209  1  0.08280559  0.74693218  0.30253339  1
  Se  Se210  1  0.07875593  0.73917892  0.80347020  1
  Se  Se211  1  0.42272795  0.08987808  0.31332434  1
  Se  Se212  1  0.42664231  0.08689810  0.82074735  1
  Se  Se213  1  0.41300136  0.41607920  0.29908147  1
  Se  Se214  1  0.42367547  0.41541533  0.79642233  1
  Se  Se215  1  0.41678951  0.74977517  0.29868017  1
  Se  Se216  1  0.41263441  0.75541507  0.80194574  1
  Se  Se217  1  0.74901350  0.07474587  0.30585836  1
  Se  Se218  1  0.75151191  0.08051794  0.80392908  1
  Se  Se219  1  0.75121420  0.41172836  0.30259369  1
  Se  Se220  1  0.75595090  0.42945557  0.81406243  1
  Se  Se221  1  0.74766757  0.74208307  0.30205687  1
  Se  Se222  1  0.74316752  0.75019238  0.80440340  1
  Se  Se223  1  0.24492323  0.08814980  0.18982443  1
  Se  Se224  1  0.24549246  0.07908907  0.69589481  1
  Se  Se225  1  0.24684437  0.41903509  0.19652384  1
  Se  Se226  1  0.24559089  0.41060914  0.69450868  1
  Se  Se227  1  0.25571849  0.74561470  0.19791960  1
  Se  Se228  1  0.25158408  0.74018728  0.70300187  1
  Se  Se229  1  0.58240894  0.07502124  0.19531761  1
  Se  Se230  1  0.59048013  0.08660700  0.70393315  1
  Se  Se231  1  0.58511794  0.41267394  0.19803856  1
  Se  Se232  1  0.57529055  0.42694196  0.68531821  1
  Se  Se233  1  0.58866653  0.74539357  0.19281007  1
  Se  Se234  1  0.58256299  0.75652758  0.69720798  1
  Se  Se235  1  0.90986732  0.08649116  0.18655570  1
  Se  Se236  1  0.91020701  0.08369791  0.68726496  1
  Se  Se237  1  0.90885038  0.42611102  0.18780167  1
  Se  Se238  1  0.90055731  0.42743328  0.69134706  1
  Se  Se239  1  0.92036586  0.74935558  0.20100683  1
  Se  Se240  1  0.91268376  0.75084970  0.69788683  1
  Se  Se241  1  0.07820268  0.24122314  0.18131558  1
  Se  Se242  1  0.08681787  0.23623723  0.68838693  1
  Se  Se243  1  0.08154279  0.58770568  0.19821808  1
  Se  Se244  1  0.07656654  0.57802581  0.69765754  1
  Se  Se245  1  0.09027888  0.90627557  0.18844737  1
  Se  Se246  1  0.09106981  0.90524724  0.69482992  1
  Se  Se247  1  0.41113942  0.24652823  0.19535338  1
  Se  Se248  1  0.41672658  0.24683388  0.70658662  1
  Se  Se249  1  0.41846287  0.58612323  0.19270145  1
  Se  Se250  1  0.41112753  0.58434547  0.70192408  1
  Se  Se251  1  0.42575260  0.90985497  0.18488229  1
  Se  Se252  1  0.42401822  0.91207163  0.68944062  1
  Se  Se253  1  0.74493539  0.24638426  0.19816177  1
  Se  Se254  1  0.75568314  0.25454754  0.69629625  1
  Se  Se255  1  0.74957876  0.58237188  0.19880291  1
  Se  Se256  1  0.74192423  0.59219446  0.69516281  1
  Se  Se257  1  0.75134461  0.91640384  0.19502285  1
  Se  Se258  1  0.75219886  0.92259668  0.69119551  1
