# generated using pymatgen
data_In86Cu29Se144
_symmetry_space_group_name_H-M   'P 1'
_cell_length_a   17.58780683
_cell_length_b   17.58883483
_cell_length_c   23.45470880
_cell_angle_alpha   90.00136448
_cell_angle_beta   90.00550799
_cell_angle_gamma   90.00981590
_symmetry_Int_Tables_number   1
_chemical_formula_structural   In86Cu29Se144
_chemical_formula_sum   'In86 Cu29 Se144'
_cell_volume   7255.69126024
_cell_formula_units_Z   1
loop_
 _symmetry_equiv_pos_site_id
 _symmetry_equiv_pos_as_xyz
  1  'x, y, z'
loop_
 _atom_site_type_symbol
 _atom_site_label
 _atom_site_symmetry_multiplicity
 _atom_site_fract_x
 _atom_site_fract_y
 _atom_site_fract_z
 _atom_site_occupancy
  In  In0  1  0.01431060  0.17556822  0.11533257  1
  In  In1  1  0.01059799  0.15529341  0.63302299  1
  In  In2  1  -0.01304487  0.49864181  0.11998950  1
  In  In3  1  -0.00260065  0.51280527  0.64026247  1
  In  In4  1  0.00531806  0.83904020  0.11526466  1
  In  In5  1  0.00084559  0.83561659  0.62572837  1
  In  In6  1  0.31857492  0.18446030  0.13780105  1
  In  In7  1  0.33055970  0.17394877  0.61652349  1
  In  In8  1  0.34740451  0.48893742  0.13938166  1
  In  In9  1  0.32932450  0.48689194  0.62726323  1
  In  In10  1  0.31593974  0.84493691  0.14582979  1
  In  In11  1  0.32997538  0.82816940  0.61565674  1
  In  In12  1  0.66642507  0.16014473  0.12246484  1
  In  In13  1  0.66224673  0.17599481  0.62197450  1
  In  In14  1  0.66741780  0.49975589  0.11587822  1
  In  In15  1  0.67142558  0.50519899  0.61882785  1
  In  In16  1  0.66759799  0.82576173  0.12359891  1
  In  In17  1  0.65861928  0.82202314  0.62003123  1
  In  In18  1  0.18492437  -0.01336067  0.38422304  1
  In  In19  1  0.16126618  0.00229925  0.88005311  1
  In  In20  1  0.16344032  0.32810811  0.37191435  1
  In  In21  1  0.16286376  0.32950601  0.86813129  1
  In  In22  1  0.17698546  0.66947182  0.37643253  1
  In  In23  1  0.16269851  0.67920538  0.87372090  1
  In  In24  1  0.48085597  0.01287220  0.38558547  1
  In  In25  1  0.50039122  -0.00034381  0.87313935  1
  In  In26  1  0.48540480  0.34042318  0.37667926  1
  In  In27  1  0.50341093  0.35338048  0.87287921  1
  In  In28  1  0.49631054  0.66617458  0.38208812  1
  In  In29  1  0.49837890  0.64446257  0.86482358  1
  In  In30  1  0.82541468  -0.00588607  0.37688692  1
  In  In31  1  0.85119062  -0.01350713  0.87969664  1
  In  In32  1  0.84757089  0.33575967  0.37580630  1
  In  In33  1  0.84550077  0.32478877  0.88246811  1
  In  In34  1  0.83421416  0.66481818  0.38415127  1
  In  In35  1  0.83561625  0.66434119  0.87050168  1
  In  In36  1  0.00497780  0.18262112  0.37323048  1
  In  In37  1  0.00519471  0.16575077  0.87438587  1
  In  In38  1  0.00361789  0.48743334  0.37893930  1
  In  In39  1  -0.00137987  0.48720830  0.86286292  1
  In  In40  1  0.00653361  0.82640303  0.38500824  1
  In  In41  1  0.00389548  0.82754055  0.86805516  1
  In  In42  1  0.33221268  0.16605159  0.37315250  1
  In  In43  1  0.31704855  0.17000406  0.88180684  1
  In  In44  1  0.34461238  0.50463406  0.36081262  1
  In  In45  1  0.35254338  0.49405747  0.87982673  1
  In  In46  1  0.32988639  0.83646209  0.37816364  1
  In  In47  1  0.32235520  0.82550157  0.87808275  1
  In  In48  1  0.66048659  0.15496443  0.37788883  1
  In  In49  1  0.67026630  0.18304394  0.87616575  1
  In  In50  1  0.65942398  0.50451811  0.38401859  1
  In  In51  1  0.65953494  0.51190957  0.87781899  1
  In  In52  1  0.67049039  0.82623526  0.38344070  1
  In  In53  1  0.68342242  0.82901613  0.87151376  1
  In  In54  1  0.16984384  0.00396685  0.12151223  1
  In  In55  1  0.15496125  -0.00740677  0.61633623  1
  In  In56  1  0.17777382  0.32181221  0.12691578  1
  In  In57  1  0.17422075  0.33112827  0.63440622  1
  In  In58  1  0.17330219  0.67503621  0.12293008  1
  In  In59  1  0.15276440  0.67056108  0.63059231  1
  In  In60  1  0.49501064  -0.00638453  0.13145298  1
  In  In61  1  0.49345325  -0.00290115  0.61560911  1
  In  In62  1  0.48328304  0.34601933  0.12827955  1
  In  In63  1  0.49097101  0.32917311  0.61366964  1
  In  In64  1  0.48919315  0.65568414  0.12387089  1
  In  In65  1  0.50290653  0.66568794  0.62009705  1
  In  In66  1  0.84047334  0.00500745  0.11321299  1
  In  In67  1  0.85338557  -0.00144983  0.62897691  1
  In  In68  1  0.84355370  0.34071801  0.11639680  1
  In  In69  1  0.83273538  0.34646290  0.62580585  1
  In  In70  1  0.83230558  0.66906622  0.11417088  1
  In  In71  1  0.83313701  0.66421798  0.62809394  1
  In  In72  1  0.66822107  0.34113305  0.74525905  1
  In  In73  1  0.00894746  0.66219374  0.25480453  1
  In  In74  1  0.00794280  0.00462968  0.24467428  1
  In  In75  1  0.32664746  0.00086653  0.75532608  1
  In  In76  1  0.16919926  0.49792944  -0.00755569  1
  In  In77  1  0.16481530  0.50313375  0.50556144  1
  In  In78  1  0.66055641  -0.00282688  0.25006876  1
  In  In79  1  0.32291568  0.66054005  0.74454339  1
  In  In80  1  0.65922457  0.66927689  0.25479496  1
  In  In81  1  0.67294405  0.00043052  0.75133908  1
  In  In82  1  0.83085596  0.16423691  0.50085683  1
  In  In83  1  0.65525383  0.33418079  0.25368770  1
  In  In84  1  0.49731346  0.17395469  0.00925196  1
  In  In85  1  0.50184998  0.82850994  0.00382717  1
  Cu  Cu86  1  0.84361942  0.16766290  0.75730178  1
  Cu  Cu87  1  0.84417689  0.83555588  0.24588517  1
  Cu  Cu88  1  0.16361331  0.49246024  0.25100520  1
  Cu  Cu89  1  0.33179824  0.66554908  -0.00238959  1
  Cu  Cu90  1  0.67394920  0.34171984  -0.00219267  1
  Cu  Cu91  1  0.66676351  -0.00998429  0.50108916  1
  Cu  Cu92  1  0.16880126  0.16585583  0.24967651  1
  Cu  Cu93  1  0.83023223  0.49532106  0.24514163  1
  Cu  Cu94  1  0.83174317  0.49842154  0.75116085  1
  Cu  Cu95  1  0.32576450  -0.00358299  0.00536943  1
  Cu  Cu96  1  0.33622026  0.66801692  0.49726996  1
  Cu  Cu97  1  0.16712362  0.16679232  0.75120492  1
  Cu  Cu98  1  0.49133460  0.83451860  0.26150897  1
  Cu  Cu99  1  0.83588961  0.17864573  0.24610163  1
  Cu  Cu100  1  0.00277135  0.00070517  0.50256992  1
  Cu  Cu101  1  0.67648159  0.00689818  -0.00417060  1
  Cu  Cu102  1  0.67075030  0.67146770  -0.00459834  1
  Cu  Cu103  1  0.66923732  0.66195285  0.50316866  1
  Cu  Cu104  1  0.49926657  0.82340985  0.74275104  1
  Cu  Cu105  1  0.00437967  0.33248412  -0.00636866  1
  Cu  Cu106  1  -0.00724331  0.66815177  0.50968748  1
  Cu  Cu107  1  -0.00353684  -0.00477674  -0.00615234  1
  Cu  Cu108  1  0.32722854  0.33500662  0.49683870  1
  Cu  Cu109  1  0.33196481  0.00547102  0.49848637  1
  Cu  Cu110  1  0.65950639  0.33409913  0.50012046  1
  Cu  Cu111  1  0.49066010  0.17364345  0.73956289  1
  Cu  Cu112  1  -0.00175502  0.33588700  0.50253370  1
  Cu  Cu113  1  -0.00574924  0.67096698  -0.00465677  1
  Cu  Cu114  1  0.83924254  0.82742727  0.74892584  1
  Se  Se115  1  0.08033356  0.07523382  0.05119569  1
  Se  Se116  1  0.08426994  0.09073877  0.55028023  1
  Se  Se117  1  0.08166956  0.41057018  0.05879664  1
  Se  Se118  1  0.07519708  0.41515235  0.56634490  1
  Se  Se119  1  0.08213111  0.74466234  0.05268821  1
  Se  Se120  1  0.08285515  0.75167766  0.55472823  1
  Se  Se121  1  0.40994725  0.07521389  0.06220946  1
  Se  Se122  1  0.41626579  0.08865103  0.55154787  1
  Se  Se123  1  0.41246548  0.42482970  0.05352976  1
  Se  Se124  1  0.40992199  0.41972073  0.54908691  1
  Se  Se125  1  0.40299449  0.75079001  0.06278707  1
  Se  Se126  1  0.42094703  0.75020871  0.55162523  1
  Se  Se127  1  0.75476894  0.09212983  0.05054963  1
  Se  Se128  1  0.74409184  0.07203179  0.56391428  1
  Se  Se129  1  0.75912845  0.42498456  0.05007858  1
  Se  Se130  1  0.74841894  0.41379061  0.55102029  1
  Se  Se131  1  0.75086844  0.75760762  0.04887095  1
  Se  Se132  1  0.75251648  0.74640982  0.55581884  1
  Se  Se133  1  0.25046511  0.24315478  0.05201875  1
  Se  Se134  1  0.24114544  0.25675951  0.55235688  1
  Se  Se135  1  0.25616539  0.58163665  0.05902622  1
  Se  Se136  1  0.25616409  0.59478112  0.56373768  1
  Se  Se137  1  0.24885044  0.90781486  0.05882918  1
  Se  Se138  1  0.25057648  0.91926697  0.55188368  1
  Se  Se139  1  0.59246630  0.26685255  0.06286324  1
  Se  Se140  1  0.57856709  0.24450318  0.54831776  1
  Se  Se141  1  0.58750174  0.59446457  0.05505854  1
  Se  Se142  1  0.57985821  0.57854396  0.55023827  1
  Se  Se143  1  0.59356685  0.92894690  0.05706165  1
  Se  Se144  1  0.57923677  0.91030515  0.55343597  1
  Se  Se145  1  0.92035838  0.25019937  0.04991719  1
  Se  Se146  1  0.92018011  0.25132800  0.56306489  1
  Se  Se147  1  0.91433411  0.58368634  0.04819510  1
  Se  Se148  1  0.91674234  0.57725047  0.56050578  1
  Se  Se149  1  0.91299537  0.91141578  0.04818269  1
  Se  Se150  1  0.91760838  0.91619800  0.55210432  1
  Se  Se151  1  0.08336534  0.25507636  0.44941191  1
  Se  Se152  1  0.08928704  0.24863703  0.94331483  1
  Se  Se153  1  0.07355467  0.59348131  0.44308743  1
  Se  Se154  1  0.07375310  0.58680365  0.93704459  1
  Se  Se155  1  0.08589159  0.91670497  0.44884200  1
  Se  Se156  1  0.08068580  0.91042564  0.94270032  1
  Se  Se157  1  0.41189747  0.24997249  0.44544991  1
  Se  Se158  1  0.41925791  0.25572223  0.93727191  1
  Se  Se159  1  0.41088064  0.57670839  0.44453837  1
  Se  Se160  1  0.42309680  0.58640052  0.94951681  1
  Se  Se161  1  0.41467477  0.91396326  0.45055348  1
  Se  Se162  1  0.40934309  0.92222270  0.94295277  1
  Se  Se163  1  0.74318426  0.25652374  0.43859737  1
  Se  Se164  1  0.75368973  0.25034418  0.95084838  1
  Se  Se165  1  0.75287165  0.57836079  0.44950820  1
  Se  Se166  1  0.75305045  0.58535182  0.94377765  1
  Se  Se167  1  0.75536999  0.91058494  0.45003325  1
  Se  Se168  1  0.75152571  0.91657532  0.94369029  1
  Se  Se169  1  0.24767998  0.09046917  0.44717483  1
  Se  Se170  1  0.24590926  0.08084076  0.95072724  1
  Se  Se171  1  0.25017626  0.42005522  0.43736110  1
  Se  Se172  1  0.25939846  0.40395079  0.93921235  1
  Se  Se173  1  0.24814648  0.75237354  0.44995988  1
  Se  Se174  1  0.24358892  0.74984872  0.95163582  1
  Se  Se175  1  0.58402229  0.07743732  0.45107060  1
  Se  Se176  1  0.58736601  0.08329879  0.94104593  1
  Se  Se177  1  0.57581971  0.41555664  0.44596270  1
  Se  Se178  1  0.58535156  0.42269583  0.94836846  1
  Se  Se179  1  0.58510825  0.74493420  0.44897731  1
  Se  Se180  1  0.58505684  0.74512305  0.93422693  1
  Se  Se181  1  0.92403153  0.07902008  0.43773739  1
  Se  Se182  1  0.91733364  0.08674123  0.94403619  1
  Se  Se183  1  0.91398331  0.42024517  0.45200518  1
  Se  Se184  1  0.92254894  0.42135967  0.94465440  1
  Se  Se185  1  0.91417100  0.75163705  0.45045188  1
  Se  Se186  1  0.91396516  0.75306195  0.93875830  1
  Se  Se187  1  0.25078261  0.25123730  0.30344302  1
  Se  Se188  1  0.25460892  0.24850874  0.80169638  1
  Se  Se189  1  0.24194415  0.57991331  0.30403089  1
  Se  Se190  1  0.25206718  0.57882310  0.82106882  1
  Se  Se191  1  0.25388982  0.91754208  0.30423785  1
  Se  Se192  1  0.23718006  0.90579628  0.80828459  1
  Se  Se193  1  0.57290073  0.23988006  0.31359437  1
  Se  Se194  1  0.57571880  0.24637319  0.80253475  1
  Se  Se195  1  0.57183185  0.57312312  0.30801919  1
  Se  Se196  1  0.58795241  0.57696497  0.79558923  1
  Se  Se197  1  0.57920854  0.91122117  0.31815019  1
  Se  Se198  1  0.57634966  0.90573515  0.80521298  1
  Se  Se199  1  0.92107602  0.25670969  0.30044593  1
  Se  Se200  1  0.92599050  0.25550775  0.80577047  1
  Se  Se201  1  0.90897216  0.57469176  0.30916988  1
  Se  Se202  1  0.91835576  0.58168586  0.80148014  1
  Se  Se203  1  0.91898698  0.91383579  0.30923679  1
  Se  Se204  1  0.92064003  0.91518286  0.79962293  1
  Se  Se205  1  0.09188055  0.08717410  0.31375513  1
  Se  Se206  1  0.08631055  0.08149883  0.80488163  1
  Se  Se207  1  0.07809276  0.41161203  0.30362297  1
  Se  Se208  1  0.09791951  0.42253347  0.79763182  1
  Se  Se209  1  0.09458115  0.76146107  0.30723398  1
  Se  Se210  1  0.07918243  0.74155227  0.79735706  1
  Se  Se211  1  0.41219602  0.07967203  0.30485403  1
  Se  Se212  1  0.42190543  0.09472288  0.80882063  1
  Se  Se213  1  0.41221943  0.40728916  0.29594484  1
  Se  Se214  1  0.42030406  0.41987365  0.79901563  1
  Se  Se215  1  0.41331731  0.74645047  0.31292298  1
  Se  Se216  1  0.41736788  0.75234977  0.80789557  1
  Se  Se217  1  0.75992701  0.09214673  0.30377843  1
  Se  Se218  1  0.75820051  0.08985355  0.81479800  1
  Se  Se219  1  0.75231904  0.42282822  0.31185916  1
  Se  Se220  1  0.75665504  0.41753938  0.81511942  1
  Se  Se221  1  0.76317870  0.75680436  0.30626653  1
  Se  Se222  1  0.75143408  0.74461550  0.79791305  1
  Se  Se223  1  0.24915726  0.07922904  0.19651132  1
  Se  Se224  1  0.24455648  0.08689144  0.68748665  1
  Se  Se225  1  0.24904568  0.41096451  0.19784335  1
  Se  Se226  1  0.23736410  0.43058031  0.70118591  1
  Se  Se227  1  0.25638979  0.73418048  0.20163829  1
  Se  Se228  1  0.24080973  0.76530783  0.69322812  1
  Se  Se229  1  0.57296527  0.09424802  0.19539960  1
  Se  Se230  1  0.57567305  0.08669394  0.69024996  1
  Se  Se231  1  0.57873472  0.43271559  0.19188374  1
  Se  Se232  1  0.57583537  0.41941839  0.68188033  1
  Se  Se233  1  0.56968820  0.76123404  0.19395106  1
  Se  Se234  1  0.58564571  0.74091839  0.69485673  1
  Se  Se235  1  0.91329733  0.09409285  0.18788078  1
  Se  Se236  1  0.92256514  0.08099380  0.70385395  1
  Se  Se237  1  0.91782576  0.41458059  0.19545532  1
  Se  Se238  1  0.91690080  0.41441210  0.70004448  1
  Se  Se239  1  0.91872211  0.74941447  0.18861749  1
  Se  Se240  1  0.92179800  0.74596215  0.69327979  1
  Se  Se241  1  0.08422041  0.24857715  0.19575018  1
  Se  Se242  1  0.08263409  0.25023084  0.69848328  1
  Se  Se243  1  0.08853166  0.57253095  0.18660507  1
  Se  Se244  1  0.09788328  0.57809918  0.70435943  1
  Se  Se245  1  0.09312966  0.90546609  0.19173816  1
  Se  Se246  1  0.07349278  0.92915234  0.69289257  1
  Se  Se247  1  0.42835957  0.24405777  0.19410162  1
  Se  Se248  1  0.40824569  0.25655274  0.68891945  1
  Se  Se249  1  0.41017558  0.59258342  0.20215811  1
  Se  Se250  1  0.42090552  0.57647775  0.68954158  1
  Se  Se251  1  0.41483029  0.92114170  0.20571067  1
  Se  Se252  1  0.41766582  0.91086331  0.69173664  1
  Se  Se253  1  0.75023317  0.25321976  0.18834590  1
  Se  Se254  1  0.76107488  0.24050428  0.69354839  1
  Se  Se255  1  0.75382753  0.58377982  0.19098884  1
  Se  Se256  1  0.74860642  0.57899380  0.69555045  1
  Se  Se257  1  0.75926075  0.91374239  0.18920705  1
  Se  Se258  1  0.75652693  0.90873143  0.68869285  1
