# generated using pymatgen
data_In86Cu29Se144
_symmetry_space_group_name_H-M   'P 1'
_cell_length_a   17.57432935
_cell_length_b   17.57493886
_cell_length_c   23.42400661
_cell_angle_alpha   89.98431763
_cell_angle_beta   89.99496415
_cell_angle_gamma   90.00953119
_symmetry_Int_Tables_number   1
_chemical_formula_structural   In86Cu29Se144
_chemical_formula_sum   'In86 Cu29 Se144'
_cell_volume   7234.92014112
_cell_formula_units_Z   1
loop_
 _symmetry_equiv_pos_site_id
 _symmetry_equiv_pos_as_xyz
  1  'x, y, z'
loop_
 _atom_site_type_symbol
 _atom_site_label
 _atom_site_symmetry_multiplicity
 _atom_site_fract_x
 _atom_site_fract_y
 _atom_site_fract_z
 _atom_site_occupancy
  In  In0  1  -0.00637996  0.16832343  0.11382386  1
  In  In1  1  -0.00304324  0.16572704  0.63705267  1
  In  In2  1  -0.00897826  0.50875523  0.12265551  1
  In  In3  1  -0.00894310  0.50806668  0.63049518  1
  In  In4  1  0.00699162  0.83807928  0.10533238  1
  In  In5  1  0.01113261  0.83775368  0.64185024  1
  In  In6  1  0.32305497  0.15032825  0.11535851  1
  In  In7  1  0.31984878  0.16744469  0.62546837  1
  In  In8  1  0.33999180  0.50655603  0.13211385  1
  In  In9  1  0.34501023  0.50471245  0.62409105  1
  In  In10  1  0.33034883  0.83577236  0.12167598  1
  In  In11  1  0.30957968  0.84810072  0.64515889  1
  In  In12  1  0.66984695  0.17840861  0.11251212  1
  In  In13  1  0.68719381  0.15359602  0.64574686  1
  In  In14  1  0.66971700  0.48418424  0.12523885  1
  In  In15  1  0.66151038  0.48635299  0.62268898  1
  In  In16  1  0.67161398  0.83978917  0.10993813  1
  In  In17  1  0.67629735  0.84232319  0.62879282  1
  In  In18  1  0.16846287  -0.00983161  0.38482347  1
  In  In19  1  0.16736867  -0.00305011  0.87209718  1
  In  In20  1  0.15266240  0.33117840  0.38024767  1
  In  In21  1  0.13959391  0.33170884  0.86763138  1
  In  In22  1  0.18691220  0.66610266  0.37633908  1
  In  In23  1  0.17801087  0.68297249  0.85195826  1
  In  In24  1  0.49069701  0.01259453  0.37292532  1
  In  In25  1  0.50049484  0.00169442  0.87063390  1
  In  In26  1  0.51714444  0.33059009  0.37473420  1
  In  In27  1  0.50801444  0.31615300  0.88356046  1
  In  In28  1  0.48558612  0.67203599  0.37921045  1
  In  In29  1  0.49656770  0.68106898  0.87776406  1
  In  In30  1  0.83816713  0.00192606  0.37877719  1
  In  In31  1  0.82933606  0.00659827  0.87002183  1
  In  In32  1  0.83055187  0.33070832  0.37961948  1
  In  In33  1  0.83609817  0.32899852  0.86873965  1
  In  In34  1  0.82300687  0.66091160  0.37623272  1
  In  In35  1  0.84648507  0.65871172  0.87764245  1
  In  In36  1  -0.00329076  0.16686675  0.38648304  1
  In  In37  1  -0.00485233  0.16876989  0.87233845  1
  In  In38  1  -0.00174497  0.48778840  0.38139179  1
  In  In39  1  -0.00081013  0.49308652  0.85639068  1
  In  In40  1  0.00273310  0.84998846  0.38064132  1
  In  In41  1  0.00527682  0.83350481  0.87009654  1
  In  In42  1  0.33183254  0.15126870  0.37437462  1
  In  In43  1  0.34360414  0.15416131  0.88155542  1
  In  In44  1  0.33057133  0.52415091  0.37907591  1
  In  In45  1  0.31610258  0.50243785  0.86946835  1
  In  In46  1  0.32820932  0.82682068  0.37198213  1
  In  In47  1  0.32801677  0.83775620  0.86765463  1
  In  In48  1  0.66470432  0.17454196  0.37438108  1
  In  In49  1  0.67778527  0.16851522  0.86994210  1
  In  In50  1  0.67929280  0.48469796  0.38629817  1
  In  In51  1  0.68330513  0.49125720  0.87985847  1
  In  In52  1  0.68031128  0.83100774  0.37300192  1
  In  In53  1  0.65444102  0.84310775  0.88166263  1
  In  In54  1  0.16918379  0.00393324  0.11771638  1
  In  In55  1  0.16511388  0.00215353  0.63449958  1
  In  In56  1  0.17336769  0.32690704  0.12081878  1
  In  In57  1  0.16706002  0.31640314  0.62463816  1
  In  In58  1  0.16400389  0.67838232  0.12385883  1
  In  In59  1  0.14664417  0.68129421  0.64665558  1
  In  In60  1  0.49410922  -0.00776324  0.11595966  1
  In  In61  1  0.50271076  -0.00506244  0.63092264  1
  In  In62  1  0.51400533  0.33456973  0.12465193  1
  In  In63  1  0.50384031  0.34511406  0.62310231  1
  In  In64  1  0.48520814  0.67202434  0.12309046  1
  In  In65  1  0.49827976  0.65553256  0.62609382  1
  In  In66  1  0.83737515  0.00555430  0.11245599  1
  In  In67  1  0.82806163  0.01940452  0.64873664  1
  In  In68  1  0.80714427  0.31752681  0.10066956  1
  In  In69  1  0.83103676  0.32755217  0.62970220  1
  In  In70  1  0.83405964  0.66183677  0.10777120  1
  In  In71  1  0.85056161  0.66526144  0.62849437  1
  In  In72  1  0.65195918  0.65797205  0.24297521  1
  In  In73  1  0.84279341  0.83553861  0.50975408  1
  In  In74  1  0.33672435  0.33459947  0.24924472  1
  In  In75  1  0.15763631  0.50051341  -0.00525556  1
  In  In76  1  0.66618138  0.66675440  0.75711481  1
  In  In77  1  0.50098539  0.50212748  0.00605753  1
  In  In78  1  0.65981588  0.00321898  0.25415365  1
  In  In79  1  0.00546271  0.66791606  0.24734514  1
  In  In80  1  0.16580556  0.50241692  0.50244914  1
  In  In81  1  0.50504905  0.16865341  0.49758200  1
  In  In82  1  0.50093437  0.83048246  0.50798497  1
  In  In83  1  -0.00162227  0.33661438  0.25498982  1
  In  In84  1  0.33551593  0.33218456  0.75142994  1
  In  In85  1  0.00252079  0.00701208  0.23821383  1
  Cu  Cu86  1  0.48945303  0.83870678  0.24588988  1
  Cu  Cu87  1  0.49736248  0.16584990  0.24619933  1
  Cu  Cu88  1  0.32774812  0.32357503  -0.00073344  1
  Cu  Cu89  1  0.50197591  0.50122800  0.25364468  1
  Cu  Cu90  1  0.00446104  0.67236730  0.50909271  1
  Cu  Cu91  1  0.16668748  0.16075678  0.24846407  1
  Cu  Cu92  1  0.00561902  0.66995197  -0.01300595  1
  Cu  Cu93  1  0.66452288  0.00824402  -0.00824490  1
  Cu  Cu94  1  0.33073147  -0.00830198  -0.00548976  1
  Cu  Cu95  1  0.32726167  0.67500766  0.50538493  1
  Cu  Cu96  1  0.32770434  0.67435346  -0.00441344  1
  Cu  Cu97  1  -0.00348458  0.00157793  -0.01086503  1
  Cu  Cu98  1  0.49958312  0.16384161  0.75536198  1
  Cu  Cu99  1  0.83768255  0.83271925  0.23764669  1
  Cu  Cu100  1  0.66850999  0.67047729  -0.00432686  1
  Cu  Cu101  1  0.66617545  0.65584275  0.50258606  1
  Cu  Cu102  1  0.49763212  0.83534590  0.75340889  1
  Cu  Cu103  1  -0.00693191  0.33376318  -0.01134078  1
  Cu  Cu104  1  0.16650653  0.16624070  0.75386954  1
  Cu  Cu105  1  0.17626706  0.83215186  0.25153505  1
  Cu  Cu106  1  0.33429636  0.33410681  0.50491121  1
  Cu  Cu107  1  0.50273205  0.49647910  0.75327246  1
  Cu  Cu108  1  0.32712551  -0.00198334  0.50450695  1
  Cu  Cu109  1  0.67299961  0.32817727  0.50415926  1
  Cu  Cu110  1  0.83328428  0.83942684  0.75555225  1
  Cu  Cu111  1  0.00393395  0.00600179  0.51200832  1
  Cu  Cu112  1  0.83017294  0.49459830  0.74901102  1
  Cu  Cu113  1  0.83254727  0.49045756  0.25090683  1
  Cu  Cu114  1  -0.00622725  0.32640994  0.50593461  1
  Se  Se115  1  0.07708154  0.07955173  0.05162028  1
  Se  Se116  1  0.08613443  0.08917032  0.56610526  1
  Se  Se117  1  0.07117269  0.40681937  0.05787529  1
  Se  Se118  1  0.07718607  0.41001981  0.56170471  1
  Se  Se119  1  0.09075243  0.74779917  0.04378869  1
  Se  Se120  1  0.08302115  0.75596559  0.56401552  1
  Se  Se121  1  0.41430503  0.07805764  0.04721896  1
  Se  Se122  1  0.41326832  0.07855905  0.55945704  1
  Se  Se123  1  0.40317443  0.40867673  0.05999141  1
  Se  Se124  1  0.41933157  0.42010907  0.55109183  1
  Se  Se125  1  0.41409524  0.75466287  0.04954711  1
  Se  Se126  1  0.40629264  0.75136458  0.56975749  1
  Se  Se127  1  0.74944103  0.08707451  0.04823639  1
  Se  Se128  1  0.75560883  0.08180815  0.56510716  1
  Se  Se129  1  0.76376756  0.43940016  0.04946898  1
  Se  Se130  1  0.75543761  0.41445625  0.55627922  1
  Se  Se131  1  0.75620518  0.75514223  0.04526375  1
  Se  Se132  1  0.74496190  0.73917716  0.56207170  1
  Se  Se133  1  0.24150769  0.23961298  0.04940269  1
  Se  Se134  1  0.24877638  0.24602311  0.54819733  1
  Se  Se135  1  0.25574301  0.58601833  0.05616234  1
  Se  Se136  1  0.24768722  0.59315931  0.56592377  1
  Se  Se137  1  0.24505079  0.91294882  0.05094061  1
  Se  Se138  1  0.24481719  0.91804716  0.56101754  1
  Se  Se139  1  0.57574245  0.25240961  0.04798677  1
  Se  Se140  1  0.59190829  0.24908878  0.56499694  1
  Se  Se141  1  0.59286694  0.59474578  0.06468600  1
  Se  Se142  1  0.58095267  0.57660845  0.55640213  1
  Se  Se143  1  0.58383392  0.92052256  0.04565194  1
  Se  Se144  1  0.59611316  0.92657982  0.55575580  1
  Se  Se145  1  0.91245794  0.24810154  0.04323283  1
  Se  Se146  1  0.91499375  0.24247946  0.56249160  1
  Se  Se147  1  0.92537148  0.58428019  0.04224878  1
  Se  Se148  1  0.91798487  0.58294259  0.55131533  1
  Se  Se149  1  0.91364790  0.91721697  0.04451673  1
  Se  Se150  1  0.92355847  0.92593335  0.57374254  1
  Se  Se151  1  0.08316798  0.24717493  0.45382270  1
  Se  Se152  1  0.08234710  0.24656896  0.94598761  1
  Se  Se153  1  0.07716671  0.59452973  0.43977837  1
  Se  Se154  1  0.08289406  0.58911831  0.92577108  1
  Se  Se155  1  0.08215967  0.91706148  0.45771033  1
  Se  Se156  1  0.08407863  0.91549105  0.94340152  1
  Se  Se157  1  0.40980183  0.25604882  0.43726351  1
  Se  Se158  1  0.41773420  0.24325358  0.95143190  1
  Se  Se159  1  0.41443215  0.59099241  0.45552566  1
  Se  Se160  1  0.40629716  0.58494806  0.94090964  1
  Se  Se161  1  0.41212917  0.92172906  0.44437305  1
  Se  Se162  1  0.41578638  0.91430369  0.93696977  1
  Se  Se163  1  0.75122614  0.24304615  0.44797704  1
  Se  Se164  1  0.75228708  0.25449946  0.94127358  1
  Se  Se165  1  0.75634388  0.57775270  0.45139051  1
  Se  Se166  1  0.75280775  0.58610410  0.94579788  1
  Se  Se167  1  0.74697836  0.91967236  0.44717706  1
  Se  Se168  1  0.74958362  0.92234458  0.94214827  1
  Se  Se169  1  0.24720662  0.08372269  0.44916767  1
  Se  Se170  1  0.24718658  0.07933441  0.94458765  1
  Se  Se171  1  0.25674512  0.41335817  0.43941149  1
  Se  Se172  1  0.24876012  0.40419400  0.93916250  1
  Se  Se173  1  0.24668603  0.75828049  0.45009315  1
  Se  Se174  1  0.24503936  0.75063892  0.93679849  1
  Se  Se175  1  0.59332661  0.07171729  0.44109586  1
  Se  Se176  1  0.58306665  0.08948797  0.93592712  1
  Se  Se177  1  0.58487173  0.41098972  0.45249470  1
  Se  Se178  1  0.59051738  0.41157845  0.94826883  1
  Se  Se179  1  0.59486686  0.74365636  0.44235410  1
  Se  Se180  1  0.57841171  0.75373469  0.95116629  1
  Se  Se181  1  0.91681788  0.07818106  0.45240400  1
  Se  Se182  1  0.91136580  0.08783984  0.94198811  1
  Se  Se183  1  0.91412373  0.41182479  0.45026408  1
  Se  Se184  1  0.91936135  0.42298256  0.93384301  1
  Se  Se185  1  0.92304847  0.74369222  0.43992708  1
  Se  Se186  1  0.91730796  0.75643128  0.94191675  1
  Se  Se187  1  0.24136648  0.24573394  0.30986161  1
  Se  Se188  1  0.24859762  0.24501315  0.81569288  1
  Se  Se189  1  0.25239431  0.58610587  0.29962113  1
  Se  Se190  1  0.25400626  0.58330887  0.79260671  1
  Se  Se191  1  0.25027232  0.92098819  0.30793506  1
  Se  Se192  1  0.23237026  0.90550344  0.79755983  1
  Se  Se193  1  0.58325417  0.24640360  0.29877416  1
  Se  Se194  1  0.58351429  0.25000989  0.80365135  1
  Se  Se195  1  0.57994209  0.57710484  0.32040971  1
  Se  Se196  1  0.57811997  0.57550924  0.81891767  1
  Se  Se197  1  0.57244618  0.90549610  0.31334991  1
  Se  Se198  1  0.58571651  0.91823740  0.80159085  1
  Se  Se199  1  0.91194288  0.23941254  0.30948693  1
  Se  Se200  1  0.94047480  0.27092288  0.80315049  1
  Se  Se201  1  0.91239736  0.57505040  0.30816344  1
  Se  Se202  1  0.91261408  0.58475613  0.79584381  1
  Se  Se203  1  0.91163241  0.91221864  0.30154205  1
  Se  Se204  1  0.91967281  0.92235332  0.80570395  1
  Se  Se205  1  0.08542799  0.08622724  0.31235709  1
  Se  Se206  1  0.08232977  0.08364198  0.80656335  1
  Se  Se207  1  0.09585337  0.43087161  0.30679898  1
  Se  Se208  1  0.10814266  0.43540502  0.79494765  1
  Se  Se209  1  0.08801193  0.76062122  0.31231716  1
  Se  Se210  1  0.06405832  0.73804585  0.79707943  1
  Se  Se211  1  0.41135736  0.08234731  0.29622144  1
  Se  Se212  1  0.41075216  0.07922588  0.80069171  1
  Se  Se213  1  0.42115487  0.42259379  0.31579247  1
  Se  Se214  1  0.42476026  0.41767218  0.81775102  1
  Se  Se215  1  0.41514634  0.74985015  0.30201108  1
  Se  Se216  1  0.41466635  0.74849938  0.80226670  1
  Se  Se217  1  0.75856324  0.08877105  0.30797263  1
  Se  Se218  1  0.75122738  0.08541828  0.79673702  1
  Se  Se219  1  0.74940878  0.41038954  0.30642566  1
  Se  Se220  1  0.74616684  0.41180263  0.80052694  1
  Se  Se221  1  0.75764922  0.74982801  0.29573311  1
  Se  Se222  1  0.75420382  0.75704434  0.81665631  1
  Se  Se223  1  0.24812883  0.07765207  0.19464156  1
  Se  Se224  1  0.25377151  0.08526558  0.70165749  1
  Se  Se225  1  0.24100672  0.42241685  0.19195617  1
  Se  Se226  1  0.25099495  0.41604562  0.68421912  1
  Se  Se227  1  0.25405127  0.74839280  0.19417206  1
  Se  Se228  1  0.26928169  0.72549975  0.69696425  1
  Se  Se229  1  0.57781478  0.08670471  0.18454708  1
  Se  Se230  1  0.58110286  0.07969513  0.70012197  1
  Se  Se231  1  0.58372186  0.41747050  0.20051286  1
  Se  Se232  1  0.58474173  0.41343733  0.70069930  1
  Se  Se233  1  0.57817760  0.76573297  0.18656749  1
  Se  Se234  1  0.57898594  0.75595266  0.69125045  1
  Se  Se235  1  0.90325899  0.09700930  0.18969486  1
  Se  Se236  1  0.93528560  0.07374438  0.71125930  1
  Se  Se237  1  0.90993319  0.41539259  0.18650698  1
  Se  Se238  1  0.91692000  0.41390432  0.69577460  1
  Se  Se239  1  0.91794522  0.75310055  0.17966557  1
  Se  Se240  1  0.91426884  0.75538305  0.70069165  1
  Se  Se241  1  0.08569683  0.24231181  0.19125810  1
  Se  Se242  1  0.08464309  0.25320522  0.70253653  1
  Se  Se243  1  0.09353908  0.57431041  0.18969671  1
  Se  Se244  1  0.08541076  0.56969358  0.70078897  1
  Se  Se245  1  0.08976135  0.90409929  0.18915539  1
  Se  Se246  1  0.10968876  0.90488535  0.70931680  1
  Se  Se247  1  0.41659365  0.24314838  0.18374616  1
  Se  Se248  1  0.42516191  0.24313335  0.68828777  1
  Se  Se249  1  0.42181001  0.58757578  0.20147801  1
  Se  Se250  1  0.42035110  0.58056575  0.70186649  1
  Se  Se251  1  0.41046798  0.92261258  0.19147624  1
  Se  Se252  1  0.41509740  0.92056605  0.70065880  1
  Se  Se253  1  0.74479882  0.25594901  0.18802160  1
  Se  Se254  1  0.73785283  0.26654935  0.70316454  1
  Se  Se255  1  0.76080584  0.58046774  0.19061885  1
  Se  Se256  1  0.75095491  0.58030983  0.68997274  1
  Se  Se257  1  0.75307166  0.91837690  0.18766461  1
  Se  Se258  1  0.74513374  0.92049427  0.70547068  1
