# generated using pymatgen
data_In86Cu29Se144
_symmetry_space_group_name_H-M   'P 1'
_cell_length_a   17.58258148
_cell_length_b   17.58150024
_cell_length_c   23.44111149
_cell_angle_alpha   90.01034799
_cell_angle_beta   90.02622304
_cell_angle_gamma   89.98605512
_symmetry_Int_Tables_number   1
_chemical_formula_structural   In86Cu29Se144
_chemical_formula_sum   'In86 Cu29 Se144'
_cell_volume   7246.30658286
_cell_formula_units_Z   1
loop_
 _symmetry_equiv_pos_site_id
 _symmetry_equiv_pos_as_xyz
  1  'x, y, z'
loop_
 _atom_site_type_symbol
 _atom_site_label
 _atom_site_symmetry_multiplicity
 _atom_site_fract_x
 _atom_site_fract_y
 _atom_site_fract_z
 _atom_site_occupancy
  In  In0  1  -0.00138825  0.16320955  0.11800628  1
  In  In1  1  0.01267009  0.16971286  0.62431961  1
  In  In2  1  0.01730455  0.48598397  0.13362418  1
  In  In3  1  0.02019930  0.50538965  0.62225065  1
  In  In4  1  0.00094084  0.83466310  0.12609035  1
  In  In5  1  -0.00584154  0.82315693  0.62273295  1
  In  In6  1  0.33336161  0.18262133  0.12172765  1
  In  In7  1  0.34397651  0.15299572  0.63895350  1
  In  In8  1  0.30221288  0.46755848  0.09372057  1
  In  In9  1  0.32003927  0.49779014  0.61940922  1
  In  In10  1  0.31681735  0.83912226  0.12339291  1
  In  In11  1  0.34504503  0.83977441  0.61561595  1
  In  In12  1  0.66540742  0.15182989  0.12373870  1
  In  In13  1  0.65863307  0.17444795  0.63285023  1
  In  In14  1  0.65811759  0.50223471  0.11836592  1
  In  In15  1  0.65782819  0.51216648  0.64116960  1
  In  In16  1  0.68022554  0.83314909  0.12383762  1
  In  In17  1  0.65345812  0.84248128  0.63522069  1
  In  In18  1  0.15669459  -0.00602792  0.37407647  1
  In  In19  1  0.17234942  0.00196039  0.88413382  1
  In  In20  1  0.17818515  0.33822451  0.36336457  1
  In  In21  1  0.18104294  0.31850709  0.89905418  1
  In  In22  1  0.16161212  0.67418728  0.38400811  1
  In  In23  1  0.16181904  0.67245380  0.88044216  1
  In  In24  1  0.51343351  -0.00642154  0.38668458  1
  In  In25  1  0.49689485  -0.00220868  0.86414020  1
  In  In26  1  0.48628108  0.34498109  0.38698524  1
  In  In27  1  0.50283492  0.33976718  0.86921166  1
  In  In28  1  0.48713474  0.67148782  0.39536419  1
  In  In29  1  0.50072374  0.65240791  0.86853903  1
  In  In30  1  0.83316223  0.00006641  0.36795950  1
  In  In31  1  0.82559882  0.00656867  0.87970060  1
  In  In32  1  0.83700185  0.32187078  0.36874513  1
  In  In33  1  0.82623496  0.33028246  0.87914358  1
  In  In34  1  0.84094932  0.65860142  0.37277380  1
  In  In35  1  0.84622536  0.66721272  0.86388181  1
  In  In36  1  -0.00346487  0.16094387  0.36159713  1
  In  In37  1  0.00232601  0.16949772  0.89420065  1
  In  In38  1  0.01246028  0.50693225  0.36019074  1
  In  In39  1  0.00206099  0.51051909  0.87627826  1
  In  In40  1  0.00958487  0.84490688  0.36642155  1
  In  In41  1  0.00519964  0.82208601  0.88051562  1
  In  In42  1  0.33302242  0.17989839  0.37276687  1
  In  In43  1  0.33032533  0.16703895  0.87278335  1
  In  In44  1  0.33287644  0.49687709  0.38518968  1
  In  In45  1  0.33898091  0.49049860  0.88607305  1
  In  In46  1  0.32807926  0.83291936  0.38866872  1
  In  In47  1  0.32143526  0.84237299  0.87459011  1
  In  In48  1  0.66426039  0.15868220  0.37802152  1
  In  In49  1  0.66673351  0.16909787  0.86982146  1
  In  In50  1  0.65432066  0.49721205  0.37902901  1
  In  In51  1  0.66903386  0.48538903  0.85969879  1
  In  In52  1  0.65797388  0.83670566  0.38003826  1
  In  In53  1  0.67508578  0.84283669  0.86563307  1
  In  In54  1  0.15964229  -0.01745304  0.11250895  1
  In  In55  1  0.17875047  0.00801780  0.62348638  1
  In  In56  1  0.16295409  0.32461809  0.11675286  1
  In  In57  1  0.16867552  0.34734818  0.62550054  1
  In  In58  1  0.15607237  0.65860372  0.12028038  1
  In  In59  1  0.16728133  0.66271285  0.62190291  1
  In  In60  1  0.50379755  0.01344758  0.12939667  1
  In  In61  1  0.50285498  -0.00146613  0.62222980  1
  In  In62  1  0.48538573  0.33675656  0.12468436  1
  In  In63  1  0.49324354  0.33170410  0.62881473  1
  In  In64  1  0.50166581  0.65373264  0.12628342  1
  In  In65  1  0.50377932  0.67717082  0.61737635  1
  In  In66  1  0.83456190  -0.00050767  0.12264245  1
  In  In67  1  0.82656547  -0.01143823  0.62419851  1
  In  In68  1  0.85634794  0.33341318  0.11560828  1
  In  In69  1  0.83043843  0.32082532  0.62874611  1
  In  In70  1  0.83649676  0.68187192  0.12076049  1
  In  In71  1  0.83669718  0.66038469  0.64109997  1
  In  In72  1  -0.00699642  0.34744809  0.76233643  1
  In  In73  1  0.67319771  0.33003681  0.25304588  1
  In  In74  1  -0.00142490  0.00179993  0.75144185  1
  In  In75  1  0.49777110  0.16809842  0.00013583  1
  In  In76  1  0.83704430  0.50153878  -0.00643600  1
  In  In77  1  0.49438374  0.83172311  -0.00911270  1
  In  In78  1  0.33241332  0.00723041  0.24721050  1
  In  In79  1  0.16810243  0.16574120  0.49562992  1
  In  In80  1  0.33813765  0.65929703  0.25922236  1
  In  In81  1  0.83051844  0.83313725  0.50218109  1
  In  In82  1  0.33347478  0.66998539  0.74637330  1
  In  In83  1  0.66903000  0.66895613  0.25751083  1
  In  In84  1  0.82999657  0.16255686  0.49522574  1
  In  In85  1  0.82949782  0.49577968  0.49970989  1
  Cu  Cu86  1  0.33886140  0.00013082  0.50334688  1
  Cu  Cu87  1  0.16944907  0.49393047  0.24122150  1
  Cu  Cu88  1  0.83911579  0.16520752  0.24296518  1
  Cu  Cu89  1  0.50678883  0.84116707  0.25476295  1
  Cu  Cu90  1  0.66827685  -0.00748082  -0.00066211  1
  Cu  Cu91  1  0.16090916  0.16637944  0.24214523  1
  Cu  Cu92  1  0.33003046  0.32858382  0.50429006  1
  Cu  Cu93  1  0.83895629  0.84097015  0.24433619  1
  Cu  Cu94  1  0.66409032  0.33265991  -0.00857968  1
  Cu  Cu95  1  0.66805832  0.66356318  -0.00360236  1
  Cu  Cu96  1  0.00540251  0.33749397  0.49376736  1
  Cu  Cu97  1  0.83854303  0.50521710  0.24445602  1
  Cu  Cu98  1  0.49807348  0.17001982  0.75023772  1
  Cu  Cu99  1  0.16846806  0.17668930  0.75803891  1
  Cu  Cu100  1  0.16900880  0.50254129  0.75157224  1
  Cu  Cu101  1  0.16149671  0.82829908  0.24962216  1
  Cu  Cu102  1  0.50297926  0.16914595  0.24999008  1
  Cu  Cu103  1  0.00585411  0.66629718  0.49896018  1
  Cu  Cu104  1  0.66255110  0.67108798  0.51163072  1
  Cu  Cu105  1  0.16364846  0.83737494  0.75492182  1
  Cu  Cu106  1  -0.00384491  0.66986557  0.00227010  1
  Cu  Cu107  1  0.33559611  0.67347532  -0.00628523  1
  Cu  Cu108  1  0.50006515  0.83417677  0.74252327  1
  Cu  Cu109  1  0.49745592  0.49712327  0.74875713  1
  Cu  Cu110  1  0.48802440  0.49515867  0.25467245  1
  Cu  Cu111  1  0.65439774  0.33617699  0.50839568  1
  Cu  Cu112  1  0.82710990  0.16107801  0.75240665  1
  Cu  Cu113  1  -0.00476798  -0.00851119  0.00109871  1
  Cu  Cu114  1  0.83244272  0.83071046  0.74955350  1
  Se  Se115  1  0.08141683  0.07660826  0.05069221  1
  Se  Se116  1  0.07577618  0.07410776  0.55310193  1
  Se  Se117  1  0.09017753  0.42392438  0.05267712  1
  Se  Se118  1  0.08822102  0.41783414  0.54861964  1
  Se  Se119  1  0.08254694  0.75284175  0.05466769  1
  Se  Se120  1  0.08428666  0.75062368  0.55462258  1
  Se  Se121  1  0.40751535  0.07639929  0.05875915  1
  Se  Se122  1  0.41673328  0.08662123  0.55727657  1
  Se  Se123  1  0.43272435  0.43094410  0.05187069  1
  Se  Se124  1  0.41135762  0.41322888  0.55810280  1
  Se  Se125  1  0.41279445  0.74655614  0.06286190  1
  Se  Se126  1  0.40954832  0.74250279  0.54943975  1
  Se  Se127  1  0.74909311  0.07991259  0.05138344  1
  Se  Se128  1  0.74238987  0.08168674  0.56203181  1
  Se  Se129  1  0.74508184  0.40987405  0.05631566  1
  Se  Se130  1  0.74245902  0.41182199  0.56530796  1
  Se  Se131  1  0.74835246  0.75000823  0.04817221  1
  Se  Se132  1  0.74960208  0.74413377  0.56975068  1
  Se  Se133  1  0.26093294  0.26024288  0.04759618  1
  Se  Se134  1  0.25271972  0.24638231  0.56587368  1
  Se  Se135  1  0.25265165  0.59431594  0.05153888  1
  Se  Se136  1  0.24467003  0.58283178  0.55004793  1
  Se  Se137  1  0.25514652  0.91610097  0.04450139  1
  Se  Se138  1  0.24978833  0.91975026  0.55312991  1
  Se  Se139  1  0.58977484  0.25804772  0.06151570  1
  Se  Se140  1  0.57598638  0.24745601  0.55887777  1
  Se  Se141  1  0.58065177  0.58444393  0.04779243  1
  Se  Se142  1  0.58462475  0.57793697  0.55903563  1
  Se  Se143  1  0.58223994  0.91869417  0.05932526  1
  Se  Se144  1  0.58250063  0.91031601  0.55545903  1
  Se  Se145  1  0.91349217  0.23884958  0.04574434  1
  Se  Se146  1  0.92713960  0.25575177  0.55291288  1
  Se  Se147  1  0.92248520  0.58340282  0.06372535  1
  Se  Se148  1  0.91960459  0.58895434  0.55772633  1
  Se  Se149  1  0.91201590  0.90908399  0.05552253  1
  Se  Se150  1  0.92672687  0.92619624  0.55523044  1
  Se  Se151  1  0.07832776  0.25235645  0.43226871  1
  Se  Se152  1  0.08030879  0.25285534  0.96172910  1
  Se  Se153  1  0.07975522  0.57716793  0.44335701  1
  Se  Se154  1  0.08155882  0.58767749  0.94973772  1
  Se  Se155  1  0.09477780  0.90231386  0.44510311  1
  Se  Se156  1  0.08227154  0.91529950  0.94426104  1
  Se  Se157  1  0.41399996  0.24643770  0.45065326  1
  Se  Se158  1  0.41406618  0.26102456  0.94071285  1
  Se  Se159  1  0.42615128  0.56527048  0.45291122  1
  Se  Se160  1  0.42007005  0.58703275  0.94597176  1
  Se  Se161  1  0.42030463  0.91484955  0.44955894  1
  Se  Se162  1  0.40691315  0.93268967  0.94179008  1
  Se  Se163  1  0.73913874  0.26490259  0.44436585  1
  Se  Se164  1  0.74681262  0.24257373  0.94615032  1
  Se  Se165  1  0.73916982  0.59525306  0.44393902  1
  Se  Se166  1  0.74509239  0.58587240  0.93238297  1
  Se  Se167  1  0.74470971  0.92913635  0.44436244  1
  Se  Se168  1  0.75173685  0.91044325  0.94570151  1
  Se  Se169  1  0.25992065  0.07421363  0.43649118  1
  Se  Se170  1  0.24058454  0.10237024  0.94580337  1
  Se  Se171  1  0.24524841  0.40720421  0.44706645  1
  Se  Se172  1  0.23875814  0.43312278  0.95373736  1
  Se  Se173  1  0.26527536  0.73001423  0.44951409  1
  Se  Se174  1  0.24875021  0.75671561  0.94561447  1
  Se  Se175  1  0.57981993  0.09256805  0.45141756  1
  Se  Se176  1  0.58606091  0.07305592  0.94045408  1
  Se  Se177  1  0.57681967  0.42291403  0.45356313  1
  Se  Se178  1  0.58713268  0.42072474  0.93906096  1
  Se  Se179  1  0.58478517  0.75318479  0.45232260  1
  Se  Se180  1  0.58964813  0.74429165  0.93395477  1
  Se  Se181  1  0.92642459  0.07523915  0.43996341  1
  Se  Se182  1  0.91299045  0.07880218  0.95047136  1
  Se  Se183  1  0.92079800  0.41353268  0.43410720  1
  Se  Se184  1  0.92823219  0.40713114  0.94093257  1
  Se  Se185  1  0.92269664  0.74614599  0.44035897  1
  Se  Se186  1  0.91049368  0.74617612  0.94512554  1
  Se  Se187  1  0.24987618  0.24467661  0.29550466  1
  Se  Se188  1  0.24944706  0.26230432  0.81025118  1
  Se  Se189  1  0.23909888  0.57221051  0.31187297  1
  Se  Se190  1  0.25022304  0.58283633  0.81301880  1
  Se  Se191  1  0.25026652  0.90663923  0.30584202  1
  Se  Se192  1  0.24466908  0.92612247  0.80368799  1
  Se  Se193  1  0.57539544  0.25230639  0.31436456  1
  Se  Se194  1  0.58354787  0.25235003  0.80301004  1
  Se  Se195  1  0.56679764  0.58291419  0.31156035  1
  Se  Se196  1  0.58616150  0.57932561  0.79786819  1
  Se  Se197  1  0.59002270  0.92382100  0.30598437  1
  Se  Se198  1  0.58317415  0.91695498  0.79834355  1
  Se  Se199  1  0.92032642  0.25238041  0.29493808  1
  Se  Se200  1  0.91466360  0.23573393  0.81173311  1
  Se  Se201  1  0.92122211  0.58939590  0.29697916  1
  Se  Se202  1  0.91887766  0.57221342  0.79935777  1
  Se  Se203  1  0.92143979  0.92390818  0.30004065  1
  Se  Se204  1  0.91180590  0.91130968  0.81243690  1
  Se  Se205  1  0.08763815  0.07871343  0.29965765  1
  Se  Se206  1  0.08302083  0.09499640  0.81291131  1
  Se  Se207  1  0.08401990  0.41001261  0.29604833  1
  Se  Se208  1  0.09935877  0.42032084  0.81798204  1
  Se  Se209  1  0.08272686  0.74414906  0.30562601  1
  Se  Se210  1  0.08363006  0.74838955  0.80390479  1
  Se  Se211  1  0.42503378  0.08692924  0.31207619  1
  Se  Se212  1  0.41303679  0.08675737  0.80243215  1
  Se  Se213  1  0.40593351  0.41312502  0.30901825  1
  Se  Se214  1  0.41116093  0.42023712  0.80457341  1
  Se  Se215  1  0.42562851  0.76062425  0.31309756  1
  Se  Se216  1  0.42174295  0.76044567  0.81038160  1
  Se  Se217  1  0.75415588  0.09341774  0.30489628  1
  Se  Se218  1  0.74358820  0.07628285  0.80341641  1
  Se  Se219  1  0.75864065  0.43159099  0.31037909  1
  Se  Se220  1  0.77049401  0.41436374  0.80047381  1
  Se  Se221  1  0.76246541  0.76375231  0.31206182  1
  Se  Se222  1  0.74955712  0.74629176  0.80225366  1
  Se  Se223  1  0.24215772  0.08726747  0.18143074  1
  Se  Se224  1  0.24316609  0.08598975  0.70372065  1
  Se  Se225  1  0.24939410  0.40937094  0.18674174  1
  Se  Se226  1  0.25229198  0.41856854  0.69926424  1
  Se  Se227  1  0.24655599  0.74685058  0.19506054  1
  Se  Se228  1  0.24479580  0.76310384  0.68898250  1
  Se  Se229  1  0.58844042  0.08293718  0.20339359  1
  Se  Se230  1  0.57870190  0.08300726  0.69645427  1
  Se  Se231  1  0.57982902  0.42313364  0.19686825  1
  Se  Se232  1  0.58155346  0.41044690  0.69804143  1
  Se  Se233  1  0.57892907  0.75518516  0.19237648  1
  Se  Se234  1  0.58271014  0.74213183  0.69805796  1
  Se  Se235  1  0.92061190  0.07961986  0.19097632  1
  Se  Se236  1  0.91019523  0.09212048  0.68719733  1
  Se  Se237  1  0.91730073  0.41385539  0.19617950  1
  Se  Se238  1  0.91962788  0.42047396  0.68141281  1
  Se  Se239  1  0.91881580  0.74999305  0.19655047  1
  Se  Se240  1  0.92312797  0.75007039  0.70167610  1
  Se  Se241  1  0.07803069  0.24911534  0.18873620  1
  Se  Se242  1  0.08598739  0.25556722  0.69799223  1
  Se  Se243  1  0.08361932  0.58579340  0.19969603  1
  Se  Se244  1  0.08791636  0.58794891  0.69877452  1
  Se  Se245  1  0.08609846  0.91720427  0.19506528  1
  Se  Se246  1  0.08699996  0.91468081  0.68820939  1
  Se  Se247  1  0.41697206  0.25051999  0.19854882  1
  Se  Se248  1  0.40978151  0.25475003  0.70211861  1
  Se  Se249  1  0.41164541  0.56962900  0.18891218  1
  Se  Se250  1  0.42061164  0.57871568  0.68642772  1
  Se  Se251  1  0.42247183  0.90958365  0.18990902  1
  Se  Se252  1  0.41505104  0.91900213  0.69267681  1
  Se  Se253  1  0.75695176  0.24655856  0.18425684  1
  Se  Se254  1  0.74719997  0.25106142  0.70261756  1
  Se  Se255  1  0.75139608  0.58099493  0.18797199  1
  Se  Se256  1  0.76041416  0.57122092  0.70529190  1
  Se  Se257  1  0.74849182  0.92093497  0.19554749  1
  Se  Se258  1  0.74892837  0.91761062  0.70043796  1
