# generated using pymatgen
data_In86Cu29Se144
_symmetry_space_group_name_H-M   'P 1'
_cell_length_a   17.58477530
_cell_length_b   17.58777715
_cell_length_c   23.44504068
_cell_angle_alpha   90.02327550
_cell_angle_beta   90.00903512
_cell_angle_gamma   90.02747251
_symmetry_Int_Tables_number   1
_chemical_formula_structural   In86Cu29Se144
_chemical_formula_sum   'In86 Cu29 Se144'
_cell_volume   7251.01288534
_cell_formula_units_Z   1
loop_
 _symmetry_equiv_pos_site_id
 _symmetry_equiv_pos_as_xyz
  1  'x, y, z'
loop_
 _atom_site_type_symbol
 _atom_site_label
 _atom_site_symmetry_multiplicity
 _atom_site_fract_x
 _atom_site_fract_y
 _atom_site_fract_z
 _atom_site_occupancy
  In  In0  1  0.00707039  0.15343377  0.13435730  1
  In  In1  1  -0.03403285  0.18569320  0.65631993  1
  In  In2  1  -0.00930129  0.51262042  0.13024223  1
  In  In3  1  -0.00178606  0.49490500  0.62538527  1
  In  In4  1  0.00179286  0.83399692  0.12236936  1
  In  In5  1  0.00177596  0.82582609  0.62845862  1
  In  In6  1  0.32283109  0.16183438  0.11391189  1
  In  In7  1  0.33915365  0.15172501  0.62230161  1
  In  In8  1  0.33754669  0.48609179  0.12100102  1
  In  In9  1  0.33275194  0.51539155  0.62587791  1
  In  In10  1  0.32729625  0.84867827  0.12893370  1
  In  In11  1  0.31969299  0.83769516  0.62450478  1
  In  In12  1  0.65719684  0.16967680  0.12342840  1
  In  In13  1  0.66353996  0.19127305  0.62827897  1
  In  In14  1  0.68146646  0.50730795  0.11250468  1
  In  In15  1  0.67196587  0.49726755  0.63641605  1
  In  In16  1  0.67906717  0.82307741  0.12761321  1
  In  In17  1  0.66687081  0.81289301  0.62919866  1
  In  In18  1  0.15664101  -0.01427088  0.36243827  1
  In  In19  1  0.16117833  0.00579456  0.88746145  1
  In  In20  1  0.15966690  0.34525118  0.38101263  1
  In  In21  1  0.15117909  0.33360761  0.87490769  1
  In  In22  1  0.15224879  0.67878157  0.38782277  1
  In  In23  1  0.17145035  0.67681809  0.87283860  1
  In  In24  1  0.50572642  0.00586444  0.36325141  1
  In  In25  1  0.50973427  0.01012194  0.87963595  1
  In  In26  1  0.49302091  0.33192520  0.37985820  1
  In  In27  1  0.52136158  0.31954225  0.87310484  1
  In  In28  1  0.51293321  0.66133710  0.37174788  1
  In  In29  1  0.48732597  0.66254588  0.86844544  1
  In  In30  1  0.83662572  0.00687033  0.35728476  1
  In  In31  1  0.83185512  -0.01538894  0.88190959  1
  In  In32  1  0.84583368  0.32964174  0.37555710  1
  In  In33  1  0.84538588  0.34568262  0.85820263  1
  In  In34  1  0.82855888  0.65840431  0.37414234  1
  In  In35  1  0.83651032  0.66608878  0.86961332  1
  In  In36  1  -0.00548080  0.16883876  0.36225434  1
  In  In37  1  0.00417806  0.17461634  0.87282020  1
  In  In38  1  -0.00275384  0.50182419  0.37703931  1
  In  In39  1  -0.01776976  0.50073192  0.86306974  1
  In  In40  1  0.01174386  0.83530012  0.36963904  1
  In  In41  1  0.00154861  0.83194897  0.87785793  1
  In  In42  1  0.34325057  0.16540746  0.37509102  1
  In  In43  1  0.33945329  0.16197492  0.88097393  1
  In  In44  1  0.32915865  0.48921983  0.37817195  1
  In  In45  1  0.33370479  0.51721528  0.87240056  1
  In  In46  1  0.31545611  0.83401333  0.37117435  1
  In  In47  1  0.33096739  0.81839044  0.87731740  1
  In  In48  1  0.67540643  0.15557929  0.37485705  1
  In  In49  1  0.66045145  0.17029008  0.87161904  1
  In  In50  1  0.66499802  0.51300670  0.37619684  1
  In  In51  1  0.67551105  0.49524959  0.86809114  1
  In  In52  1  0.67173215  0.83611141  0.36710975  1
  In  In53  1  0.67667042  0.84030078  0.87712773  1
  In  In54  1  0.16173246  -0.00180614  0.12499797  1
  In  In55  1  0.15949872  -0.00960544  0.62007731  1
  In  In56  1  0.16720257  0.32134440  0.12187088  1
  In  In57  1  0.14685600  0.33192939  0.62716377  1
  In  In58  1  0.14865097  0.66875729  0.12661114  1
  In  In59  1  0.16329068  0.66923844  0.62230827  1
  In  In60  1  0.49049719  0.00801727  0.12917186  1
  In  In61  1  0.49634968  0.00095458  0.61956446  1
  In  In62  1  0.50287740  0.33379061  0.11190422  1
  In  In63  1  0.51562190  0.32439461  0.62681511  1
  In  In64  1  0.51760457  0.66868246  0.11927947  1
  In  In65  1  0.51053582  0.66196887  0.64556722  1
  In  In66  1  0.85099514  -0.01284384  0.13747183  1
  In  In67  1  0.83776925  0.01819714  0.62970822  1
  In  In68  1  0.83138577  0.34705928  0.12374462  1
  In  In69  1  0.81189895  0.35837012  0.65689466  1
  In  In70  1  0.83516865  0.66656932  0.11968398  1
  In  In71  1  0.85626305  0.63415210  0.65478608  1
  In  In72  1  0.50012307  0.83474081  -0.00148029  1
  In  In73  1  0.33546761  -0.00631821  0.75515449  1
  In  In74  1  0.33026209  0.32984364  0.25352404  1
  In  In75  1  0.49601690  0.49567353  0.50048810  1
  In  In76  1  0.67164662  0.33185999  0.24944380  1
  In  In77  1  0.16350567  0.15932547  0.50330379  1
  In  In78  1  0.49626993  0.82952931  0.50432380  1
  In  In79  1  0.33328809  0.33567175  0.74264879  1
  In  In80  1  0.33112958  0.66957886  0.25071577  1
  In  In81  1  0.16378319  0.50362511  -0.00210486  1
  In  In82  1  0.83237663  0.16805676  0.00397861  1
  In  In83  1  0.67025088  -0.00258377  0.75101031  1
  In  In84  1  0.83442153  0.83043282  0.49868352  1
  In  In85  1  0.83299213  0.17440711  0.50201636  1
  Cu  Cu86  1  0.83584770  0.83373114  0.75577134  1
  Cu  Cu87  1  0.67482253  0.66038004  0.50402262  1
  Cu  Cu88  1  -0.00579294  0.66771414  -0.00190282  1
  Cu  Cu89  1  0.32940351  0.33118686  0.50042024  1
  Cu  Cu90  1  0.33497006  -0.00250826  0.49583289  1
  Cu  Cu91  1  0.00228147  0.00199299  0.49820235  1
  Cu  Cu92  1  0.67150539  0.33807932  -0.00644700  1
  Cu  Cu93  1  0.49934758  0.49676915  0.75479617  1
  Cu  Cu94  1  0.66769462  0.00102831  0.00243569  1
  Cu  Cu95  1  0.34282170  0.33606408  -0.00717208  1
  Cu  Cu96  1  0.00115869  -0.00264206  0.00700182  1
  Cu  Cu97  1  0.32876322  0.66929738  0.50342370  1
  Cu  Cu98  1  0.33209447  0.66797184  -0.00170404  1
  Cu  Cu99  1  0.15887646  0.51198243  0.75114537  1
  Cu  Cu100  1  0.51197117  0.50672795  0.24371351  1
  Cu  Cu101  1  0.16640047  0.16097420  0.24520365  1
  Cu  Cu102  1  0.50540529  0.83431301  0.24459372  1
  Cu  Cu103  1  0.83733475  0.50646449  0.24719138  1
  Cu  Cu104  1  0.66173383  0.00446020  0.49260114  1
  Cu  Cu105  1  0.16193090  0.82847984  0.74865517  1
  Cu  Cu106  1  0.16642793  0.16381496  0.75570771  1
  Cu  Cu107  1  -0.00075396  0.66128091  0.50798534  1
  Cu  Cu108  1  0.15777474  0.50094113  0.25660774  1
  Cu  Cu109  1  0.66946430  0.65733634  -0.00569037  1
  Cu  Cu110  1  0.83785313  0.82338923  0.24777094  1
  Cu  Cu111  1  0.49623178  0.16593478  0.24637582  1
  Cu  Cu112  1  0.33098524  0.00495139  0.00507102  1
  Cu  Cu113  1  -0.00427921  0.34053942  0.50204890  1
  Cu  Cu114  1  -0.00224704  0.33363918  -0.00459254  1
  Se  Se115  1  0.08443248  0.08673344  0.05450217  1
  Se  Se116  1  0.06651321  0.08516957  0.56616800  1
  Se  Se117  1  0.07659967  0.41410784  0.05984709  1
  Se  Se118  1  0.08524597  0.41968737  0.55214172  1
  Se  Se119  1  0.08106694  0.74913412  0.04987024  1
  Se  Se120  1  0.08175800  0.75415201  0.55215936  1
  Se  Se121  1  0.42178187  0.08794636  0.05130905  1
  Se  Se122  1  0.41980980  0.08148053  0.54619614  1
  Se  Se123  1  0.42275348  0.42217338  0.04542068  1
  Se  Se124  1  0.40817702  0.40819153  0.56515782  1
  Se  Se125  1  0.40956419  0.74808184  0.06277678  1
  Se  Se126  1  0.41378666  0.73786418  0.56729355  1
  Se  Se127  1  0.74971528  0.07464170  0.06640393  1
  Se  Se128  1  0.73983088  0.08009802  0.55782111  1
  Se  Se129  1  0.75874028  0.41908695  0.04455822  1
  Se  Se130  1  0.74711735  0.41132759  0.56748579  1
  Se  Se131  1  0.74768688  0.74471599  0.04938272  1
  Se  Se132  1  0.75859140  0.73586956  0.56321038  1
  Se  Se133  1  0.25436538  0.25805357  0.04669102  1
  Se  Se134  1  0.25254289  0.25243707  0.56453284  1
  Se  Se135  1  0.25451450  0.58939803  0.06300287  1
  Se  Se136  1  0.24556641  0.58282892  0.55291733  1
  Se  Se137  1  0.24689630  0.91815055  0.05309841  1
  Se  Se138  1  0.24813696  0.91841107  0.54906580  1
  Se  Se139  1  0.58980089  0.25187397  0.04658642  1
  Se  Se140  1  0.58075281  0.24712463  0.54804994  1
  Se  Se141  1  0.58249009  0.57797143  0.04772244  1
  Se  Se142  1  0.58161450  0.58924503  0.56018312  1
  Se  Se143  1  0.58688125  0.92042784  0.06385217  1
  Se  Se144  1  0.59681945  0.91727242  0.55838432  1
  Se  Se145  1  0.92578424  0.25534704  0.06329321  1
  Se  Se146  1  0.92073649  0.26023739  0.56477889  1
  Se  Se147  1  0.91484252  0.57921602  0.04985906  1
  Se  Se148  1  0.91161416  0.58147194  0.56009458  1
  Se  Se149  1  0.91259540  0.91346190  0.05358976  1
  Se  Se150  1  0.91857137  0.92558514  0.55937217  1
  Se  Se151  1  0.07128551  0.25097256  0.44374604  1
  Se  Se152  1  0.08437470  0.24752623  0.94952963  1
  Se  Se153  1  0.08165755  0.57978256  0.44983385  1
  Se  Se154  1  0.07365456  0.58796553  0.93515241  1
  Se  Se155  1  0.08419722  0.91838225  0.44505405  1
  Se  Se156  1  0.08246652  0.91348223  0.95066065  1
  Se  Se157  1  0.41441242  0.24873977  0.44966343  1
  Se  Se158  1  0.42582886  0.25023361  0.94198134  1
  Se  Se159  1  0.40962498  0.59344533  0.43961267  1
  Se  Se160  1  0.41736943  0.58519135  0.94840807  1
  Se  Se161  1  0.41612694  0.91723472  0.43593845  1
  Se  Se162  1  0.40804361  0.92613678  0.93955213  1
  Se  Se163  1  0.74107585  0.25996746  0.43992515  1
  Se  Se164  1  0.75386948  0.25661660  0.93531595  1
  Se  Se165  1  0.75538404  0.57680555  0.44989935  1
  Se  Se166  1  0.75526436  0.57973121  0.93879731  1
  Se  Se167  1  0.75010171  0.92803966  0.43790422  1
  Se  Se168  1  0.75043157  0.91173768  0.95655674  1
  Se  Se169  1  0.25078904  0.07612579  0.43668170  1
  Se  Se170  1  0.25007811  0.08995052  0.95029335  1
  Se  Se171  1  0.24655827  0.41825225  0.45252186  1
  Se  Se172  1  0.25519658  0.41437809  0.93623674  1
  Se  Se173  1  0.24932013  0.75517327  0.45021331  1
  Se  Se174  1  0.24443474  0.75208228  0.95216644  1
  Se  Se175  1  0.57763030  0.08568893  0.44039600  1
  Se  Se176  1  0.59028129  0.08907031  0.94999918  1
  Se  Se177  1  0.59137058  0.41127580  0.44152609  1
  Se  Se178  1  0.58669765  0.41865733  0.93914290  1
  Se  Se179  1  0.59658054  0.74508909  0.44481067  1
  Se  Se180  1  0.58741558  0.74305467  0.93832393  1
  Se  Se181  1  0.91936151  0.07949216  0.43896868  1
  Se  Se182  1  0.92271175  0.07768471  0.94404304  1
  Se  Se183  1  0.91188838  0.42052481  0.44700884  1
  Se  Se184  1  0.91658678  0.41587994  0.94023499  1
  Se  Se185  1  0.92631293  0.74165252  0.44031001  1
  Se  Se186  1  0.91170916  0.75056682  0.94325423  1
  Se  Se187  1  0.23710069  0.24234333  0.31357979  1
  Se  Se188  1  0.24942385  0.24658607  0.81107667  1
  Se  Se189  1  0.24527831  0.57758725  0.31295749  1
  Se  Se190  1  0.24841886  0.59044200  0.80184574  1
  Se  Se191  1  0.25616663  0.92158356  0.29698111  1
  Se  Se192  1  0.23901374  0.90890163  0.81273394  1
  Se  Se193  1  0.57397186  0.24651168  0.30840679  1
  Se  Se194  1  0.59196116  0.24759596  0.79339749  1
  Se  Se195  1  0.59399227  0.58928711  0.29716845  1
  Se  Se196  1  0.58137417  0.58143978  0.80783523  1
  Se  Se197  1  0.58873301  0.91811172  0.29936250  1
  Se  Se198  1  0.57427211  0.91149454  0.81090120  1
  Se  Se199  1  0.90940163  0.25073324  0.29785226  1
  Se  Se200  1  0.91559078  0.24129667  0.80191512  1
  Se  Se201  1  0.91998629  0.58630686  0.30516832  1
  Se  Se202  1  0.90500801  0.58307023  0.79249755  1
  Se  Se203  1  0.91849223  0.90879463  0.30277894  1
  Se  Se204  1  0.91874078  0.91688871  0.80866318  1
  Se  Se205  1  0.08029998  0.08154866  0.30031779  1
  Se  Se206  1  0.08591274  0.08063215  0.81064583  1
  Se  Se207  1  0.07608142  0.41310909  0.30661109  1
  Se  Se208  1  0.08294794  0.42286979  0.80458671  1
  Se  Se209  1  0.09278047  0.74825753  0.30389504  1
  Se  Se210  1  0.07837884  0.74755294  0.80478298  1
  Se  Se211  1  0.41108900  0.08337188  0.29881918  1
  Se  Se212  1  0.42800826  0.09143832  0.80466309  1
  Se  Se213  1  0.42889720  0.42789534  0.30346700  1
  Se  Se214  1  0.41766712  0.41604129  0.81343665  1
  Se  Se215  1  0.42743554  0.75718214  0.31081426  1
  Se  Se216  1  0.41323462  0.75415810  0.80210892  1
  Se  Se217  1  0.74606675  0.08665819  0.29550323  1
  Se  Se218  1  0.75925996  0.08313854  0.81400099  1
  Se  Se219  1  0.75648781  0.42707712  0.30939602  1
  Se  Se220  1  0.74402772  0.40873446  0.79348287  1
  Se  Se221  1  0.75193527  0.74564057  0.30454327  1
  Se  Se222  1  0.74753609  0.75354641  0.80600031  1
  Se  Se223  1  0.25200009  0.08329073  0.19028415  1
  Se  Se224  1  0.24225876  0.08348847  0.69324617  1
  Se  Se225  1  0.23975717  0.42385044  0.19472903  1
  Se  Se226  1  0.23707811  0.42803380  0.68999018  1
  Se  Se227  1  0.23993913  0.75643149  0.19147650  1
  Se  Se228  1  0.24759925  0.74943227  0.69416035  1
  Se  Se229  1  0.58326459  0.08455819  0.19520673  1
  Se  Se230  1  0.58261342  0.08574228  0.68721324  1
  Se  Se231  1  0.58454559  0.41993588  0.18430966  1
  Se  Se232  1  0.57993516  0.41494204  0.69888186  1
  Se  Se233  1  0.58777697  0.74670996  0.19595353  1
  Se  Se234  1  0.57544187  0.76495280  0.70573138  1
  Se  Se235  1  0.91339873  0.08729110  0.20212893  1
  Se  Se236  1  0.93552406  0.05792994  0.70484323  1
  Se  Se237  1  0.91774549  0.41779176  0.19665723  1
  Se  Se238  1  0.93376570  0.40875646  0.70204351  1
  Se  Se239  1  0.92005090  0.74511614  0.18965646  1
  Se  Se240  1  0.91955227  0.75155535  0.70170933  1
  Se  Se241  1  0.08570027  0.25126112  0.19634366  1
  Se  Se242  1  0.08324018  0.25024687  0.70466437  1
  Se  Se243  1  0.07930287  0.58549448  0.20112915  1
  Se  Se244  1  0.07820475  0.58846121  0.69053371  1
  Se  Se245  1  0.06950080  0.92668448  0.19221555  1
  Se  Se246  1  0.08273659  0.91479525  0.69530500  1
  Se  Se247  1  0.41916029  0.24920963  0.18602993  1
  Se  Se248  1  0.42252240  0.23711242  0.69156705  1
  Se  Se249  1  0.42121598  0.57975601  0.18727085  1
  Se  Se250  1  0.41394317  0.58072833  0.70359782  1
  Se  Se251  1  0.41709254  0.91838259  0.19876753  1
  Se  Se252  1  0.42354767  0.90869851  0.68943555  1
  Se  Se253  1  0.75855215  0.24425859  0.18718276  1
  Se  Se254  1  0.78627447  0.21689945  0.68490154  1
  Se  Se255  1  0.75141003  0.58397814  0.19089178  1
  Se  Se256  1  0.72048594  0.61355519  0.69232415  1
  Se  Se257  1  0.75280107  0.91019809  0.19810920  1
  Se  Se258  1  0.75984331  0.90841079  0.68732300  1
