# generated using pymatgen
data_In86Cu29Se144
_symmetry_space_group_name_H-M   'P 1'
_cell_length_a   17.57662946
_cell_length_b   17.57520413
_cell_length_c   23.43465766
_cell_angle_alpha   90.00213453
_cell_angle_beta   90.00822879
_cell_angle_gamma   90.00888578
_symmetry_Int_Tables_number   1
_chemical_formula_structural   In86Cu29Se144
_chemical_formula_sum   'In86 Cu29 Se144'
_cell_volume   7239.26673782
_cell_formula_units_Z   1
loop_
 _symmetry_equiv_pos_site_id
 _symmetry_equiv_pos_as_xyz
  1  'x, y, z'
loop_
 _atom_site_type_symbol
 _atom_site_label
 _atom_site_symmetry_multiplicity
 _atom_site_fract_x
 _atom_site_fract_y
 _atom_site_fract_z
 _atom_site_occupancy
  In  In0  1  -0.01127086  0.16067861  0.11814192  1
  In  In1  1  -0.00226329  0.15624943  0.62172279  1
  In  In2  1  -0.00167963  0.51899908  0.12324993  1
  In  In3  1  -0.00150451  0.49475273  0.63008274  1
  In  In4  1  0.01146550  0.82542893  0.12676950  1
  In  In5  1  0.01426947  0.84701908  0.61496513  1
  In  In6  1  0.33341109  0.16304838  0.12462070  1
  In  In7  1  0.33087380  0.16390112  0.61858421  1
  In  In8  1  0.33764747  0.48995478  0.13298740  1
  In  In9  1  0.33322394  0.47829634  0.62451684  1
  In  In10  1  0.34083467  0.84454346  0.11883676  1
  In  In11  1  0.33021174  0.85588621  0.62518156  1
  In  In12  1  0.66446242  0.16710412  0.12877423  1
  In  In13  1  0.67031337  0.17137028  0.60732262  1
  In  In14  1  0.67366742  0.48638326  0.14105943  1
  In  In15  1  0.66544521  0.50755642  0.62097121  1
  In  In16  1  0.66000361  0.84819289  0.13553106  1
  In  In17  1  0.67145534  0.81993296  0.61734095  1
  In  In18  1  0.16497585  -0.00038021  0.37018402  1
  In  In19  1  0.16548268  0.00739146  0.87403106  1
  In  In20  1  0.16744726  0.31457089  0.37564524  1
  In  In21  1  0.15940100  0.30351222  0.86991490  1
  In  In22  1  0.16448325  0.68166521  0.37444310  1
  In  In23  1  0.17563038  0.67086248  0.88073991  1
  In  In24  1  0.51014890  0.01404086  0.36555062  1
  In  In25  1  0.48760782  0.01492687  0.88547505  1
  In  In26  1  0.49976407  0.32992830  0.37445981  1
  In  In27  1  0.48376553  0.33023732  0.87177991  1
  In  In28  1  0.50536357  0.65223881  0.37327294  1
  In  In29  1  0.51070367  0.66742867  0.88211973  1
  In  In30  1  0.83357793  -0.00038706  0.37378431  1
  In  In31  1  0.85021125  0.00174934  0.87486604  1
  In  In32  1  0.81346490  0.33102225  0.37708961  1
  In  In33  1  0.84300987  0.32980756  0.89259509  1
  In  In34  1  0.83455578  0.67057214  0.36713812  1
  In  In35  1  0.83094218  0.66020707  0.88300893  1
  In  In36  1  0.00872743  0.15244649  0.37951108  1
  In  In37  1  0.01618111  0.15824279  0.89778375  1
  In  In38  1  -0.01139137  0.50254619  0.37119942  1
  In  In39  1  -0.00452991  0.48592567  0.88316051  1
  In  In40  1  -0.00184583  0.83542497  0.36941597  1
  In  In41  1  -0.00024471  0.85377573  0.87295655  1
  In  In42  1  0.33233184  0.16530491  0.37084098  1
  In  In43  1  0.33198396  0.16564406  0.87365078  1
  In  In44  1  0.35525157  0.49540571  0.37431947  1
  In  In45  1  0.33682504  0.48910462  0.86963966  1
  In  In46  1  0.31578669  0.83787551  0.37672049  1
  In  In47  1  0.31889130  0.85048450  0.88750313  1
  In  In48  1  0.66713588  0.16831899  0.37884669  1
  In  In49  1  0.66427912  0.17180920  0.88606478  1
  In  In50  1  0.62894404  0.47287441  0.33807412  1
  In  In51  1  0.67449994  0.50496847  0.88048241  1
  In  In52  1  0.67587355  0.84477507  0.36387844  1
  In  In53  1  0.66602372  0.82431675  0.88226190  1
  In  In54  1  0.16624889  0.00073189  0.12478210  1
  In  In55  1  0.16890476  0.00288003  0.62067475  1
  In  In56  1  0.18126955  0.33202084  0.12641724  1
  In  In57  1  0.18619761  0.32293137  0.63396068  1
  In  In58  1  0.15047358  0.67074948  0.12198521  1
  In  In59  1  0.15457500  0.66954010  0.62322968  1
  In  In60  1  0.49842187  0.00151005  0.12687117  1
  In  In61  1  0.48066182  0.00601099  0.62457926  1
  In  In62  1  0.51170256  0.32526704  0.13817082  1
  In  In63  1  0.48874260  0.31281905  0.60472465  1
  In  In64  1  0.49649540  0.67678223  0.12897653  1
  In  In65  1  0.51400563  0.66569279  0.61822959  1
  In  In66  1  0.82764803  0.01246244  0.13418315  1
  In  In67  1  0.84588062  0.00616464  0.61682990  1
  In  In68  1  0.82625909  0.32091833  0.11861290  1
  In  In69  1  0.84247857  0.32755891  0.62397001  1
  In  In70  1  0.84313608  0.65935130  0.12878540  1
  In  In71  1  0.82262944  0.66464439  0.62108193  1
  In  In72  1  0.00352997  0.32284942  0.75236439  1
  In  In73  1  0.16571076  0.49907549  -0.00025821  1
  In  In74  1  0.66591568  0.33686962  0.75233629  1
  In  In75  1  0.83531205  0.83515268  0.00254672  1
  In  In76  1  -0.00290826  0.33314822  0.24879520  1
  In  In77  1  0.16640359  0.49633893  0.50924088  1
  In  In78  1  0.33457284  0.66841623  0.75542665  1
  In  In79  1  0.49930482  0.83837474  0.49920014  1
  In  In80  1  -0.00242048  0.66645594  0.75459273  1
  In  In81  1  0.66458846  -0.00130377  0.74732801  1
  In  In82  1  0.66906721  0.66520821  0.74989062  1
  In  In83  1  0.82784399  0.49937354  0.49451130  1
  In  In84  1  0.50278429  0.49794053  0.00116643  1
  In  In85  1  0.33097040  0.66848942  0.25249701  1
  Cu  Cu86  1  -0.00105066  -0.00705501  0.49506329  1
  Cu  Cu87  1  0.66541013  0.33137397  0.00950158  1
  Cu  Cu88  1  0.16350053  0.83789404  0.24820859  1
  Cu  Cu89  1  0.16908947  0.84396679  0.74894094  1
  Cu  Cu90  1  0.84361482  0.83496870  0.74473246  1
  Cu  Cu91  1  0.33231835  0.00254857  0.00153276  1
  Cu  Cu92  1  -0.00039209  0.31803790  0.50199955  1
  Cu  Cu93  1  0.33458403  0.32017182  -0.00053528  1
  Cu  Cu94  1  0.67093197  0.66274292  0.49022097  1
  Cu  Cu95  1  0.49504302  0.49245865  0.74301134  1
  Cu  Cu96  1  0.16782787  0.50049462  0.24671837  1
  Cu  Cu97  1  0.66689546  0.66827350  0.00820220  1
  Cu  Cu98  1  0.66727464  -0.00313849  0.49239911  1
  Cu  Cu99  1  -0.00151670  0.67398504  0.49520724  1
  Cu  Cu100  1  0.49679411  0.16362655  0.25000075  1
  Cu  Cu101  1  0.00333365  0.00082745  0.00270616  1
  Cu  Cu102  1  0.49075840  0.16434977  0.74354855  1
  Cu  Cu103  1  0.66584163  0.00334230  0.00975772  1
  Cu  Cu104  1  0.33466653  0.66833208  0.49421539  1
  Cu  Cu105  1  0.49380080  0.84094190  0.75798798  1
  Cu  Cu106  1  0.32879623  0.00738482  0.49627221  1
  Cu  Cu107  1  0.16913953  0.16190049  0.24957786  1
  Cu  Cu108  1  0.83680436  0.16258503  0.75069173  1
  Cu  Cu109  1  0.49504287  0.83731724  0.24997049  1
  Cu  Cu110  1  0.83785753  0.83773419  0.24679084  1
  Cu  Cu111  1  0.83388964  0.50567834  0.24942390  1
  Cu  Cu112  1  0.33543667  0.33130350  0.49633624  1
  Cu  Cu113  1  0.82925336  0.17065505  0.25235548  1
  Cu  Cu114  1  0.33106815  0.67082048  0.00583988  1
  Se  Se115  1  0.08609996  0.08655008  0.05488397  1
  Se  Se116  1  0.08066173  0.07807726  0.55034756  1
  Se  Se117  1  0.08150697  0.41521031  0.06721902  1
  Se  Se118  1  0.07613319  0.39963508  0.56443707  1
  Se  Se119  1  0.08346552  0.75355998  0.04761701  1
  Se  Se120  1  0.08700777  0.75209094  0.54809834  1
  Se  Se121  1  0.41853543  0.08346821  0.05483022  1
  Se  Se122  1  0.41842177  0.08786133  0.54617736  1
  Se  Se123  1  0.41390790  0.40432645  0.05888902  1
  Se  Se124  1  0.41827229  0.41936777  0.54688755  1
  Se  Se125  1  0.42019632  0.75264593  0.05365502  1
  Se  Se126  1  0.40946249  0.74880684  0.56182807  1
  Se  Se127  1  0.75146626  0.08838085  0.05802863  1
  Se  Se128  1  0.75211729  0.07665023  0.54928182  1
  Se  Se129  1  0.74636054  0.41991486  0.05894029  1
  Se  Se130  1  0.74586399  0.40882385  0.56001553  1
  Se  Se131  1  0.74467104  0.75245358  0.06712298  1
  Se  Se132  1  0.75378684  0.74574109  0.54425115  1
  Se  Se133  1  0.24735467  0.24315510  0.05342750  1
  Se  Se134  1  0.24904684  0.25107095  0.55011524  1
  Se  Se135  1  0.25812517  0.58498095  0.06560892  1
  Se  Se136  1  0.26040390  0.59124564  0.56331061  1
  Se  Se137  1  0.24736407  0.91804296  0.05303049  1
  Se  Se138  1  0.24817918  0.91834552  0.54744670  1
  Se  Se139  1  0.57871438  0.24810873  0.05826476  1
  Se  Se140  1  0.59067278  0.25453832  0.54079249  1
  Se  Se141  1  0.58773455  0.58395572  0.06686844  1
  Se  Se142  1  0.58635969  0.58207373  0.54545589  1
  Se  Se143  1  0.58130596  0.91626977  0.05691442  1
  Se  Se144  1  0.58914314  0.92615963  0.56302536  1
  Se  Se145  1  0.92327198  0.25780462  0.05184538  1
  Se  Se146  1  0.91199686  0.23898521  0.55384626  1
  Se  Se147  1  0.91766876  0.59090038  0.04933754  1
  Se  Se148  1  0.92514964  0.58698219  0.55649049  1
  Se  Se149  1  0.91996634  0.92564795  0.06508573  1
  Se  Se150  1  0.91341865  0.90990291  0.54880472  1
  Se  Se151  1  0.08699403  0.24041635  0.44877194  1
  Se  Se152  1  0.06916913  0.27416658  0.95211758  1
  Se  Se153  1  0.07863237  0.58418674  0.44202207  1
  Se  Se154  1  0.07638251  0.59126749  0.94088358  1
  Se  Se155  1  0.08439899  0.91363450  0.43955194  1
  Se  Se156  1  0.08621203  0.92109589  0.94586649  1
  Se  Se157  1  0.41503658  0.24561325  0.44195557  1
  Se  Se158  1  0.42184498  0.24179680  0.94563498  1
  Se  Se159  1  0.42110916  0.58314237  0.44879979  1
  Se  Se160  1  0.40613268  0.58804771  0.94258446  1
  Se  Se161  1  0.41215986  0.92657844  0.43648518  1
  Se  Se162  1  0.42000171  0.91661152  0.95162202  1
  Se  Se163  1  0.74948605  0.24657646  0.45123901  1
  Se  Se164  1  0.74975129  0.24909845  0.95435480  1
  Se  Se165  1  0.74274513  0.57984635  0.42723640  1
  Se  Se166  1  0.74864673  0.58392828  0.95525080  1
  Se  Se167  1  0.75237663  0.91239912  0.44371664  1
  Se  Se168  1  0.74434845  0.92792860  0.94193711  1
  Se  Se169  1  0.24426197  0.08618158  0.43981396  1
  Se  Se170  1  0.25061836  0.08540018  0.94522676  1
  Se  Se171  1  0.25208085  0.41442999  0.43925928  1
  Se  Se172  1  0.25658405  0.40688883  0.94180738  1
  Se  Se173  1  0.24571113  0.75207640  0.45046771  1
  Se  Se174  1  0.24734073  0.75412093  0.95341141  1
  Se  Se175  1  0.58070511  0.08317952  0.44690740  1
  Se  Se176  1  0.58379599  0.08477935  0.95166141  1
  Se  Se177  1  0.58502972  0.42264328  0.43439019  1
  Se  Se178  1  0.58927217  0.40476054  0.93900413  1
  Se  Se179  1  0.58851673  0.75104198  0.43690685  1
  Se  Se180  1  0.58296374  0.75085719  0.95548994  1
  Se  Se181  1  0.91473689  0.08059791  0.44609269  1
  Se  Se182  1  0.91196439  0.08299511  0.95394117  1
  Se  Se183  1  0.92507072  0.40374798  0.44219627  1
  Se  Se184  1  0.90605406  0.42997655  0.95805556  1
  Se  Se185  1  0.91451227  0.75111992  0.43905672  1
  Se  Se186  1  0.92517305  0.75132810  0.93803622  1
  Se  Se187  1  0.25083205  0.24974978  0.29956359  1
  Se  Se188  1  0.26483625  0.26009471  0.80376348  1
  Se  Se189  1  0.24411320  0.57662459  0.31524238  1
  Se  Se190  1  0.24069046  0.57517833  0.80864932  1
  Se  Se191  1  0.25055422  0.91914127  0.29917742  1
  Se  Se192  1  0.25200533  0.92281593  0.80604438  1
  Se  Se193  1  0.58183574  0.24334577  0.30580282  1
  Se  Se194  1  0.57476046  0.23882800  0.80575457  1
  Se  Se195  1  0.59266016  0.60212520  0.29454486  1
  Se  Se196  1  0.57374225  0.57040181  0.80638371  1
  Se  Se197  1  0.58319374  0.92078967  0.29924010  1
  Se  Se198  1  0.58038709  0.91477651  0.81678453  1
  Se  Se199  1  0.91310495  0.24563265  0.31493212  1
  Se  Se200  1  0.91088045  0.24066391  0.81577320  1
  Se  Se201  1  0.92124857  0.58830037  0.29830075  1
  Se  Se202  1  0.90867117  0.57360566  0.81120580  1
  Se  Se203  1  0.91848416  0.92249124  0.30162426  1
  Se  Se204  1  0.92061335  0.92454493  0.79622351  1
  Se  Se205  1  0.08059669  0.08056760  0.29943662  1
  Se  Se206  1  0.07812882  0.09441672  0.81211129  1
  Se  Se207  1  0.09027039  0.42075376  0.31163550  1
  Se  Se208  1  0.08952799  0.41810608  0.81198006  1
  Se  Se209  1  0.08190446  0.75027798  0.29967548  1
  Se  Se210  1  0.09276477  0.75996335  0.80879814  1
  Se  Se211  1  0.41042306  0.07953735  0.30020305  1
  Se  Se212  1  0.41578826  0.08132988  0.80324276  1
  Se  Se213  1  0.41801369  0.40979534  0.30101354  1
  Se  Se214  1  0.41213962  0.40943900  0.79522467  1
  Se  Se215  1  0.41980807  0.75814164  0.31531033  1
  Se  Se216  1  0.42071472  0.75721405  0.81967443  1
  Se  Se217  1  0.74855777  0.08546697  0.30774419  1
  Se  Se218  1  0.75094097  0.08829797  0.81155423  1
  Se  Se219  1  0.75414107  0.41393450  0.29747222  1
  Se  Se220  1  0.75912939  0.41694152  0.81545294  1
  Se  Se221  1  0.75237306  0.75359309  0.29780959  1
  Se  Se222  1  0.76320261  0.75887259  0.80763706  1
  Se  Se223  1  0.25218300  0.07921188  0.19474798  1
  Se  Se224  1  0.26689186  0.06819123  0.68740529  1
  Se  Se225  1  0.25312947  0.41270796  0.20275061  1
  Se  Se226  1  0.23964938  0.42803510  0.69827848  1
  Se  Se227  1  0.24530160  0.75618745  0.18769150  1
  Se  Se228  1  0.24516235  0.75690267  0.69057742  1
  Se  Se229  1  0.58305974  0.08170030  0.19681939  1
  Se  Se230  1  0.58084179  0.09272099  0.68485557  1
  Se  Se231  1  0.57400601  0.42294778  0.20607189  1
  Se  Se232  1  0.57822726  0.41650491  0.68352081  1
  Se  Se233  1  0.58038599  0.75441488  0.19896630  1
  Se  Se234  1  0.57391477  0.76216877  0.69634943  1
  Se  Se235  1  0.91840870  0.09095522  0.20051503  1
  Se  Se236  1  0.91773648  0.07907005  0.69655791  1
  Se  Se237  1  0.91111612  0.42326312  0.18664115  1
  Se  Se238  1  0.90732465  0.41937191  0.69918303  1
  Se  Se239  1  0.91973769  0.75168084  0.19453166  1
  Se  Se240  1  0.91690738  0.75180592  0.68311165  1
  Se  Se241  1  0.08780148  0.24362616  0.18971616  1
  Se  Se242  1  0.09218250  0.23326771  0.69219612  1
  Se  Se243  1  0.08395038  0.58675885  0.19885719  1
  Se  Se244  1  0.09082903  0.57448002  0.69654200  1
  Se  Se245  1  0.07983485  0.92077950  0.19458572  1
  Se  Se246  1  0.08413895  0.92240766  0.69325358  1
  Se  Se247  1  0.41325552  0.24704254  0.19623068  1
  Se  Se248  1  0.41441744  0.25090924  0.68757180  1
  Se  Se249  1  0.42503127  0.57762585  0.19708992  1
  Se  Se250  1  0.42273581  0.58443239  0.68674283  1
  Se  Se251  1  0.41238549  0.92017246  0.19684811  1
  Se  Se252  1  0.41438183  0.92198820  0.70139970  1
  Se  Se253  1  0.74716283  0.25346320  0.19737813  1
  Se  Se254  1  0.75346126  0.24019841  0.69213625  1
  Se  Se255  1  0.74951358  0.58962087  0.19737746  1
  Se  Se256  1  0.76118057  0.56988651  0.69687673  1
  Se  Se257  1  0.74975889  0.92484115  0.20188745  1
  Se  Se258  1  0.75440761  0.90815323  0.68636224  1
