# generated using pymatgen
data_In86Cu29Se144
_symmetry_space_group_name_H-M   'P 1'
_cell_length_a   17.56651616
_cell_length_b   17.56891669
_cell_length_c   23.42129227
_cell_angle_alpha   89.99460198
_cell_angle_beta   89.98490738
_cell_angle_gamma   89.99474729
_symmetry_Int_Tables_number   1
_chemical_formula_structural   In86Cu29Se144
_chemical_formula_sum   'In86 Cu29 Se144'
_cell_volume   7228.38802561
_cell_formula_units_Z   1
loop_
 _symmetry_equiv_pos_site_id
 _symmetry_equiv_pos_as_xyz
  1  'x, y, z'
loop_
 _atom_site_type_symbol
 _atom_site_label
 _atom_site_symmetry_multiplicity
 _atom_site_fract_x
 _atom_site_fract_y
 _atom_site_fract_z
 _atom_site_occupancy
  In  In0  1  0.01601935  0.16076264  0.12406070  1
  In  In1  1  0.00959698  0.15928801  0.63611190  1
  In  In2  1  -0.00101073  0.48378943  0.11085461  1
  In  In3  1  -0.00761903  0.49598346  0.63612249  1
  In  In4  1  0.01265427  0.84225801  0.11939425  1
  In  In5  1  0.01899263  0.85693792  0.61299207  1
  In  In6  1  0.32642260  0.17426287  0.12902404  1
  In  In7  1  0.30807003  0.13146188  0.59646968  1
  In  In8  1  0.33958725  0.50003294  0.11430182  1
  In  In9  1  0.33171113  0.49750874  0.62642631  1
  In  In10  1  0.31853789  0.83484441  0.11753431  1
  In  In11  1  0.35589421  0.86678948  0.59512034  1
  In  In12  1  0.66401684  0.15346657  0.12727338  1
  In  In13  1  0.64599968  0.16002217  0.62238966  1
  In  In14  1  0.66874809  0.51544448  0.12282270  1
  In  In15  1  0.67977801  0.50230014  0.63481546  1
  In  In16  1  0.65005199  0.84668546  0.12765854  1
  In  In17  1  0.66562141  0.83239499  0.62792786  1
  In  In18  1  0.16719541  0.00829057  0.38426001  1
  In  In19  1  0.16408851  0.00366184  0.88365684  1
  In  In20  1  0.16460889  0.31640436  0.35550637  1
  In  In21  1  0.15421118  0.32460030  0.89746790  1
  In  In22  1  0.17508375  0.66330421  0.36628104  1
  In  In23  1  0.16951485  0.66891081  0.88157073  1
  In  In24  1  0.49944450  -0.01349427  0.38564157  1
  In  In25  1  0.49752780  -0.00638449  0.87491640  1
  In  In26  1  0.48124561  0.32750177  0.36518772  1
  In  In27  1  0.50878794  0.33637700  0.88138985  1
  In  In28  1  0.50739246  0.67263939  0.36668270  1
  In  In29  1  0.50417931  0.66853002  0.87614940  1
  In  In30  1  0.82536956  -0.00929082  0.36557941  1
  In  In31  1  0.82869121  -0.00420324  0.86395364  1
  In  In32  1  0.85002712  0.31952812  0.37153266  1
  In  In33  1  0.85077949  0.32950661  0.88499961  1
  In  In34  1  0.83280409  0.68593329  0.37257538  1
  In  In35  1  0.82095591  0.66579506  0.87527604  1
  In  In36  1  0.01493053  0.17097504  0.36165701  1
  In  In37  1  0.00247334  0.16869913  0.87388450  1
  In  In38  1  0.01622023  0.48948100  0.36728514  1
  In  In39  1  0.01244916  0.48044585  0.89653796  1
  In  In40  1  -0.00914013  0.84493704  0.37681252  1
  In  In41  1  0.01086023  0.84485942  0.87439620  1
  In  In42  1  0.32385637  0.16382121  0.37947586  1
  In  In43  1  0.32703989  0.14726293  0.88487640  1
  In  In44  1  0.32514384  0.49732097  0.35717533  1
  In  In45  1  0.32750002  0.49063240  0.89868207  1
  In  In46  1  0.34017746  0.83112323  0.38396020  1
  In  In47  1  0.32360962  0.86202636  0.89676168  1
  In  In48  1  0.66897293  0.14367066  0.37078549  1
  In  In49  1  0.66894210  0.16775364  0.86931618  1
  In  In50  1  0.65244425  0.50423160  0.36719450  1
  In  In51  1  0.65993694  0.51040250  0.88650468  1
  In  In52  1  0.66459247  0.83272230  0.37401070  1
  In  In53  1  0.66411223  0.82682025  0.86812756  1
  In  In54  1  0.16163825  0.00862089  0.11481582  1
  In  In55  1  0.16462945  -0.00058545  0.62570715  1
  In  In56  1  0.17174847  0.32201087  0.11437730  1
  In  In57  1  0.17387838  0.31590272  0.63027919  1
  In  In58  1  0.17882263  0.67692068  0.12167004  1
  In  In59  1  0.15538889  0.68148832  0.63308776  1
  In  In60  1  0.51083439  -0.00676849  0.12270303  1
  In  In61  1  0.50178591  0.00110769  0.62779963  1
  In  In62  1  0.47146104  0.33430331  0.12090707  1
  In  In63  1  0.50204374  0.32003350  0.62740905  1
  In  In64  1  0.49685350  0.67444103  0.12692691  1
  In  In65  1  0.49641799  0.68492737  0.62784693  1
  In  In66  1  0.83452774  -0.00115617  0.12447872  1
  In  In67  1  0.84284471  -0.00700588  0.63198400  1
  In  In68  1  0.83673872  0.34832169  0.12269338  1
  In  In69  1  0.84338772  0.34312935  0.63136552  1
  In  In70  1  0.83234807  0.65356620  0.12646302  1
  In  In71  1  0.81918809  0.66940931  0.63367566  1
  In  In72  1  0.67111068  0.33621806  0.24164724  1
  In  In73  1  0.00201490  0.66548602  0.24294916  1
  In  In74  1  0.83694590  0.83197955  -0.00321098  1
  In  In75  1  -0.00909224  0.66880811  0.75524233  1
  In  In76  1  0.16854806  0.50188470  0.49781013  1
  In  In77  1  0.33181242  0.67835012  0.75718631  1
  In  In78  1  0.83778253  0.16246076  0.50043713  1
  In  In79  1  0.83572793  0.16249024  0.00232702  1
  In  In80  1  0.32652796  0.00473149  0.24828512  1
  In  In81  1  0.49572387  0.50337232  0.50132847  1
  In  In82  1  0.33536541  0.32328646  0.76132024  1
  In  In83  1  0.83110094  0.50601098  0.50597270  1
  In  In84  1  0.67249487  0.32960845  0.74891000  1
  In  In85  1  0.49078424  0.16618571  0.00326774  1
  Cu  Cu86  1  0.34433961  0.67051204  0.00119201  1
  Cu  Cu87  1  0.00185731  0.66526617  0.00462284  1
  Cu  Cu88  1  0.50382438  0.51006644  0.75991435  1
  Cu  Cu89  1  0.48570204  0.15394126  0.74734992  1
  Cu  Cu90  1  0.33038118  0.67029701  0.49393756  1
  Cu  Cu91  1  0.82574056  0.83435786  0.24556873  1
  Cu  Cu92  1  0.50360146  0.15992981  0.24918572  1
  Cu  Cu93  1  0.66265541  0.33704362  0.00703502  1
  Cu  Cu94  1  0.00041711  0.00753479  0.49785040  1
  Cu  Cu95  1  0.66540070  -0.00798857  0.50017776  1
  Cu  Cu96  1  0.65975122  0.32395114  0.49729107  1
  Cu  Cu97  1  0.49764626  0.83741346  0.74908284  1
  Cu  Cu98  1  0.66369283  0.67417240  0.00216441  1
  Cu  Cu99  1  0.17815119  0.84779534  0.75040311  1
  Cu  Cu100  1  0.66302675  0.67369293  0.50033164  1
  Cu  Cu101  1  0.32858205  0.32062581  0.49212962  1
  Cu  Cu102  1  0.84955469  0.16314511  0.24566538  1
  Cu  Cu103  1  0.83792849  0.49235416  0.76062039  1
  Cu  Cu104  1  0.49589241  0.83229606  0.25530825  1
  Cu  Cu105  1  0.49539359  0.50486674  0.24172773  1
  Cu  Cu106  1  0.17408456  0.49236509  0.23447850  1
  Cu  Cu107  1  0.16212716  0.48964563  0.76811111  1
  Cu  Cu108  1  0.83535471  0.16479795  0.75279290  1
  Cu  Cu109  1  0.16297349  0.16260226  0.75054161  1
  Cu  Cu110  1  0.83616985  0.50051599  0.24809268  1
  Cu  Cu111  1  0.00882765  0.33062375  0.49708759  1
  Cu  Cu112  1  0.16714241  0.83899389  0.24428539  1
  Cu  Cu113  1  0.83708549  0.83171710  0.74841878  1
  Cu  Cu114  1  -0.00248291  0.68040636  0.50017770  1
  Se  Se115  1  0.09494060  0.10114152  0.04005571  1
  Se  Se116  1  0.08080978  0.08710386  0.55663978  1
  Se  Se117  1  0.10296289  0.42241143  0.04733982  1
  Se  Se118  1  0.07995332  0.41390776  0.56366244  1
  Se  Se119  1  0.08582083  0.75042531  0.05374019  1
  Se  Se120  1  0.08984256  0.75485874  0.55132912  1
  Se  Se121  1  0.40779339  0.07461925  0.06581172  1
  Se  Se122  1  0.43927493  0.09935341  0.55790697  1
  Se  Se123  1  0.42149477  0.42053934  0.04202827  1
  Se  Se124  1  0.40436185  0.40273320  0.55617489  1
  Se  Se125  1  0.41769530  0.75918904  0.05685671  1
  Se  Se126  1  0.41991449  0.74811145  0.54709199  1
  Se  Se127  1  0.73769562  0.06933588  0.05232022  1
  Se  Se128  1  0.74479547  0.07573645  0.56105466  1
  Se  Se129  1  0.74597707  0.42316868  0.05670190  1
  Se  Se130  1  0.73967297  0.40351285  0.55875129  1
  Se  Se131  1  0.74675211  0.75010856  0.06414037  1
  Se  Se132  1  0.75036641  0.74958900  0.55714248  1
  Se  Se133  1  0.25543217  0.23787030  0.04612339  1
  Se  Se134  1  0.23884945  0.24580117  0.54691570  1
  Se  Se135  1  0.25478357  0.59070118  0.05174088  1
  Se  Se136  1  0.25463929  0.59440878  0.56173499  1
  Se  Se137  1  0.23715635  0.91557556  0.05005379  1
  Se  Se138  1  0.22729697  0.90393516  0.55410645  1
  Se  Se139  1  0.58572456  0.25448184  0.06544331  1
  Se  Se140  1  0.57372764  0.24421079  0.54906823  1
  Se  Se141  1  0.57899543  0.59105591  0.05584068  1
  Se  Se142  1  0.59161908  0.58706547  0.56403486  1
  Se  Se143  1  0.57912906  0.91343264  0.04534771  1
  Se  Se144  1  0.58249542  0.91369072  0.55845221  1
  Se  Se145  1  0.92108946  0.25357881  0.06193434  1
  Se  Se146  1  0.92530344  0.25685499  0.56030620  1
  Se  Se147  1  0.91577870  0.58173286  0.05364264  1
  Se  Se148  1  0.92651796  0.59535285  0.56420253  1
  Se  Se149  1  0.92723726  0.92846343  0.05084097  1
  Se  Se150  1  0.91525017  0.92375244  0.55024584  1
  Se  Se151  1  0.08761308  0.25192454  0.43786223  1
  Se  Se152  1  0.07249183  0.23181824  0.95922797  1
  Se  Se153  1  0.07198528  0.59277015  0.43988673  1
  Se  Se154  1  0.08777088  0.58595377  0.94977546  1
  Se  Se155  1  0.08064388  0.91841600  0.44549176  1
  Se  Se156  1  0.09746501  0.90297713  0.95000734  1
  Se  Se157  1  0.42076993  0.24350569  0.44290072  1
  Se  Se158  1  0.40670823  0.25697107  0.93854825  1
  Se  Se159  1  0.40634363  0.58340115  0.43327423  1
  Se  Se160  1  0.42235451  0.58477250  0.94575788  1
  Se  Se161  1  0.40739825  0.92007858  0.45598188  1
  Se  Se162  1  0.42991950  0.92275344  0.95779412  1
  Se  Se163  1  0.74606000  0.25208024  0.43735866  1
  Se  Se164  1  0.73984833  0.25678204  0.94506348  1
  Se  Se165  1  0.73983735  0.58843948  0.43929049  1
  Se  Se166  1  0.74994773  0.58904001  0.95337717  1
  Se  Se167  1  0.75019515  0.91557366  0.44243934  1
  Se  Se168  1  0.74449294  0.91899511  0.93818588  1
  Se  Se169  1  0.25766412  0.07774746  0.45375474  1
  Se  Se170  1  0.23118295  0.09503693  0.95910319  1
  Se  Se171  1  0.25258966  0.41087547  0.43434970  1
  Se  Se172  1  0.23114209  0.41866027  0.96103531  1
  Se  Se173  1  0.24148033  0.74754417  0.44147423  1
  Se  Se174  1  0.25626945  0.74940909  0.94741950  1
  Se  Se175  1  0.58550817  0.07898629  0.44648228  1
  Se  Se176  1  0.58711692  0.08666655  0.94043314  1
  Se  Se177  1  0.58184147  0.40913953  0.43850481  1
  Se  Se178  1  0.58110888  0.42079253  0.95293051  1
  Se  Se179  1  0.57820866  0.75147851  0.44408358  1
  Se  Se180  1  0.58402506  0.75488917  0.94462534  1
  Se  Se181  1  0.92245723  0.08143673  0.43123764  1
  Se  Se182  1  0.91612152  0.07190074  0.93659679  1
  Se  Se183  1  0.92408957  0.41546959  0.44345659  1
  Se  Se184  1  0.90707540  0.42045893  0.95905381  1
  Se  Se185  1  0.91093586  0.75940146  0.44741713  1
  Se  Se186  1  0.92710652  0.74108905  0.93644469  1
  Se  Se187  1  0.27413858  0.25434166  0.30054899  1
  Se  Se188  1  0.23724676  0.23986171  0.81856872  1
  Se  Se189  1  0.24615553  0.58442086  0.28947261  1
  Se  Se190  1  0.25154707  0.57248836  0.81590679  1
  Se  Se191  1  0.24692355  0.90978714  0.31198629  1
  Se  Se192  1  0.25430368  0.92686635  0.81223398  1
  Se  Se193  1  0.58609253  0.24432126  0.30616621  1
  Se  Se194  1  0.56732520  0.24297306  0.80212849  1
  Se  Se195  1  0.58174265  0.58668994  0.29390145  1
  Se  Se196  1  0.59278079  0.59056639  0.80704543  1
  Se  Se197  1  0.57900677  0.91739419  0.30768035  1
  Se  Se198  1  0.58364463  0.91837088  0.80380724  1
  Se  Se199  1  0.92884076  0.25404787  0.29375756  1
  Se  Se200  1  0.91568172  0.24961829  0.80579265  1
  Se  Se201  1  0.91519660  0.57978747  0.31192464  1
  Se  Se202  1  0.91918223  0.57186133  0.82125705  1
  Se  Se203  1  0.91473453  0.91388183  0.29739100  1
  Se  Se204  1  0.92058711  0.91205336  0.80304496  1
  Se  Se205  1  0.09046508  0.07267869  0.30392130  1
  Se  Se206  1  0.08317041  0.08011156  0.80832499  1
  Se  Se207  1  0.08887436  0.41318382  0.29166065  1
  Se  Se208  1  0.08221053  0.40266271  0.81789931  1
  Se  Se209  1  0.08443693  0.75850444  0.30590712  1
  Se  Se210  1  0.09793052  0.75697482  0.80360925  1
  Se  Se211  1  0.42419247  0.08182711  0.31189423  1
  Se  Se212  1  0.40816945  0.07614314  0.80911954  1
  Se  Se213  1  0.41481818  0.41638455  0.29294258  1
  Se  Se214  1  0.42158363  0.42722680  0.81530734  1
  Se  Se215  1  0.40919716  0.74952205  0.30661754  1
  Se  Se216  1  0.41765793  0.76846991  0.81799209  1
  Se  Se217  1  0.75750038  0.08420966  0.29502301  1
  Se  Se218  1  0.74498348  0.08335865  0.79917367  1
  Se  Se219  1  0.75895089  0.41897429  0.31145860  1
  Se  Se220  1  0.75088072  0.41541146  0.81943725  1
  Se  Se221  1  0.74444402  0.75070641  0.29995580  1
  Se  Se222  1  0.75240334  0.74794688  0.79945761  1
  Se  Se223  1  0.23179914  0.09487469  0.19465481  1
  Se  Se224  1  0.24912944  0.08588630  0.69236316  1
  Se  Se225  1  0.25734496  0.41134258  0.18051337  1
  Se  Se226  1  0.24490542  0.41959995  0.70030759  1
  Se  Se227  1  0.25415905  0.75377987  0.19794572  1
  Se  Se228  1  0.25354248  0.76535302  0.68825170  1
  Se  Se229  1  0.58521101  0.07388313  0.19895137  1
  Se  Se230  1  0.58427058  0.07919406  0.70191965  1
  Se  Se231  1  0.57481016  0.41958871  0.18364802  1
  Se  Se232  1  0.57388372  0.42327746  0.69481247  1
  Se  Se233  1  0.58198361  0.75382159  0.19790064  1
  Se  Se234  1  0.58380949  0.75051897  0.70103090  1
  Se  Se235  1  0.92585342  0.07804006  0.18843149  1
  Se  Se236  1  0.91987731  0.07994297  0.70070344  1
  Se  Se237  1  0.92169834  0.42104743  0.19498009  1
  Se  Se238  1  0.92362405  0.40996323  0.70996149  1
  Se  Se239  1  0.91118651  0.75949908  0.18454990  1
  Se  Se240  1  0.92123484  0.76038641  0.68362224  1
  Se  Se241  1  0.07830813  0.26241028  0.18863321  1
  Se  Se242  1  0.08193314  0.25442360  0.70307279  1
  Se  Se243  1  0.08798798  0.57650656  0.18065655  1
  Se  Se244  1  0.09187208  0.57493753  0.70223994  1
  Se  Se245  1  0.08828342  0.92456236  0.19101990  1
  Se  Se246  1  0.08170225  0.92206730  0.70011290  1
  Se  Se247  1  0.41934244  0.24411083  0.19880759  1
  Se  Se248  1  0.40759315  0.23725871  0.68805118  1
  Se  Se249  1  0.41029236  0.58683696  0.18994181  1
  Se  Se250  1  0.42013322  0.58125047  0.69517604  1
  Se  Se251  1  0.41811654  0.91225377  0.19128500  1
  Se  Se252  1  0.41259220  0.91470191  0.69082048  1
  Se  Se253  1  0.76309567  0.24023927  0.18640269  1
  Se  Se254  1  0.75718350  0.23808551  0.68386630  1
  Se  Se255  1  0.74828246  0.58456735  0.20189950  1
  Se  Se256  1  0.75655766  0.57965824  0.70909489  1
  Se  Se257  1  0.74623145  0.92111196  0.19202148  1
  Se  Se258  1  0.75094046  0.91483194  0.69604447  1
