# generated using pymatgen
data_In86Cu29Se144
_symmetry_space_group_name_H-M   'P 1'
_cell_length_a   17.57063354
_cell_length_b   17.56995464
_cell_length_c   23.43203636
_cell_angle_alpha   90.03020024
_cell_angle_beta   89.98670468
_cell_angle_gamma   89.96222605
_symmetry_Int_Tables_number   1
_chemical_formula_structural   In86Cu29Se144
_chemical_formula_sum   'In86 Cu29 Se144'
_cell_volume   7233.82382293
_cell_formula_units_Z   1
loop_
 _symmetry_equiv_pos_site_id
 _symmetry_equiv_pos_as_xyz
  1  'x, y, z'
loop_
 _atom_site_type_symbol
 _atom_site_label
 _atom_site_symmetry_multiplicity
 _atom_site_fract_x
 _atom_site_fract_y
 _atom_site_fract_z
 _atom_site_occupancy
  In  In0  1  -0.00086221  0.16568687  0.12367608  1
  In  In1  1  0.00412109  0.16444605  0.62513487  1
  In  In2  1  0.00707683  0.52148327  0.12285755  1
  In  In3  1  -0.01470371  0.51425747  0.63184802  1
  In  In4  1  -0.01516216  0.81793845  0.11401608  1
  In  In5  1  -0.00406955  0.84051385  0.64161181  1
  In  In6  1  0.33975188  0.16572981  0.13258943  1
  In  In7  1  0.32536339  0.17459707  0.62644015  1
  In  In8  1  0.33209594  0.49742543  0.12779082  1
  In  In9  1  0.32401414  0.50523248  0.63346317  1
  In  In10  1  0.33316503  0.83061312  0.12121478  1
  In  In11  1  0.32673272  0.83422138  0.64578103  1
  In  In12  1  0.65302341  0.16623650  0.13019728  1
  In  In13  1  0.68517442  0.16266132  0.62708308  1
  In  In14  1  0.68315893  0.53027280  0.09977515  1
  In  In15  1  0.66739414  0.49294361  0.62724348  1
  In  In16  1  0.66703503  0.82413375  0.12252056  1
  In  In17  1  0.67570017  0.82501233  0.62686945  1
  In  In18  1  0.16888949  -0.00439560  0.37900148  1
  In  In19  1  0.15986504  -0.03197366  0.84913021  1
  In  In20  1  0.16342712  0.32646446  0.37851600  1
  In  In21  1  0.16378049  0.33540341  0.86497543  1
  In  In22  1  0.17112210  0.67106866  0.36344984  1
  In  In23  1  0.19021568  0.69636230  0.85109672  1
  In  In24  1  0.49227341  -0.01392517  0.36557117  1
  In  In25  1  0.48813274  -0.01076264  0.87235577  1
  In  In26  1  0.49632766  0.34511224  0.37357420  1
  In  In27  1  0.50725416  0.33947604  0.86714229  1
  In  In28  1  0.49700091  0.66484239  0.36309865  1
  In  In29  1  0.47405344  0.69030638  0.91884249  1
  In  In30  1  0.83087720  0.00264681  0.38151858  1
  In  In31  1  0.83179450  -0.01692281  0.87460985  1
  In  In32  1  0.84002959  0.33071898  0.38491782  1
  In  In33  1  0.84249677  0.34848110  0.86321342  1
  In  In34  1  0.83332258  0.66412541  0.37235504  1
  In  In35  1  0.83238237  0.66154786  0.88045938  1
  In  In36  1  0.00085922  0.16089777  0.39334030  1
  In  In37  1  0.00529951  0.16695844  0.86262798  1
  In  In38  1  -0.00850572  0.49896702  0.37372839  1
  In  In39  1  -0.00287197  0.50545939  0.86947414  1
  In  In40  1  0.00374777  0.82244263  0.37629968  1
  In  In41  1  0.00109564  0.82688276  0.86670347  1
  In  In42  1  0.32412521  0.15906237  0.37469211  1
  In  In43  1  0.32546843  0.16090820  0.86991304  1
  In  In44  1  0.34012080  0.50976315  0.36181101  1
  In  In45  1  0.34358770  0.51056040  0.87217256  1
  In  In46  1  0.32544649  0.83291498  0.36621015  1
  In  In47  1  0.33844004  0.82576636  0.87766083  1
  In  In48  1  0.68401533  0.16190694  0.37840224  1
  In  In49  1  0.65443743  0.17112977  0.87239696  1
  In  In50  1  0.66846304  0.50946230  0.36975258  1
  In  In51  1  0.66683734  0.50524482  0.88285884  1
  In  In52  1  0.67001482  0.83528133  0.36469823  1
  In  In53  1  0.66002026  0.82311360  0.89493449  1
  In  In54  1  0.18119726  -0.00534866  0.12821641  1
  In  In55  1  0.15439399  0.00795563  0.63749058  1
  In  In56  1  0.17798466  0.35216651  0.12352637  1
  In  In57  1  0.17254988  0.32266795  0.62984763  1
  In  In58  1  0.15875930  0.66976213  0.12963367  1
  In  In59  1  0.16895966  0.66844436  0.63730021  1
  In  In60  1  0.50667247  -0.01427163  0.13064198  1
  In  In61  1  0.48297020  -0.01038303  0.63245051  1
  In  In62  1  0.49212681  0.33816699  0.12639663  1
  In  In63  1  0.49575590  0.34431489  0.63515415  1
  In  In64  1  0.49377136  0.66928273  0.11913858  1
  In  In65  1  0.49340938  0.66987597  0.63329203  1
  In  In66  1  0.83559514  -0.02432214  0.12513639  1
  In  In67  1  0.86003435  0.01255129  0.60345697  1
  In  In68  1  0.81685598  0.34017850  0.12464652  1
  In  In69  1  0.83672752  0.33576282  0.62908371  1
  In  In70  1  0.83564656  0.66802308  0.12314588  1
  In  In71  1  0.83974268  0.68102810  0.61515118  1
  In  In72  1  0.50109374  0.83053137  0.50764255  1
  In  In73  1  0.16734041  0.51298357  -0.00448379  1
  In  In74  1  0.65830154  0.66668499  0.76026617  1
  In  In75  1  0.00144502  -0.00516289  0.25892571  1
  In  In76  1  0.00500039  0.33843657  0.25569486  1
  In  In77  1  0.15871658  0.83796539  0.50402621  1
  In  In78  1  0.49643958  0.16488233  0.00435704  1
  In  In79  1  0.83179601  0.16340585  -0.00539416  1
  In  In80  1  0.51087989  0.16975262  0.49934892  1
  In  In81  1  0.16429204  0.50012367  0.50443853  1
  In  In82  1  0.65476283  0.33610141  0.25119407  1
  In  In83  1  0.50414542  0.50614678  0.49181879  1
  In  In84  1  0.66937795  0.00054682  0.75247507  1
  In  In85  1  0.16695337  0.15888040  -0.00657593  1
  Cu  Cu86  1  0.67183299  -0.00655627  0.49626394  1
  Cu  Cu87  1  0.83696117  0.16822505  0.74319107  1
  Cu  Cu88  1  0.67103400  0.66525770  0.49501777  1
  Cu  Cu89  1  0.83476466  0.50393319  0.24615943  1
  Cu  Cu90  1  0.32986233  0.33714129  0.50380931  1
  Cu  Cu91  1  0.83235603  0.15657787  0.25799317  1
  Cu  Cu92  1  0.66908314  0.34570152  -0.00703639  1
  Cu  Cu93  1  0.66719989  -0.00318704  0.00604077  1
  Cu  Cu94  1  0.67992369  0.33073224  0.50700067  1
  Cu  Cu95  1  0.32555629  0.00128429  0.50214221  1
  Cu  Cu96  1  0.49576917  0.83025625  0.24033021  1
  Cu  Cu97  1  0.82663087  0.82090620  0.24503188  1
  Cu  Cu98  1  0.16374352  0.83616227  0.24587857  1
  Cu  Cu99  1  0.50039561  0.17363454  0.74802641  1
  Cu  Cu100  1  0.33427928  0.33379365  -0.00041576  1
  Cu  Cu101  1  0.00213037  0.67080945  -0.00639315  1
  Cu  Cu102  1  0.49550116  0.15954978  0.25330909  1
  Cu  Cu103  1  0.15802422  0.49116380  0.74802158  1
  Cu  Cu104  1  0.50397093  0.50384609  0.23942606  1
  Cu  Cu105  1  0.49578494  0.50253805  0.75642576  1
  Cu  Cu106  1  -0.00248236  0.33476358  0.50737213  1
  Cu  Cu107  1  -0.01004758  0.34302198  -0.00719346  1
  Cu  Cu108  1  0.00744815  -0.01292922  -0.00838082  1
  Cu  Cu109  1  0.83466661  0.83650575  0.74869536  1
  Cu  Cu110  1  0.32917743  -0.01438519  -0.00233848  1
  Cu  Cu111  1  -0.00377308  0.66670455  0.49979497  1
  Cu  Cu112  1  0.16928713  0.16217746  0.74712945  1
  Cu  Cu113  1  0.82538752  0.50746882  0.75198173  1
  Cu  Cu114  1  0.17411039  0.17590219  0.25188055  1
  Se  Se115  1  0.07615509  0.07126303  0.05708111  1
  Se  Se116  1  0.08201567  0.07530928  0.55784297  1
  Se  Se117  1  0.07652205  0.41518888  0.05414427  1
  Se  Se118  1  0.07626542  0.41492009  0.56868210  1
  Se  Se119  1  0.08596142  0.74836457  0.05203656  1
  Se  Se120  1  0.07626785  0.74095364  0.56380052  1
  Se  Se121  1  0.40640515  0.06950642  0.05888530  1
  Se  Se122  1  0.41502206  0.08012042  0.55630157  1
  Se  Se123  1  0.41342637  0.41713605  0.05438274  1
  Se  Se124  1  0.41237789  0.42062702  0.55755662  1
  Se  Se125  1  0.42585932  0.76423708  0.05013021  1
  Se  Se126  1  0.40311412  0.74906623  0.56475242  1
  Se  Se127  1  0.74536620  0.08052251  0.06402093  1
  Se  Se128  1  0.75040700  0.08255496  0.54909995  1
  Se  Se129  1  0.75790948  0.42281214  0.04594465  1
  Se  Se130  1  0.75666833  0.42163328  0.55761588  1
  Se  Se131  1  0.76789169  0.76349637  0.05627972  1
  Se  Se132  1  0.74870918  0.75547690  0.54674765  1
  Se  Se133  1  0.25469778  0.24984303  0.05724767  1
  Se  Se134  1  0.24684306  0.24907797  0.55045633  1
  Se  Se135  1  0.25651743  0.59442939  0.06028171  1
  Se  Se136  1  0.25498969  0.59468140  0.55838148  1
  Se  Se137  1  0.24184659  0.90863834  0.05199319  1
  Se  Se138  1  0.25447713  0.91933295  0.56642300  1
  Se  Se139  1  0.59296084  0.26242578  0.05514311  1
  Se  Se140  1  0.59030075  0.26089704  0.56616839  1
  Se  Se141  1  0.56400222  0.57644398  0.04838399  1
  Se  Se142  1  0.58820856  0.59409799  0.56017903  1
  Se  Se143  1  0.58222845  0.91133762  0.05463999  1
  Se  Se144  1  0.59047071  0.92708619  0.56427608  1
  Se  Se145  1  0.91843138  0.25932880  0.05705997  1
  Se  Se146  1  0.91574631  0.24953690  0.56004056  1
  Se  Se147  1  0.92045307  0.58771948  0.04998675  1
  Se  Se148  1  0.91104160  0.58218581  0.55065914  1
  Se  Se149  1  0.91581173  0.91358857  0.04577284  1
  Se  Se150  1  0.91608641  0.89292303  0.55772188  1
  Se  Se151  1  0.08357786  0.25432167  0.45327461  1
  Se  Se152  1  0.07405006  0.25779947  0.94125109  1
  Se  Se153  1  0.08105354  0.59164467  0.43943087  1
  Se  Se154  1  0.08476778  0.59962425  0.92912205  1
  Se  Se155  1  0.06678349  0.92685944  0.44428815  1
  Se  Se156  1  0.08969681  0.90796454  0.93549978  1
  Se  Se157  1  0.41343623  0.25862502  0.44345867  1
  Se  Se158  1  0.41091936  0.25151794  0.93881875  1
  Se  Se159  1  0.40761803  0.59737549  0.44150874  1
  Se  Se160  1  0.40727868  0.57114502  0.95933305  1
  Se  Se161  1  0.40571983  0.91757536  0.44495159  1
  Se  Se162  1  0.42372495  0.90847165  0.95021500  1
  Se  Se163  1  0.75701492  0.24500150  0.45114002  1
  Se  Se164  1  0.74587178  0.25879130  0.93573994  1
  Se  Se165  1  0.75263877  0.57861762  0.44362744  1
  Se  Se166  1  0.74338955  0.59215081  0.95159805  1
  Se  Se167  1  0.74881657  0.90696231  0.44166828  1
  Se  Se168  1  0.75003037  0.91556733  0.95060193  1
  Se  Se169  1  0.24318425  0.08450298  0.44906437  1
  Se  Se170  1  0.25020642  0.06309368  0.93531095  1
  Se  Se171  1  0.25900857  0.41990374  0.43893309  1
  Se  Se172  1  0.25025567  0.40956756  0.93959086  1
  Se  Se173  1  0.24987783  0.74935176  0.44235036  1
  Se  Se174  1  0.24601036  0.74968685  0.94335850  1
  Se  Se175  1  0.58587886  0.06849938  0.43680210  1
  Se  Se176  1  0.58732805  0.07441739  0.94325828  1
  Se  Se177  1  0.59985567  0.40676348  0.44279575  1
  Se  Se178  1  0.57431726  0.41962232  0.94458880  1
  Se  Se179  1  0.58384377  0.74376307  0.43868446  1
  Se  Se180  1  0.61051231  0.71328420  0.95825115  1
  Se  Se181  1  0.91143347  0.07925787  0.45302543  1
  Se  Se182  1  0.92888021  0.07687321  0.93726589  1
  Se  Se183  1  0.92033485  0.41922094  0.44999589  1
  Se  Se184  1  0.91042387  0.42874882  0.94144629  1
  Se  Se185  1  0.91383217  0.74770262  0.44360753  1
  Se  Se186  1  0.91705898  0.75379484  0.94050387  1
  Se  Se187  1  0.25513568  0.25689818  0.30835195  1
  Se  Se188  1  0.24889754  0.24852530  0.80168809  1
  Se  Se189  1  0.25635347  0.59209204  0.29736370  1
  Se  Se190  1  0.24039709  0.57057576  0.80629183  1
  Se  Se191  1  0.24326811  0.92174217  0.30138959  1
  Se  Se192  1  0.28748694  0.92877734  0.80483187  1
  Se  Se193  1  0.57631527  0.23797247  0.31593424  1
  Se  Se194  1  0.58834567  0.25533220  0.79732522  1
  Se  Se195  1  0.58590874  0.58346496  0.29787828  1
  Se  Se196  1  0.56667986  0.58401078  0.82076311  1
  Se  Se197  1  0.57983529  0.91127411  0.29726487  1
  Se  Se198  1  0.58771489  0.90560572  0.81411762  1
  Se  Se199  1  0.91673536  0.23859965  0.31196929  1
  Se  Se200  1  0.91731374  0.25180876  0.80011369  1
  Se  Se201  1  0.91906420  0.58382237  0.30143105  1
  Se  Se202  1  0.91145544  0.59070571  0.80289279  1
  Se  Se203  1  0.90443850  0.90233270  0.30879443  1
  Se  Se204  1  0.91978599  0.92037937  0.80061250  1
  Se  Se205  1  0.08938099  0.09679003  0.31068814  1
  Se  Se206  1  0.08458249  0.07700484  0.79787396  1
  Se  Se207  1  0.09757592  0.42928484  0.31052358  1
  Se  Se208  1  0.07086831  0.41234879  0.80142419  1
  Se  Se209  1  0.08069669  0.75211533  0.29907572  1
  Se  Se210  1  0.08570031  0.75953418  0.79003346  1
  Se  Se211  1  0.40927932  0.07910332  0.30614861  1
  Se  Se212  1  0.42557124  0.09026239  0.80725631  1
  Se  Se213  1  0.42370912  0.42073067  0.29742910  1
  Se  Se214  1  0.41023569  0.41317069  0.80399838  1
  Se  Se215  1  0.41262262  0.75233097  0.29997096  1
  Se  Se216  1  0.43193815  0.73718257  0.82102795  1
  Se  Se217  1  0.74616065  0.07125397  0.30445352  1
  Se  Se218  1  0.76060572  0.09348111  0.81224849  1
  Se  Se219  1  0.76150148  0.41587328  0.30709156  1
  Se  Se220  1  0.74142307  0.42534358  0.80565822  1
  Se  Se221  1  0.74451046  0.73887280  0.30146740  1
  Se  Se222  1  0.75265022  0.76241947  0.81225654  1
  Se  Se223  1  0.24979696  0.08634295  0.19781827  1
  Se  Se224  1  0.25785608  0.08113248  0.69578264  1
  Se  Se225  1  0.26182534  0.40879367  0.20016428  1
  Se  Se226  1  0.24908105  0.41219603  0.69781538  1
  Se  Se227  1  0.24850735  0.75360131  0.19328146  1
  Se  Se228  1  0.26106716  0.73376087  0.70804059  1
  Se  Se229  1  0.58054879  0.07915666  0.19913847  1
  Se  Se230  1  0.57711505  0.08827574  0.68801821  1
  Se  Se231  1  0.59046335  0.42974286  0.17971136  1
  Se  Se232  1  0.58297250  0.42418093  0.70185531  1
  Se  Se233  1  0.58108408  0.74476262  0.19139332  1
  Se  Se234  1  0.57558798  0.76415598  0.69673009  1
  Se  Se235  1  0.91160840  0.08383033  0.19214098  1
  Se  Se236  1  0.91671322  0.07961106  0.69232016  1
  Se  Se237  1  0.91382436  0.41957032  0.18767442  1
  Se  Se238  1  0.91148562  0.42317428  0.70021977  1
  Se  Se239  1  0.92097591  0.74421318  0.19669375  1
  Se  Se240  1  0.91271260  0.74344132  0.69914654  1
  Se  Se241  1  0.09127345  0.24817118  0.18833801  1
  Se  Se242  1  0.08257338  0.24736488  0.69758979  1
  Se  Se243  1  0.09652704  0.57187988  0.19894772  1
  Se  Se244  1  0.07978222  0.58351335  0.69910667  1
  Se  Se245  1  0.07835839  0.91139373  0.18550113  1
  Se  Se246  1  0.10513356  0.89766744  0.70143355  1
  Se  Se247  1  0.42219978  0.25073394  0.19910060  1
  Se  Se248  1  0.41269209  0.25310908  0.69519943  1
  Se  Se249  1  0.41466312  0.58699512  0.19219661  1
  Se  Se250  1  0.41391352  0.58365085  0.69953708  1
  Se  Se251  1  0.40770728  0.91776346  0.19486002  1
  Se  Se252  1  0.41656667  0.91463129  0.71089396  1
  Se  Se253  1  0.75439464  0.24113935  0.19817368  1
  Se  Se254  1  0.74909373  0.25461329  0.69826466  1
  Se  Se255  1  0.74993281  0.58267860  0.19038746  1
  Se  Se256  1  0.74971288  0.59062416  0.68960656  1
  Se  Se257  1  0.74532867  0.91088644  0.19607490  1
  Se  Se258  1  0.76088849  0.92054748  0.68649545  1
