# generated using pymatgen
data_In86Cu29Se144
_symmetry_space_group_name_H-M   'P 1'
_cell_length_a   17.56185475
_cell_length_b   17.56192550
_cell_length_c   23.42010604
_cell_angle_alpha   89.97810469
_cell_angle_beta   89.99461529
_cell_angle_gamma   90.01662402
_symmetry_Int_Tables_number   1
_chemical_formula_structural   In86Cu29Se144
_chemical_formula_sum   'In86 Cu29 Se144'
_cell_volume   7223.22788440
_cell_formula_units_Z   1
loop_
 _symmetry_equiv_pos_site_id
 _symmetry_equiv_pos_as_xyz
  1  'x, y, z'
loop_
 _atom_site_type_symbol
 _atom_site_label
 _atom_site_symmetry_multiplicity
 _atom_site_fract_x
 _atom_site_fract_y
 _atom_site_fract_z
 _atom_site_occupancy
  In  In0  1  0.00678441  0.16733819  0.11856859  1
  In  In1  1  -0.00309375  0.16523311  0.63138814  1
  In  In2  1  -0.02157448  0.49864161  0.12041220  1
  In  In3  1  -0.00294023  0.49750895  0.62596839  1
  In  In4  1  -0.00039429  0.83882904  0.11556089  1
  In  In5  1  -0.00145674  0.82335908  0.64476340  1
  In  In6  1  0.33204750  0.17189400  0.11908562  1
  In  In7  1  0.34365954  0.17562887  0.61989391  1
  In  In8  1  0.34269382  0.48397415  0.12418011  1
  In  In9  1  0.31638367  0.49804606  0.62352026  1
  In  In10  1  0.34137441  0.82358180  0.12111189  1
  In  In11  1  0.32741857  0.84611506  0.62819150  1
  In  In12  1  0.66882192  0.18929620  0.11851914  1
  In  In13  1  0.66990516  0.16799093  0.63124415  1
  In  In14  1  0.67577297  0.49436475  0.12116548  1
  In  In15  1  0.67980337  0.48440365  0.63441711  1
  In  In16  1  0.66700898  0.82940539  0.11564105  1
  In  In17  1  0.68841525  0.82631542  0.65099465  1
  In  In18  1  0.15281501  0.00924762  0.39170001  1
  In  In19  1  0.16888307  -0.00074017  0.87263187  1
  In  In20  1  0.16380833  0.33391103  0.38438178  1
  In  In21  1  0.15399236  0.31682739  0.86475325  1
  In  In22  1  0.16064023  0.66896863  0.38745426  1
  In  In23  1  0.15005855  0.67721053  0.86669657  1
  In  In24  1  0.51098491  0.01326939  0.37598019  1
  In  In25  1  0.50963944  -0.01249931  0.88363594  1
  In  In26  1  0.49850230  0.33026350  0.37684731  1
  In  In27  1  0.49644816  0.33529318  0.87447411  1
  In  In28  1  0.52025396  0.65621772  0.37462762  1
  In  In29  1  0.52055220  0.65541796  0.88394896  1
  In  In30  1  0.84234784  -0.00521901  0.37953251  1
  In  In31  1  0.81513896  -0.00688943  0.84082247  1
  In  In32  1  0.83342938  0.33140646  0.38252554  1
  In  In33  1  0.83507971  0.33035631  0.86754145  1
  In  In34  1  0.81543858  0.66041055  0.37183029  1
  In  In35  1  0.82916856  0.66348092  0.86889580  1
  In  In36  1  -0.00490306  0.16903627  0.38611081  1
  In  In37  1  -0.00516992  0.17434330  0.86490570  1
  In  In38  1  0.00692235  0.48852983  0.38627726  1
  In  In39  1  -0.01596751  0.48546027  0.86582687  1
  In  In40  1  -0.00137624  0.84476887  0.38148533  1
  In  In41  1  -0.02673279  0.81673823  0.83940979  1
  In  In42  1  0.33138308  0.17383120  0.38656189  1
  In  In43  1  0.31955585  0.16893909  0.87615677  1
  In  In44  1  0.33215856  0.49084503  0.37528340  1
  In  In45  1  0.34782047  0.49982250  0.87568219  1
  In  In46  1  0.32596744  0.82471330  0.37710201  1
  In  In47  1  0.33489460  0.84050007  0.87505881  1
  In  In48  1  0.65856367  0.17435772  0.38670845  1
  In  In49  1  0.66609877  0.16524161  0.86840168  1
  In  In50  1  0.67130712  0.50925364  0.37031701  1
  In  In51  1  0.66498272  0.49718490  0.87502544  1
  In  In52  1  0.68037259  0.81386957  0.37512189  1
  In  In53  1  0.67754568  0.82776457  0.87091111  1
  In  In54  1  0.15402565  0.01669134  0.12239719  1
  In  In55  1  0.15289069  -0.00886076  0.62129730  1
  In  In56  1  0.16268194  0.31919791  0.12558025  1
  In  In57  1  0.16457371  0.33569737  0.62602640  1
  In  In58  1  0.16558177  0.67551038  0.12495122  1
  In  In59  1  0.15540584  0.66118746  0.62182909  1
  In  In60  1  0.50652024  0.00441276  0.10988573  1
  In  In61  1  0.49959476  0.01303021  0.62938888  1
  In  In62  1  0.53630363  0.35581356  0.08738938  1
  In  In63  1  0.51192919  0.31974764  0.63578853  1
  In  In64  1  0.51175510  0.66794592  0.11581670  1
  In  In65  1  0.50954304  0.67264193  0.62917216  1
  In  In66  1  0.84192530  -0.00754432  0.11744789  1
  In  In67  1  0.82387501  0.01484420  0.64557019  1
  In  In68  1  0.81924933  0.34285071  0.13672892  1
  In  In69  1  0.83185813  0.32982712  0.63233314  1
  In  In70  1  0.82557474  0.65788327  0.11368533  1
  In  In71  1  0.84483563  0.66050864  0.63722167  1
  In  In72  1  -0.00820396  0.66358360  0.24261694  1
  In  In73  1  0.34166103  0.66350891  0.24157356  1
  In  In74  1  0.49546691  0.85082948  0.50972127  1
  In  In75  1  0.83922422  0.83555569  0.50686872  1
  In  In76  1  -0.00950705  0.00761868  0.26160023  1
  In  In77  1  0.33208710  0.00390771  0.24060277  1
  In  In78  1  0.83238819  0.16813253  -0.01174723  1
  In  In79  1  0.49613781  0.49777363  0.49560422  1
  In  In80  1  0.34321731  0.33336282  0.25507982  1
  In  In81  1  0.32957357  0.00279335  0.75499357  1
  In  In82  1  0.33343622  0.66195574  0.74871709  1
  In  In83  1  0.17045012  0.49676525  0.00085005  1
  In  In84  1  0.66862034  0.00145653  0.24717350  1
  In  In85  1  0.16529468  0.84270318  -0.00393048  1
  Cu  Cu86  1  0.16234843  0.49801454  0.25826961  1
  Cu  Cu87  1  0.83422866  0.48986447  0.25140299  1
  Cu  Cu88  1  0.83391326  0.17094037  0.25722696  1
  Cu  Cu89  1  0.67718532  -0.00056620  -0.00988650  1
  Cu  Cu90  1  0.32190669  0.67234605  0.50218562  1
  Cu  Cu91  1  0.17300788  0.17105682  0.74338509  1
  Cu  Cu92  1  0.33207212  0.00347084  -0.00552600  1
  Cu  Cu93  1  0.15866766  0.84566095  0.26083246  1
  Cu  Cu94  1  0.50762965  0.82790816  0.75839502  1
  Cu  Cu95  1  -0.00587938  0.32917435  -0.00789462  1
  Cu  Cu96  1  0.50152470  0.16546164  0.75257746  1
  Cu  Cu97  1  0.83186514  0.50163197  0.75093519  1
  Cu  Cu98  1  0.66852482  0.00459579  0.51075662  1
  Cu  Cu99  1  0.32767503  0.00507444  0.50514229  1
  Cu  Cu100  1  0.33250349  0.33652467  0.50278826  1
  Cu  Cu101  1  0.50478294  0.49628434  0.75355082  1
  Cu  Cu102  1  0.66959375  0.66077419  0.50410344  1
  Cu  Cu103  1  0.49984819  0.17621531  0.24638430  1
  Cu  Cu104  1  0.34199965  0.66953865  -0.00239561  1
  Cu  Cu105  1  -0.00509349  0.66811068  0.50821255  1
  Cu  Cu106  1  0.33191242  0.32741073  -0.00511644  1
  Cu  Cu107  1  0.51173045  0.82648069  0.24485866  1
  Cu  Cu108  1  -0.00279172  0.33102634  0.50901268  1
  Cu  Cu109  1  0.67391807  0.32781787  0.50888109  1
  Cu  Cu110  1  0.15978015  0.49809325  0.74806136  1
  Cu  Cu111  1  -0.00490359  0.00086725  0.51147907  1
  Cu  Cu112  1  -0.01187067  0.66382686  -0.01729724  1
  Cu  Cu113  1  -0.00547259  -0.00301808  -0.01386987  1
  Cu  Cu114  1  0.67314914  0.66991314  -0.00481905  1
  Se  Se115  1  0.07363239  0.08006175  0.04320705  1
  Se  Se116  1  0.08201901  0.08854428  0.55731390  1
  Se  Se117  1  0.07314834  0.40892477  0.05689066  1
  Se  Se118  1  0.08296628  0.41874611  0.55610877  1
  Se  Se119  1  0.07328444  0.73751148  0.04722856  1
  Se  Se120  1  0.07184706  0.75537732  0.56196365  1
  Se  Se121  1  0.41303118  0.08640207  0.05076397  1
  Se  Se122  1  0.41985831  0.08347950  0.55289423  1
  Se  Se123  1  0.41400415  0.41731261  0.04303760  1
  Se  Se124  1  0.41694441  0.41113083  0.56557757  1
  Se  Se125  1  0.42663882  0.75365246  0.04926793  1
  Se  Se126  1  0.40809994  0.74544745  0.56247505  1
  Se  Se127  1  0.74687651  0.07945278  0.05880108  1
  Se  Se128  1  0.75630931  0.08519276  0.56209539  1
  Se  Se129  1  0.75565124  0.40818370  0.05256757  1
  Se  Se130  1  0.75693017  0.41559030  0.55656982  1
  Se  Se131  1  0.75721098  0.75506528  0.04662656  1
  Se  Se132  1  0.74641478  0.74475280  0.56420087  1
  Se  Se133  1  0.24461663  0.24995105  0.04965325  1
  Se  Se134  1  0.25000438  0.25296732  0.55676256  1
  Se  Se135  1  0.26080069  0.59262868  0.06086211  1
  Se  Se136  1  0.24230144  0.58300137  0.55239663  1
  Se  Se137  1  0.25559478  0.92694293  0.06393952  1
  Se  Se138  1  0.24661853  0.91603993  0.55303135  1
  Se  Se139  1  0.56961891  0.22593514  0.04360442  1
  Se  Se140  1  0.58525784  0.24567321  0.55783791  1
  Se  Se141  1  0.59563664  0.58282804  0.05124477  1
  Se  Se142  1  0.58775360  0.58028798  0.56196427  1
  Se  Se143  1  0.59163689  0.91922305  0.04678730  1
  Se  Se144  1  0.59721544  0.91762231  0.57356006  1
  Se  Se145  1  0.91397367  0.25412084  0.05802828  1
  Se  Se146  1  0.91385700  0.24686341  0.56123968  1
  Se  Se147  1  0.91269488  0.58070443  0.04326950  1
  Se  Se148  1  0.91162039  0.58270809  0.55811451  1
  Se  Se149  1  0.91629188  0.91235833  0.04269554  1
  Se  Se150  1  0.91803972  0.92258611  0.57441745  1
  Se  Se151  1  0.08240351  0.24997800  0.45307274  1
  Se  Se152  1  0.07798767  0.24408968  0.94289351  1
  Se  Se153  1  0.07818866  0.58482262  0.45267078  1
  Se  Se154  1  0.07828040  0.58024041  0.93511956  1
  Se  Se155  1  0.07781793  0.91554617  0.45751104  1
  Se  Se156  1  0.07051294  0.90941019  0.92768780  1
  Se  Se157  1  0.42038096  0.25408978  0.45184375  1
  Se  Se158  1  0.41392033  0.24506015  0.94039136  1
  Se  Se159  1  0.40687505  0.59837526  0.43956126  1
  Se  Se160  1  0.42337866  0.58196312  0.94780990  1
  Se  Se161  1  0.40768850  0.92890593  0.43713808  1
  Se  Se162  1  0.41503283  0.91259479  0.95016287  1
  Se  Se163  1  0.75474551  0.24363892  0.45221568  1
  Se  Se164  1  0.73707655  0.26240900  0.93986021  1
  Se  Se165  1  0.75089319  0.57756345  0.44967845  1
  Se  Se166  1  0.75147425  0.58263122  0.94114056  1
  Se  Se167  1  0.73906204  0.91976056  0.44588755  1
  Se  Se168  1  0.76023834  0.92522616  0.93081133  1
  Se  Se169  1  0.24541051  0.09095350  0.45229858  1
  Se  Se170  1  0.24185933  0.08264546  0.94647380  1
  Se  Se171  1  0.25021107  0.42064609  0.44967889  1
  Se  Se172  1  0.25024854  0.40758929  0.93376256  1
  Se  Se173  1  0.23973229  0.76061549  0.45253124  1
  Se  Se174  1  0.25246845  0.74118574  0.93979501  1
  Se  Se175  1  0.58209874  0.08425105  0.45589079  1
  Se  Se176  1  0.58974429  0.08390202  0.94269347  1
  Se  Se177  1  0.59589952  0.40877400  0.44440672  1
  Se  Se178  1  0.56931686  0.42766831  0.94210520  1
  Se  Se179  1  0.58566989  0.74933731  0.45179333  1
  Se  Se180  1  0.58994113  0.75768298  0.94444685  1
  Se  Se181  1  0.91340210  0.07879653  0.45172053  1
  Se  Se182  1  0.91257388  0.07438720  0.92618346  1
  Se  Se183  1  0.91532811  0.41430260  0.45282627  1
  Se  Se184  1  0.90866332  0.41377164  0.94393822  1
  Se  Se185  1  0.91718910  0.74087634  0.43938938  1
  Se  Se186  1  0.91459163  0.75663829  0.93095161  1
  Se  Se187  1  0.24671153  0.24651912  0.31119068  1
  Se  Se188  1  0.25593104  0.25316629  0.79860836  1
  Se  Se189  1  0.24466128  0.58517806  0.31004538  1
  Se  Se190  1  0.24065342  0.57527702  0.81192908  1
  Se  Se191  1  0.24481975  0.92414257  0.31487459  1
  Se  Se192  1  0.23882866  0.90005477  0.80243516  1
  Se  Se193  1  0.58286038  0.24855471  0.30840369  1
  Se  Se194  1  0.58045724  0.25347814  0.80492863  1
  Se  Se195  1  0.59121737  0.58569394  0.29688990  1
  Se  Se196  1  0.58724779  0.58412367  0.80216823  1
  Se  Se197  1  0.58170344  0.90941426  0.31144164  1
  Se  Se198  1  0.58867345  0.91664325  0.80767384  1
  Se  Se199  1  0.91823474  0.24950429  0.31240026  1
  Se  Se200  1  0.91106932  0.24979728  0.79412254  1
  Se  Se201  1  0.91460595  0.57291249  0.31160291  1
  Se  Se202  1  0.91974542  0.58554126  0.80054820  1
  Se  Se203  1  0.90238798  0.89867609  0.30405921  1
  Se  Se204  1  0.94564108  0.95152574  0.79763424  1
  Se  Se205  1  0.09023158  0.09403865  0.31217091  1
  Se  Se206  1  0.09686280  0.09486016  0.80752393  1
  Se  Se207  1  0.08289178  0.41201872  0.31020165  1
  Se  Se208  1  0.07816557  0.41099123  0.80093281  1
  Se  Se209  1  0.08118345  0.75298261  0.31041175  1
  Se  Se210  1  0.08309363  0.74861119  0.78655431  1
  Se  Se211  1  0.41989564  0.09374048  0.30633344  1
  Se  Se212  1  0.42456157  0.08390165  0.81602400  1
  Se  Se213  1  0.43499645  0.43314407  0.30636950  1
  Se  Se214  1  0.41344099  0.41527088  0.80045084  1
  Se  Se215  1  0.42603548  0.75446794  0.30867518  1
  Se  Se216  1  0.42262709  0.74733883  0.81418153  1
  Se  Se217  1  0.75453771  0.08628267  0.31542567  1
  Se  Se218  1  0.76797437  0.11926748  0.79431529  1
  Se  Se219  1  0.75161781  0.41270989  0.31078300  1
  Se  Se220  1  0.74891341  0.41794240  0.80418533  1
  Se  Se221  1  0.75264600  0.74595669  0.29616117  1
  Se  Se222  1  0.76500869  0.75917538  0.79712230  1
  Se  Se223  1  0.23664483  0.09969182  0.19377598  1
  Se  Se224  1  0.24849549  0.08582067  0.68413578  1
  Se  Se225  1  0.24330950  0.42017459  0.19485683  1
  Se  Se226  1  0.24844080  0.41596135  0.69882388  1
  Se  Se227  1  0.24116523  0.76657571  0.19818105  1
  Se  Se228  1  0.24570018  0.75120744  0.68885017  1
  Se  Se229  1  0.57852155  0.09178021  0.18731642  1
  Se  Se230  1  0.58618093  0.08247725  0.70084655  1
  Se  Se231  1  0.58742938  0.40547296  0.18224668  1
  Se  Se232  1  0.58770147  0.41094808  0.70138092  1
  Se  Se233  1  0.59242964  0.74598068  0.18940789  1
  Se  Se234  1  0.58886708  0.74260228  0.70486744  1
  Se  Se235  1  0.90587496  0.09133154  0.19057872  1
  Se  Se236  1  0.93952330  0.06586538  0.70352591  1
  Se  Se237  1  0.92300084  0.41103616  0.19900910  1
  Se  Se238  1  0.91561129  0.41783608  0.69757074  1
  Se  Se239  1  0.91002822  0.75585657  0.18087419  1
  Se  Se240  1  0.88734503  0.76933455  0.70619055  1
  Se  Se241  1  0.07700494  0.24599566  0.19473452  1
  Se  Se242  1  0.08281187  0.25312907  0.69572660  1
  Se  Se243  1  0.09030456  0.57339459  0.18763597  1
  Se  Se244  1  0.07780087  0.58371512  0.69630787  1
  Se  Se245  1  0.08173686  0.91881613  0.19364569  1
  Se  Se246  1  0.09020028  0.91291361  0.70029610  1
  Se  Se247  1  0.42441765  0.25408329  0.18300866  1
  Se  Se248  1  0.41467994  0.24716406  0.70065657  1
  Se  Se249  1  0.43206368  0.57147082  0.18620547  1
  Se  Se250  1  0.42471827  0.57182442  0.68751143  1
  Se  Se251  1  0.43074228  0.91043225  0.18849601  1
  Se  Se252  1  0.42696803  0.90962936  0.69924128  1
  Se  Se253  1  0.74601998  0.24724430  0.20209987  1
  Se  Se254  1  0.74842893  0.24945610  0.70332969  1
  Se  Se255  1  0.76014706  0.57589109  0.19221937  1
  Se  Se256  1  0.74618750  0.58532484  0.69865643  1
  Se  Se257  1  0.75745230  0.91115229  0.18815761  1
  Se  Se258  1  0.74357669  0.93134736  0.71438814  1
