# generated using pymatgen
data_In86Cu29Se144
_symmetry_space_group_name_H-M   'P 1'
_cell_length_a   17.57187547
_cell_length_b   17.57271536
_cell_length_c   23.41098136
_cell_angle_alpha   89.99487721
_cell_angle_beta   89.97292398
_cell_angle_gamma   89.99307093
_symmetry_Int_Tables_number   1
_chemical_formula_structural   In86Cu29Se144
_chemical_formula_sum   'In86 Cu29 Se144'
_cell_volume   7228.97224106
_cell_formula_units_Z   1
loop_
 _symmetry_equiv_pos_site_id
 _symmetry_equiv_pos_as_xyz
  1  'x, y, z'
loop_
 _atom_site_type_symbol
 _atom_site_label
 _atom_site_symmetry_multiplicity
 _atom_site_fract_x
 _atom_site_fract_y
 _atom_site_fract_z
 _atom_site_occupancy
  In  In0  1  0.00735776  0.16445373  0.11669992  1
  In  In1  1  -0.00333071  0.16547007  0.63050273  1
  In  In2  1  -0.01904312  0.48859097  0.11960987  1
  In  In3  1  -0.01986673  0.49282391  0.62908203  1
  In  In4  1  -0.00106247  0.84225246  0.10211334  1
  In  In5  1  0.01002807  0.83242380  0.62967107  1
  In  In6  1  0.33189238  0.17256245  0.11493681  1
  In  In7  1  0.33841705  0.17057042  0.62595044  1
  In  In8  1  0.34575601  0.49519063  0.12391888  1
  In  In9  1  0.35174803  0.49615995  0.64598132  1
  In  In10  1  0.33777043  0.83883995  0.11847922  1
  In  In11  1  0.33073993  0.82956341  0.63118630  1
  In  In12  1  0.66270161  0.15874950  0.10311399  1
  In  In13  1  0.66961977  0.16746834  0.63064813  1
  In  In14  1  0.67549454  0.50648804  0.09162264  1
  In  In15  1  0.67271185  0.47675650  0.64562176  1
  In  In16  1  0.68426393  0.85696567  0.09338487  1
  In  In17  1  0.66924072  0.85535270  0.63209777  1
  In  In18  1  0.16785316  -0.00348947  0.38960631  1
  In  In19  1  0.14456446  0.01537092  0.89060487  1
  In  In20  1  0.15316461  0.33332261  0.37737794  1
  In  In21  1  0.15543485  0.32251138  0.86348269  1
  In  In22  1  0.17823892  0.67226504  0.37882782  1
  In  In23  1  0.17650281  0.66949512  0.87302655  1
  In  In24  1  0.50366058  -0.00385364  0.37872782  1
  In  In25  1  0.52205325  -0.00550788  0.89113936  1
  In  In26  1  0.48909987  0.33292660  0.37397884  1
  In  In27  1  0.50135410  0.33397579  0.87418729  1
  In  In28  1  0.51279809  0.67638681  0.37590268  1
  In  In29  1  0.49956132  0.67175400  0.88442627  1
  In  In30  1  0.83647348  0.00974634  0.37155011  1
  In  In31  1  0.83309260  0.00404426  0.87975314  1
  In  In32  1  0.83901089  0.32312575  0.38227409  1
  In  In33  1  0.82793913  0.33142418  0.87852164  1
  In  In34  1  0.81883181  0.66234509  0.37760834  1
  In  In35  1  0.82140465  0.66515501  0.89045758  1
  In  In36  1  -0.00975559  0.17296829  0.38384674  1
  In  In37  1  -0.00830223  0.16279128  0.88036603  1
  In  In38  1  -0.00200706  0.47889644  0.37591033  1
  In  In39  1  -0.01463046  0.48355163  0.86397177  1
  In  In40  1  -0.00209626  0.84728314  0.37837686  1
  In  In41  1  -0.02070306  0.85782622  0.89170758  1
  In  In42  1  0.33873169  0.15828575  0.38625671  1
  In  In43  1  0.32917492  0.17098019  0.87082351  1
  In  In44  1  0.33834266  0.49942505  0.37688032  1
  In  In45  1  0.35100453  0.51037979  0.85177953  1
  In  In46  1  0.33427161  0.83291221  0.38724600  1
  In  In47  1  0.33585907  0.82827624  0.87601651  1
  In  In48  1  0.67659037  0.16054327  0.37791867  1
  In  In49  1  0.67170333  0.17362936  0.88232315  1
  In  In50  1  0.66849365  0.50969041  0.38096798  1
  In  In51  1  0.67877431  0.48091308  0.88619141  1
  In  In52  1  0.65700100  0.83466133  0.37730462  1
  In  In53  1  0.66812942  0.83991065  0.88564346  1
  In  In54  1  0.16602013  0.00145826  0.10929603  1
  In  In55  1  0.15862434  -0.00800552  0.62587885  1
  In  In56  1  0.15520998  0.31457143  0.12002314  1
  In  In57  1  0.17359332  0.32483749  0.63342877  1
  In  In58  1  0.16109321  0.67842799  0.12358851  1
  In  In59  1  0.17034787  0.68075958  0.62873576  1
  In  In60  1  0.51701219  0.01848643  0.10541092  1
  In  In61  1  0.50876437  0.01159030  0.62384925  1
  In  In62  1  0.51685123  0.33975788  0.09284374  1
  In  In63  1  0.51482813  0.32192832  0.64535005  1
  In  In64  1  0.53693178  0.69274461  0.09129913  1
  In  In65  1  0.49061634  0.66274066  0.63128256  1
  In  In66  1  0.82485246  -0.00297798  0.10290828  1
  In  In67  1  0.81511794  0.01389222  0.64636161  1
  In  In68  1  0.83482120  0.33558496  0.11693233  1
  In  In69  1  0.83567386  0.33390006  0.63493331  1
  In  In70  1  0.82332191  0.66552963  0.10799219  1
  In  In71  1  0.84187208  0.66377403  0.62659152  1
  In  In72  1  0.16770128  0.50325172  0.50281355  1
  In  In73  1  0.34041316  0.65811492  0.25634304  1
  In  In74  1  0.33116928  0.31899539  0.24155654  1
  In  In75  1  0.66956447  0.66828411  0.23752113  1
  In  In76  1  0.33249594  0.00426200  0.24690263  1
  In  In77  1  0.66649913  0.33399831  0.24198681  1
  In  In78  1  0.83978189  0.83707771  0.50782713  1
  In  In79  1  0.33801283  0.00118336  0.75533465  1
  In  In80  1  0.17184822  0.49992144  -0.01390825  1
  In  In81  1  0.00209624  0.67154963  0.75358585  1
  In  In82  1  -0.00900339  0.66738109  0.24214705  1
  In  In83  1  0.50521319  0.49537295  0.50505918  1
  In  In84  1  0.66570350  0.66676711  0.76557053  1
  In  In85  1  -0.00098455  0.00626218  0.24261794  1
  Cu  Cu86  1  0.50163929  0.50150720  0.23281532  1
  Cu  Cu87  1  0.51049201  0.84904468  0.24734847  1
  Cu  Cu88  1  0.82859143  0.16443340  0.24835350  1
  Cu  Cu89  1  0.00181069  0.66345531  0.50748397  1
  Cu  Cu90  1  0.32855205  0.33590403  -0.01092810  1
  Cu  Cu91  1  0.32987025  0.66150500  -0.00424055  1
  Cu  Cu92  1  0.16522879  0.84085817  0.75755179  1
  Cu  Cu93  1  0.82515715  0.83903112  0.23121725  1
  Cu  Cu94  1  0.15205292  0.48515941  0.24691800  1
  Cu  Cu95  1  0.83193214  0.17191889  0.75782736  1
  Cu  Cu96  1  0.00201278  0.66463882  -0.00544846  1
  Cu  Cu97  1  0.16288848  0.83402144  0.25036854  1
  Cu  Cu98  1  0.33130215  0.67220858  0.50902887  1
  Cu  Cu99  1  0.83524174  0.48860354  0.24623785  1
  Cu  Cu100  1  -0.00360456  0.33023295  0.50506011  1
  Cu  Cu101  1  0.66405137  0.66466752  0.50626689  1
  Cu  Cu102  1  0.66705021  0.00512311  0.50436433  1
  Cu  Cu103  1  0.50795895  0.83464835  0.76026031  1
  Cu  Cu104  1  0.33241544  0.00104123  -0.00958700  1
  Cu  Cu105  1  0.15694757  0.16294822  0.75356300  1
  Cu  Cu106  1  0.15619340  0.16635226  0.25064962  1
  Cu  Cu107  1  0.16571739  0.50017452  0.75037766  1
  Cu  Cu108  1  -0.00112588  0.00442104  0.50689587  1
  Cu  Cu109  1  -0.00291719  0.33199318  -0.00787206  1
  Cu  Cu110  1  0.33281816  -0.00245843  0.50983173  1
  Cu  Cu111  1  0.51013662  0.16587557  0.23728864  1
  Cu  Cu112  1  0.67131571  0.32664409  0.51235416  1
  Cu  Cu113  1  0.51382496  0.16082445  0.75620526  1
  Cu  Cu114  1  0.33797491  0.32391578  0.50848948  1
  Se  Se115  1  0.08454533  0.08468642  0.04422491  1
  Se  Se116  1  0.08342888  0.08576356  0.56030971  1
  Se  Se117  1  0.08039961  0.41386856  0.05159509  1
  Se  Se118  1  0.07968718  0.41266102  0.56292897  1
  Se  Se119  1  0.08622734  0.74870154  0.04590646  1
  Se  Se120  1  0.08425303  0.75066588  0.55481633  1
  Se  Se121  1  0.41042418  0.08614827  0.04803845  1
  Se  Se122  1  0.41734268  0.08498789  0.55654689  1
  Se  Se123  1  0.41092730  0.41942792  0.04357844  1
  Se  Se124  1  0.41656452  0.40740125  0.56658578  1
  Se  Se125  1  0.40964449  0.74590277  0.05166305  1
  Se  Se126  1  0.41903513  0.75239263  0.56077358  1
  Se  Se127  1  0.75334509  0.08772042  0.03289199  1
  Se  Se128  1  0.75194334  0.08253775  0.56062715  1
  Se  Se129  1  0.74599895  0.39825469  0.04295546  1
  Se  Se130  1  0.74974816  0.41560219  0.56315112  1
  Se  Se131  1  0.74003390  0.74235600  0.03943788  1
  Se  Se132  1  0.74372341  0.74813897  0.56507435  1
  Se  Se133  1  0.24764428  0.25447379  0.04706140  1
  Se  Se134  1  0.24676664  0.24520201  0.55721175  1
  Se  Se135  1  0.25069077  0.58479367  0.06124704  1
  Se  Se136  1  0.26114598  0.58265861  0.56866194  1
  Se  Se137  1  0.25367141  0.91589656  0.04828046  1
  Se  Se138  1  0.24982083  0.91253095  0.56113087  1
  Se  Se139  1  0.57668529  0.23507188  0.03216327  1
  Se  Se140  1  0.58097795  0.24900304  0.56256232  1
  Se  Se141  1  0.56132444  0.56614834  0.04123623  1
  Se  Se142  1  0.59212080  0.58054208  0.57010840  1
  Se  Se143  1  0.55932893  0.90160491  0.04723698  1
  Se  Se144  1  0.58418016  0.91911199  0.55531063  1
  Se  Se145  1  0.92075281  0.24931400  0.05229513  1
  Se  Se146  1  0.91356262  0.25007024  0.56212308  1
  Se  Se147  1  0.91858827  0.58236487  0.04949139  1
  Se  Se148  1  0.91440968  0.57989428  0.55312544  1
  Se  Se149  1  0.93009885  0.93767377  0.03804491  1
  Se  Se150  1  0.91923971  0.92861461  0.57128683  1
  Se  Se151  1  0.08193790  0.24914038  0.45071267  1
  Se  Se152  1  0.08409662  0.24896022  0.94307714  1
  Se  Se153  1  0.07508868  0.58816723  0.43683623  1
  Se  Se154  1  0.07292443  0.58345585  0.92963009  1
  Se  Se155  1  0.07926647  0.91461342  0.45464846  1
  Se  Se156  1  0.10335337  0.89409306  0.94433871  1
  Se  Se157  1  0.42278144  0.24821250  0.44855586  1
  Se  Se158  1  0.41304488  0.24969740  0.94099748  1
  Se  Se159  1  0.41311932  0.59335841  0.44561778  1
  Se  Se160  1  0.40868037  0.57806719  0.94049758  1
  Se  Se161  1  0.41734138  0.92006677  0.44958961  1
  Se  Se162  1  0.41741525  0.91509035  0.94298900  1
  Se  Se163  1  0.74967049  0.24685243  0.44970548  1
  Se  Se164  1  0.77506026  0.22956070  0.95118142  1
  Se  Se165  1  0.75030411  0.58248327  0.45513745  1
  Se  Se166  1  0.74538370  0.57624320  0.95599837  1
  Se  Se167  1  0.74855471  0.92211171  0.44310368  1
  Se  Se168  1  0.73671774  0.93945881  0.95093164  1
  Se  Se169  1  0.25076691  0.08243679  0.45373853  1
  Se  Se170  1  0.24965779  0.09051480  0.94392050  1
  Se  Se171  1  0.26037145  0.40602110  0.44491298  1
  Se  Se172  1  0.25518020  0.41264136  0.92245147  1
  Se  Se173  1  0.24610692  0.75418036  0.45486869  1
  Se  Se174  1  0.24897325  0.75073765  0.94759846  1
  Se  Se175  1  0.58542132  0.08379401  0.44455901  1
  Se  Se176  1  0.57132928  0.10744326  0.95070833  1
  Se  Se177  1  0.59435016  0.40338675  0.44284214  1
  Se  Se178  1  0.58403828  0.40480323  0.94997532  1
  Se  Se179  1  0.58538836  0.75198690  0.45291011  1
  Se  Se180  1  0.58420079  0.75288941  0.95066958  1
  Se  Se181  1  0.91326012  0.08020063  0.44910679  1
  Se  Se182  1  0.93886513  0.05876209  0.94994017  1
  Se  Se183  1  0.91271118  0.41482710  0.45152218  1
  Se  Se184  1  0.91218355  0.42034111  0.94673640  1
  Se  Se185  1  0.92214867  0.74268909  0.44105224  1
  Se  Se186  1  0.91233616  0.75127963  0.95109283  1
  Se  Se187  1  0.24290096  0.24008339  0.31191603  1
  Se  Se188  1  0.24853999  0.24708577  0.79659741  1
  Se  Se189  1  0.23490033  0.56565083  0.30737398  1
  Se  Se190  1  0.24779682  0.58929143  0.79735937  1
  Se  Se191  1  0.24515556  0.91167157  0.31069256  1
  Se  Se192  1  0.24317191  0.92283110  0.81845190  1
  Se  Se193  1  0.57716162  0.24717426  0.30635682  1
  Se  Se194  1  0.59089341  0.25121809  0.80782489  1
  Se  Se195  1  0.57735156  0.57663056  0.30218119  1
  Se  Se196  1  0.58273096  0.57266583  0.82410800  1
  Se  Se197  1  0.59232454  0.92662117  0.30525825  1
  Se  Se198  1  0.59070495  0.91988473  0.81002535  1
  Se  Se199  1  0.91100977  0.24319117  0.30563380  1
  Se  Se200  1  0.91854101  0.25220726  0.81061163  1
  Se  Se201  1  0.90740609  0.57636686  0.30796551  1
  Se  Se202  1  0.90423516  0.58771369  0.81067650  1
  Se  Se203  1  0.90764809  0.90835679  0.29861174  1
  Se  Se204  1  0.91819915  0.92639629  0.80762654  1
  Se  Se205  1  0.08636435  0.08223821  0.31507763  1
  Se  Se206  1  0.07458351  0.08095149  0.80726944  1
  Se  Se207  1  0.07172527  0.40151071  0.29985297  1
  Se  Se208  1  0.07901489  0.41439276  0.79661368  1
  Se  Se209  1  0.08242489  0.75371549  0.30919764  1
  Se  Se210  1  0.08279777  0.76238779  0.81784418  1
  Se  Se211  1  0.42518078  0.09562137  0.30334375  1
  Se  Se212  1  0.43302848  0.08201732  0.81711111  1
  Se  Se213  1  0.42037007  0.42502902  0.29646479  1
  Se  Se214  1  0.40983320  0.39746008  0.79977531  1
  Se  Se215  1  0.42823282  0.76604913  0.30706191  1
  Se  Se216  1  0.42206476  0.74921796  0.80724403  1
  Se  Se217  1  0.74685358  0.07940353  0.30071101  1
  Se  Se218  1  0.74917279  0.08734230  0.81107419  1
  Se  Se219  1  0.75050412  0.42083097  0.31183584  1
  Se  Se220  1  0.75443938  0.41609241  0.80477404  1
  Se  Se221  1  0.75679479  0.75944114  0.30251374  1
  Se  Se222  1  0.76069501  0.76101962  0.81539490  1
  Se  Se223  1  0.23804446  0.09224690  0.18763413  1
  Se  Se224  1  0.24339559  0.08539990  0.69353399  1
  Se  Se225  1  0.24080907  0.41652868  0.18521371  1
  Se  Se226  1  0.25139734  0.41514404  0.69985299  1
  Se  Se227  1  0.25135946  0.75405932  0.19647470  1
  Se  Se228  1  0.24770531  0.75514390  0.70527229  1
  Se  Se229  1  0.59491612  0.08375740  0.18602868  1
  Se  Se230  1  0.59226594  0.07716481  0.70003432  1
  Se  Se231  1  0.58485304  0.42380855  0.17506064  1
  Se  Se232  1  0.55836273  0.43668624  0.70581723  1
  Se  Se233  1  0.58509930  0.76655487  0.18376385  1
  Se  Se234  1  0.58391611  0.75448839  0.69425810  1
  Se  Se235  1  0.90344775  0.08619986  0.18185168  1
  Se  Se236  1  0.91618053  0.08796515  0.70450931  1
  Se  Se237  1  0.91705247  0.40317580  0.19605029  1
  Se  Se238  1  0.90694254  0.42294161  0.70706973  1
  Se  Se239  1  0.90885328  0.75970821  0.17558962  1
  Se  Se240  1  0.90805578  0.76123741  0.69526938  1
  Se  Se241  1  0.07259466  0.24674964  0.19669218  1
  Se  Se242  1  0.07918166  0.25157886  0.69869618  1
  Se  Se243  1  0.08413311  0.57388217  0.18559103  1
  Se  Se244  1  0.08608580  0.57888249  0.68679749  1
  Se  Se245  1  0.08779230  0.90987087  0.18486599  1
  Se  Se246  1  0.08004874  0.91924306  0.70296891  1
  Se  Se247  1  0.43497926  0.25162452  0.17743488  1
  Se  Se248  1  0.42111313  0.23665643  0.70303697  1
  Se  Se249  1  0.42987581  0.59549890  0.17957762  1
  Se  Se250  1  0.41982664  0.59226282  0.71076270  1
  Se  Se251  1  0.42776795  0.92334608  0.18564195  1
  Se  Se252  1  0.42931288  0.91253337  0.69476215  1
  Se  Se253  1  0.75012670  0.23848446  0.18271660  1
  Se  Se254  1  0.74733876  0.25193711  0.70146983  1
  Se  Se255  1  0.75618344  0.56811505  0.18355538  1
  Se  Se256  1  0.75538312  0.58362304  0.69698084  1
  Se  Se257  1  0.74481495  0.92490835  0.18025325  1
  Se  Se258  1  0.75140075  0.91335368  0.71029056  1
