# generated using pymatgen
data_In86Cu29Se144
_symmetry_space_group_name_H-M   'P 1'
_cell_length_a   17.58090786
_cell_length_b   17.58405123
_cell_length_c   23.43754327
_cell_angle_alpha   89.96559320
_cell_angle_beta   90.00736752
_cell_angle_gamma   90.02088610
_symmetry_Int_Tables_number   1
_chemical_formula_structural   In86Cu29Se144
_chemical_formula_sum   'In86 Cu29 Se144'
_cell_volume   7245.56428998
_cell_formula_units_Z   1
loop_
 _symmetry_equiv_pos_site_id
 _symmetry_equiv_pos_as_xyz
  1  'x, y, z'
loop_
 _atom_site_type_symbol
 _atom_site_label
 _atom_site_symmetry_multiplicity
 _atom_site_fract_x
 _atom_site_fract_y
 _atom_site_fract_z
 _atom_site_occupancy
  In  In0  1  -0.00445274  0.16935191  0.12457067  1
  In  In1  1  -0.01001577  0.15799435  0.62540253  1
  In  In2  1  -0.00075724  0.49940517  0.12136108  1
  In  In3  1  -0.00108141  0.50646536  0.61329361  1
  In  In4  1  0.00956368  0.83471858  0.13882289  1
  In  In5  1  0.00648209  0.82573183  0.64086845  1
  In  In6  1  0.33559899  0.18138617  0.12210339  1
  In  In7  1  0.33426053  0.16381277  0.63832611  1
  In  In8  1  0.32444923  0.50747473  0.12786977  1
  In  In9  1  0.33986314  0.49329110  0.63194928  1
  In  In10  1  0.32647504  0.81891035  0.12178014  1
  In  In11  1  0.34010466  0.82104807  0.65261955  1
  In  In12  1  0.67503383  0.16851301  0.13132307  1
  In  In13  1  0.66601044  0.16864255  0.63452150  1
  In  In14  1  0.68327065  0.48907416  0.13273632  1
  In  In15  1  0.65715573  0.49770450  0.61643221  1
  In  In16  1  0.65589161  0.83898068  0.12485428  1
  In  In17  1  0.67399458  0.83736820  0.62794204  1
  In  In18  1  0.15776114  0.00860015  0.37376393  1
  In  In19  1  0.16984936  0.00701737  0.87238564  1
  In  In20  1  0.16018631  0.33391689  0.36469097  1
  In  In21  1  0.16990120  0.32657507  0.88487647  1
  In  In22  1  0.15803933  0.65785223  0.36076356  1
  In  In23  1  0.16155637  0.66352197  0.86694897  1
  In  In24  1  0.50988525  -0.00776364  0.37711255  1
  In  In25  1  0.49664757  -0.01226693  0.86757417  1
  In  In26  1  0.51199042  0.34305991  0.36689624  1
  In  In27  1  0.50630747  0.33636566  0.87039163  1
  In  In28  1  0.49097323  0.65658026  0.36989187  1
  In  In29  1  0.49451260  0.68343406  0.87498746  1
  In  In30  1  0.83717817  0.00804055  0.35994271  1
  In  In31  1  0.84180352  0.01019262  0.87438423  1
  In  In32  1  0.85012055  0.35413578  0.35544391  1
  In  In33  1  0.82420441  0.33631572  0.88802525  1
  In  In34  1  0.82987351  0.66409527  0.36822232  1
  In  In35  1  0.84197616  0.65417793  0.87867273  1
  In  In36  1  -0.00820084  0.17712812  0.35955497  1
  In  In37  1  -0.00067683  0.16417127  0.88762203  1
  In  In38  1  -0.00833693  0.49700039  0.37039520  1
  In  In39  1  -0.00326748  0.50538112  0.87933291  1
  In  In40  1  -0.00439873  0.82654377  0.36327100  1
  In  In41  1  0.01620835  0.83813046  0.85887903  1
  In  In42  1  0.32081833  0.17024826  0.37063937  1
  In  In43  1  0.32802755  0.16436992  0.87404754  1
  In  In44  1  0.33876291  0.50691039  0.36965203  1
  In  In45  1  0.32568277  0.48860603  0.86936634  1
  In  In46  1  0.34520248  0.82579377  0.37822608  1
  In  In47  1  0.33733094  0.84477716  0.85927188  1
  In  In48  1  0.69777203  0.18924597  0.34373506  1
  In  In49  1  0.67772152  0.17518186  0.87409538  1
  In  In50  1  0.66483456  0.50218630  0.37107624  1
  In  In51  1  0.67937910  0.49548353  0.88020308  1
  In  In52  1  0.67570127  0.84165102  0.36445079  1
  In  In53  1  0.64969280  0.83398220  0.87804909  1
  In  In54  1  0.14577001  0.00078763  0.12519524  1
  In  In55  1  0.17194748  -0.01195565  0.64472936  1
  In  In56  1  0.16289317  0.33349645  0.12147292  1
  In  In57  1  0.17511149  0.34295745  0.62638683  1
  In  In58  1  0.17638971  0.66302101  0.13231123  1
  In  In59  1  0.16470229  0.66782693  0.63436179  1
  In  In60  1  0.51115826  -0.00119774  0.11995883  1
  In  In61  1  0.50163252  -0.01001133  0.64195015  1
  In  In62  1  0.50283099  0.33121556  0.13377869  1
  In  In63  1  0.49551385  0.33880941  0.63199159  1
  In  In64  1  0.49228816  0.67219045  0.12583220  1
  In  In65  1  0.50202435  0.65426122  0.62651428  1
  In  In66  1  0.82785042  0.01340021  0.13496572  1
  In  In67  1  0.83525173  0.00072854  0.63610248  1
  In  In68  1  0.83047603  0.33572000  0.12416317  1
  In  In69  1  0.82209567  0.33046063  0.62097005  1
  In  In70  1  0.84640970  0.65670503  0.12897194  1
  In  In71  1  0.84104734  0.65830121  0.62349922  1
  In  In72  1  0.33177933  -0.00148032  0.25066711  1
  In  In73  1  0.66223539  0.66944408  0.75104959  1
  In  In74  1  0.16690217  0.82807436  0.50827736  1
  In  In75  1  0.16292031  0.49751571  0.49292547  1
  In  In76  1  0.16200229  0.16711575  0.49507788  1
  In  In77  1  0.83548186  0.83082771  0.00243579  1
  In  In78  1  0.50662277  0.16732837  0.00361134  1
  In  In79  1  0.50598452  0.82217145  0.50978947  1
  In  In80  1  0.50344812  0.50095424  -0.00148463  1
  In  In81  1  0.16916233  0.83498388  -0.00604349  1
  In  In82  1  0.83410999  0.83020425  0.49672571  1
  In  In83  1  0.83579591  0.17537348  0.49050768  1
  In  In84  1  0.00283933  0.33001267  0.74695819  1
  In  In85  1  0.50540240  0.17011986  0.49641538  1
  Cu  Cu86  1  0.16204182  0.49369267  0.24425517  1
  Cu  Cu87  1  0.82753219  0.83485568  0.75316678  1
  Cu  Cu88  1  0.50109284  0.50080901  0.75016311  1
  Cu  Cu89  1  0.16777454  0.16881502  0.75931824  1
  Cu  Cu90  1  0.33126262  -0.00241007  -0.00998699  1
  Cu  Cu91  1  0.50320549  0.16562896  0.75606337  1
  Cu  Cu92  1  0.16349424  0.17351722  0.24405467  1
  Cu  Cu93  1  0.33666381  -0.00153055  0.51447118  1
  Cu  Cu94  1  0.50001352  0.50467452  0.24678882  1
  Cu  Cu95  1  0.83321325  0.83088168  0.24329868  1
  Cu  Cu96  1  0.49886883  0.82733938  0.24972983  1
  Cu  Cu97  1  -0.00864193  0.00647641  0.00631516  1
  Cu  Cu98  1  -0.00166150  0.33678945  0.00390984  1
  Cu  Cu99  1  0.34037969  0.33692587  0.50405606  1
  Cu  Cu100  1  0.83302015  0.16830824  0.75374790  1
  Cu  Cu101  1  0.32960374  0.33725035  0.00015441  1
  Cu  Cu102  1  0.00013579  -0.00370972  0.50426429  1
  Cu  Cu103  1  0.16959962  0.49850538  0.74915515  1
  Cu  Cu104  1  0.66798702  0.66243956  -0.00052983  1
  Cu  Cu105  1  0.83404133  0.50620386  0.24680300  1
  Cu  Cu106  1  0.32906775  0.65783460  0.49880918  1
  Cu  Cu107  1  0.33089348  0.66589543  0.00236037  1
  Cu  Cu108  1  0.66717628  0.00161472  0.00276093  1
  Cu  Cu109  1  0.66499922  0.34612112  0.49629615  1
  Cu  Cu110  1  0.49880493  0.16728420  0.24479831  1
  Cu  Cu111  1  0.66651036  0.66040276  0.48958421  1
  Cu  Cu112  1  0.83414135  0.49542934  0.75550490  1
  Cu  Cu113  1  0.00592024  0.66679725  -0.00078292  1
  Cu  Cu114  1  0.66865169  0.01362722  0.49783711  1
  Se  Se115  1  0.08215586  0.08974341  0.05224962  1
  Se  Se116  1  0.08593860  0.07191173  0.56250568  1
  Se  Se117  1  0.08586143  0.42095427  0.05192354  1
  Se  Se118  1  0.07848887  0.40210497  0.55389276  1
  Se  Se119  1  0.08233819  0.74891627  0.05979565  1
  Se  Se120  1  0.07004934  0.73821411  0.56062555  1
  Se  Se121  1  0.40769432  0.07560190  0.05673120  1
  Se  Se122  1  0.42128579  0.08193480  0.56515332  1
  Se  Se123  1  0.41392032  0.41194289  0.06095185  1
  Se  Se124  1  0.42189205  0.42028462  0.55667680  1
  Se  Se125  1  0.41636324  0.75165883  0.04993563  1
  Se  Se126  1  0.40152530  0.74090538  0.56366897  1
  Se  Se127  1  0.74855597  0.08353868  0.05720150  1
  Se  Se128  1  0.75215469  0.08600163  0.56003237  1
  Se  Se129  1  0.75525024  0.42250328  0.05286693  1
  Se  Se130  1  0.75211877  0.42228536  0.55192844  1
  Se  Se131  1  0.74605182  0.74201182  0.06283669  1
  Se  Se132  1  0.73872743  0.74121756  0.55563753  1
  Se  Se133  1  0.24718250  0.24999648  0.05094431  1
  Se  Se134  1  0.25975118  0.25032918  0.55808619  1
  Se  Se135  1  0.24535587  0.58423160  0.05315575  1
  Se  Se136  1  0.24994425  0.58140352  0.56185860  1
  Se  Se137  1  0.25309341  0.92594712  0.05956154  1
  Se  Se138  1  0.26079319  0.91255874  0.57030966  1
  Se  Se139  1  0.59399149  0.26000498  0.06100508  1
  Se  Se140  1  0.59326399  0.25956811  0.55870300  1
  Se  Se141  1  0.58958805  0.58559303  0.06416405  1
  Se  Se142  1  0.57950103  0.58625240  0.54804032  1
  Se  Se143  1  0.58017080  0.91303969  0.04610232  1
  Se  Se144  1  0.59257459  0.93012979  0.55774920  1
  Se  Se145  1  0.91437648  0.25211320  0.05474663  1
  Se  Se146  1  0.92669652  0.25751486  0.55665245  1
  Se  Se147  1  0.91875087  0.58423469  0.04960318  1
  Se  Se148  1  0.90680540  0.57771986  0.54723700  1
  Se  Se149  1  0.92273280  0.91720480  0.06631047  1
  Se  Se150  1  0.92012934  0.91708121  0.56366648  1
  Se  Se151  1  0.07103251  0.25609588  0.43755998  1
  Se  Se152  1  0.08215217  0.25058738  0.95273643  1
  Se  Se153  1  0.07373907  0.59209328  0.43968581  1
  Se  Se154  1  0.08859684  0.58460544  0.94420708  1
  Se  Se155  1  0.07803841  0.91624318  0.44281809  1
  Se  Se156  1  0.07007312  0.92660517  0.94330582  1
  Se  Se157  1  0.41125271  0.25634428  0.43715687  1
  Se  Se158  1  0.41439553  0.25722579  0.94292586  1
  Se  Se159  1  0.41716379  0.57944674  0.44717729  1
  Se  Se160  1  0.40972008  0.58698724  0.93885980  1
  Se  Se161  1  0.41609112  0.92083967  0.45200841  1
  Se  Se162  1  0.41360361  0.91174290  0.94072062  1
  Se  Se163  1  0.74303357  0.26507089  0.43501149  1
  Se  Se164  1  0.75539793  0.23941223  0.95329418  1
  Se  Se165  1  0.75406626  0.57994176  0.44002284  1
  Se  Se166  1  0.75537962  0.58138515  0.95024344  1
  Se  Se167  1  0.74957580  0.93059529  0.44093107  1
  Se  Se168  1  0.74609526  0.92022590  0.94107346  1
  Se  Se169  1  0.26118979  0.07082116  0.44653561  1
  Se  Se170  1  0.24610710  0.08654920  0.94666489  1
  Se  Se171  1  0.25692808  0.40565564  0.43791553  1
  Se  Se172  1  0.24680979  0.42231311  0.94876504  1
  Se  Se173  1  0.25077613  0.73959826  0.44038204  1
  Se  Se174  1  0.25788064  0.74482424  0.93509523  1
  Se  Se175  1  0.59715596  0.09029044  0.43203369  1
  Se  Se176  1  0.58630859  0.07631784  0.93752959  1
  Se  Se177  1  0.57811980  0.42544393  0.44389240  1
  Se  Se178  1  0.59470267  0.40462319  0.94696364  1
  Se  Se179  1  0.59006505  0.74988955  0.43422114  1
  Se  Se180  1  0.58137563  0.74665899  0.95146567  1
  Se  Se181  1  0.92755520  0.07621027  0.43851241  1
  Se  Se182  1  0.90643248  0.08892895  0.95458282  1
  Se  Se183  1  0.92022331  0.40845068  0.44117674  1
  Se  Se184  1  0.91698150  0.41993247  0.94748550  1
  Se  Se185  1  0.92508800  0.74143392  0.43995746  1
  Se  Se186  1  0.93057003  0.75158290  0.93823611  1
  Se  Se187  1  0.24892957  0.25403900  0.29853404  1
  Se  Se188  1  0.25082700  0.25646002  0.80780129  1
  Se  Se189  1  0.24771747  0.57590570  0.29885747  1
  Se  Se190  1  0.25263524  0.58181079  0.80254945  1
  Se  Se191  1  0.24922625  0.91332212  0.31859536  1
  Se  Se192  1  0.22051574  0.89981424  0.80826943  1
  Se  Se193  1  0.58252403  0.25431932  0.29545476  1
  Se  Se194  1  0.58890131  0.25091210  0.80486721  1
  Se  Se195  1  0.58384375  0.58758621  0.30151489  1
  Se  Se196  1  0.57872763  0.57721928  0.81601801  1
  Se  Se197  1  0.58049090  0.91631910  0.29950668  1
  Se  Se198  1  0.58612549  0.91262709  0.79992479  1
  Se  Se199  1  0.88137051  0.23008812  0.29935658  1
  Se  Se200  1  0.91350455  0.24943530  0.81373634  1
  Se  Se201  1  0.92005405  0.58763370  0.30049857  1
  Se  Se202  1  0.91992123  0.58156596  0.80186499  1
  Se  Se203  1  0.91645791  0.91544835  0.29801536  1
  Se  Se204  1  0.91271564  0.91689654  0.80610098  1
  Se  Se205  1  0.08327939  0.09019533  0.30135426  1
  Se  Se206  1  0.07801582  0.09097614  0.81092309  1
  Se  Se207  1  0.07484648  0.41577842  0.29948773  1
  Se  Se208  1  0.08859264  0.41864903  0.81062638  1
  Se  Se209  1  0.09322865  0.75934444  0.29944560  1
  Se  Se210  1  0.06820874  0.73050925  0.79722957  1
  Se  Se211  1  0.42462984  0.08873691  0.31152390  1
  Se  Se212  1  0.41637039  0.08469396  0.80833876  1
  Se  Se213  1  0.41831439  0.41952589  0.30222478  1
  Se  Se214  1  0.41930611  0.41476395  0.80327045  1
  Se  Se215  1  0.41288596  0.74581615  0.30158495  1
  Se  Se216  1  0.41753895  0.75127162  0.79773413  1
  Se  Se217  1  0.72801574  0.06035314  0.29904662  1
  Se  Se218  1  0.74975685  0.08242453  0.80561864  1
  Se  Se219  1  0.74570762  0.42294406  0.29780661  1
  Se  Se220  1  0.75179485  0.41124644  0.80715064  1
  Se  Se221  1  0.74975796  0.74957379  0.29942139  1
  Se  Se222  1  0.75467766  0.75153411  0.81663909  1
  Se  Se223  1  0.24646899  0.09046754  0.18790970  1
  Se  Se224  1  0.25092686  0.08247293  0.70604110  1
  Se  Se225  1  0.24908635  0.41301435  0.19195046  1
  Se  Se226  1  0.25576750  0.41180240  0.70167052  1
  Se  Se227  1  0.24780588  0.75594365  0.19962964  1
  Se  Se228  1  0.23097157  0.75602912  0.70554415  1
  Se  Se229  1  0.58126089  0.08435643  0.19182302  1
  Se  Se230  1  0.58597833  0.08259661  0.70086461  1
  Se  Se231  1  0.58516002  0.41859456  0.19795401  1
  Se  Se232  1  0.58698652  0.42046826  0.69550637  1
  Se  Se233  1  0.58295869  0.74795682  0.19401135  1
  Se  Se234  1  0.57365693  0.75937668  0.68970838  1
  Se  Se235  1  0.93827876  0.06798427  0.19358089  1
  Se  Se236  1  0.91883723  0.08416489  0.70377888  1
  Se  Se237  1  0.91515858  0.42076268  0.19251200  1
  Se  Se238  1  0.91125999  0.41979494  0.68852109  1
  Se  Se239  1  0.92166689  0.74594001  0.19794911  1
  Se  Se240  1  0.90435058  0.74843087  0.69681603  1
  Se  Se241  1  0.07749154  0.25638350  0.19312851  1
  Se  Se242  1  0.09439168  0.23863767  0.68679344  1
  Se  Se243  1  0.08177470  0.58177294  0.19235314  1
  Se  Se244  1  0.08160733  0.57056974  0.69100338  1
  Se  Se245  1  0.10258738  0.90955993  0.20352140  1
  Se  Se246  1  0.06232046  0.93194670  0.70228500  1
  Se  Se247  1  0.41152950  0.25333392  0.19958609  1
  Se  Se248  1  0.42066860  0.24965941  0.70050813  1
  Se  Se249  1  0.41315490  0.58623379  0.19453803  1
  Se  Se250  1  0.41590819  0.58478478  0.69949478  1
  Se  Se251  1  0.42146239  0.91133551  0.18777846  1
  Se  Se252  1  0.40375771  0.92876831  0.70782882  1
  Se  Se253  1  0.76394373  0.24512031  0.19853380  1
  Se  Se254  1  0.75207495  0.25302384  0.69915271  1
  Se  Se255  1  0.74831890  0.59125849  0.19683500  1
  Se  Se256  1  0.75123732  0.57502315  0.69355174  1
  Se  Se257  1  0.74789167  0.91384207  0.19168934  1
  Se  Se258  1  0.74572463  0.92020660  0.70103463  1
