# generated using pymatgen
data_In86Cu29Se144
_symmetry_space_group_name_H-M   'P 1'
_cell_length_a   17.58399808
_cell_length_b   17.58353389
_cell_length_c   23.44636876
_cell_angle_alpha   89.97739024
_cell_angle_beta   90.01069497
_cell_angle_gamma   90.01081333
_symmetry_Int_Tables_number   1
_chemical_formula_structural   In86Cu29Se144
_chemical_formula_sum   'In86 Cu29 Se144'
_cell_volume   7249.35441024
_cell_formula_units_Z   1
loop_
 _symmetry_equiv_pos_site_id
 _symmetry_equiv_pos_as_xyz
  1  'x, y, z'
loop_
 _atom_site_type_symbol
 _atom_site_label
 _atom_site_symmetry_multiplicity
 _atom_site_fract_x
 _atom_site_fract_y
 _atom_site_fract_z
 _atom_site_occupancy
  In  In0  1  0.00735664  0.15490136  0.13729958  1
  In  In1  1  0.00138875  0.15321271  0.62154328  1
  In  In2  1  -0.02247975  0.52322659  0.13306769  1
  In  In3  1  -0.00134174  0.52064242  0.62446297  1
  In  In4  1  0.00047583  0.83045316  0.12211610  1
  In  In5  1  -0.01165562  0.82122591  0.61316822  1
  In  In6  1  0.32296258  0.15256480  0.12430902  1
  In  In7  1  0.33514333  0.16101719  0.61830934  1
  In  In8  1  0.34542793  0.50878572  0.12784055  1
  In  In9  1  0.34303883  0.50956250  0.62210117  1
  In  In10  1  0.33282365  0.83578677  0.12707597  1
  In  In11  1  0.33030277  0.83386088  0.62078361  1
  In  In12  1  0.67240703  0.17564122  0.12803741  1
  In  In13  1  0.65989651  0.17640081  0.61871619  1
  In  In14  1  0.67844287  0.49581535  0.13067902  1
  In  In15  1  0.68555274  0.50906360  0.61070526  1
  In  In16  1  0.65560806  0.82743400  0.11906240  1
  In  In17  1  0.65069164  0.80972615  0.59740443  1
  In  In18  1  0.16785329  -0.00481260  0.37157646  1
  In  In19  1  0.16890082  -0.00344921  0.88423256  1
  In  In20  1  0.15131436  0.33174010  0.37227408  1
  In  In21  1  0.15683065  0.32816204  0.88346459  1
  In  In22  1  0.17404579  0.67926960  0.36541580  1
  In  In23  1  0.17193256  0.67710594  0.87226515  1
  In  In24  1  0.50211207  0.00068884  0.37924191  1
  In  In25  1  0.51631905  -0.00978067  0.89399710  1
  In  In26  1  0.50166220  0.32056062  0.37309760  1
  In  In27  1  0.49348299  0.32814793  0.87752193  1
  In  In28  1  0.51516443  0.68183099  0.36954714  1
  In  In29  1  0.51072061  0.68416776  0.85909282  1
  In  In30  1  0.83021100  -0.02365478  0.37484648  1
  In  In31  1  0.82337086  -0.02159851  0.87751382  1
  In  In32  1  0.83769151  0.34011464  0.37100632  1
  In  In33  1  0.84424577  0.33800668  0.87809058  1
  In  In34  1  0.83106702  0.66376244  0.37578456  1
  In  In35  1  0.83446562  0.66964509  0.87850086  1
  In  In36  1  0.00686136  0.17170128  0.36925105  1
  In  In37  1  0.00058455  0.17605549  0.88153654  1
  In  In38  1  -0.01168370  0.49531252  0.36761489  1
  In  In39  1  -0.01507964  0.50503698  0.88427156  1
  In  In40  1  0.00129394  0.83130473  0.36963285  1
  In  In41  1  0.01109901  0.81840562  0.89336065  1
  In  In42  1  0.34344817  0.14540714  0.37615690  1
  In  In43  1  0.34192738  0.15324736  0.88284341  1
  In  In44  1  0.32250993  0.50750895  0.37210515  1
  In  In45  1  0.32613579  0.51243054  0.87575731  1
  In  In46  1  0.33322665  0.83370435  0.37293309  1
  In  In47  1  0.34231509  0.82390171  0.88025535  1
  In  In48  1  0.65290376  0.16316133  0.37403465  1
  In  In49  1  0.66343470  0.14795938  0.87676896  1
  In  In50  1  0.67889591  0.51254831  0.37362549  1
  In  In51  1  0.66397974  0.51950837  0.87369394  1
  In  In52  1  0.68381261  0.81448594  0.39750986  1
  In  In53  1  0.67389735  0.82433143  0.88408315  1
  In  In54  1  0.16624790  -0.00271248  0.12850082  1
  In  In55  1  0.16981628  -0.00018677  0.61550464  1
  In  In56  1  0.16476450  0.32016163  0.12751190  1
  In  In57  1  0.17629445  0.32878157  0.62001429  1
  In  In58  1  0.14896042  0.68781326  0.13230047  1
  In  In59  1  0.15527562  0.67667465  0.62895802  1
  In  In60  1  0.49395314  -0.01632620  0.11627084  1
  In  In61  1  0.50278294  -0.01087934  0.61315223  1
  In  In62  1  0.51685794  0.33542545  0.12961996  1
  In  In63  1  0.51181817  0.32489288  0.61785710  1
  In  In64  1  0.49388385  0.68048735  0.13316025  1
  In  In65  1  0.49434254  0.68203599  0.63246831  1
  In  In66  1  0.84502626  0.00076328  0.12891580  1
  In  In67  1  0.84208937  -0.01087432  0.62533127  1
  In  In68  1  0.82653914  0.34036143  0.13332829  1
  In  In69  1  0.81838561  0.33916054  0.62087578  1
  In  In70  1  0.83558401  0.66698284  0.12158427  1
  In  In71  1  0.83229478  0.67007835  0.62130598  1
  In  In72  1  0.50311536  0.50057917  -0.00020664  1
  In  In73  1  0.66736553  -0.01156524  0.75202401  1
  In  In74  1  0.83153935  0.15997795  0.49604475  1
  In  In75  1  0.33592907  -0.00543553  0.74319988  1
  In  In76  1  0.33416622  0.33482992  0.25234243  1
  In  In77  1  0.66627258  0.34104102  0.73991733  1
  In  In78  1  0.16473553  0.49958598  0.00415270  1
  In  In79  1  0.50060388  0.49657259  0.49574227  1
  In  In80  1  0.33310119  0.34335887  0.75023785  1
  In  In81  1  0.15916731  0.49894877  0.49612393  1
  In  In82  1  -0.00098598  0.34007896  0.75926696  1
  In  In83  1  -0.00122571  -0.00600251  0.74716929  1
  In  In84  1  0.66409317  -0.00446640  0.25340496  1
  In  In85  1  0.83494352  0.16015143  0.00144395  1
  Cu  Cu86  1  0.66897035  0.66248766  0.00110011  1
  Cu  Cu87  1  0.50131298  0.16233576  0.75039304  1
  Cu  Cu88  1  0.83519047  0.17151715  0.25194518  1
  Cu  Cu89  1  0.16644801  0.16127505  0.25049565  1
  Cu  Cu90  1  0.33117164  -0.00435848  0.49545640  1
  Cu  Cu91  1  0.00973810  -0.00326041  0.49478714  1
  Cu  Cu92  1  0.16309915  0.17396078  0.75526616  1
  Cu  Cu93  1  0.49824511  0.16125162  0.25034808  1
  Cu  Cu94  1  0.67220796  0.33212614  0.00584147  1
  Cu  Cu95  1  -0.00528074  0.33287223  0.49386717  1
  Cu  Cu96  1  0.33558998  0.32038301  0.00274357  1
  Cu  Cu97  1  0.83472723  0.82239176  0.74934300  1
  Cu  Cu98  1  0.00378213  -0.00203417  0.00870259  1
  Cu  Cu99  1  0.50212709  0.51506841  0.74512079  1
  Cu  Cu100  1  0.33372760  0.67411100  0.00306150  1
  Cu  Cu101  1  0.16323574  0.83008514  0.74990125  1
  Cu  Cu102  1  0.16554610  0.83630867  0.24765527  1
  Cu  Cu103  1  0.33265296  0.31641969  0.49533500  1
  Cu  Cu104  1  0.83497317  0.50843243  0.74958918  1
  Cu  Cu105  1  0.50160692  0.83436323  0.25148399  1
  Cu  Cu106  1  0.32675330  0.00120248  0.00454043  1
  Cu  Cu107  1  0.50798344  0.50797334  0.24923628  1
  Cu  Cu108  1  0.83439868  0.50688080  0.24993141  1
  Cu  Cu109  1  -0.00613234  0.66761639  0.49476918  1
  Cu  Cu110  1  -0.00007275  0.33044105  0.00835587  1
  Cu  Cu111  1  0.16309597  0.50427400  0.25100169  1
  Cu  Cu112  1  0.16577359  0.51630886  0.75220501  1
  Cu  Cu113  1  0.33254704  0.67332490  0.49772545  1
  Cu  Cu114  1  0.83521144  0.82706959  0.25080952  1
  Se  Se115  1  0.08504462  0.08523651  0.05934165  1
  Se  Se116  1  0.08674517  0.08514114  0.54864944  1
  Se  Se117  1  0.07626233  0.41453988  0.06831702  1
  Se  Se118  1  0.07166829  0.41013554  0.56156265  1
  Se  Se119  1  0.08025063  0.75022157  0.04933098  1
  Se  Se120  1  0.08341771  0.74681735  0.54776190  1
  Se  Se121  1  0.41502702  0.08153694  0.05620772  1
  Se  Se122  1  0.41535968  0.07686048  0.55191023  1
  Se  Se123  1  0.41280465  0.40646779  0.05982774  1
  Se  Se124  1  0.40561008  0.40332676  0.55627340  1
  Se  Se125  1  0.41939811  0.75566170  0.05629671  1
  Se  Se126  1  0.41682764  0.75220363  0.55343153  1
  Se  Se127  1  0.74429971  0.07515510  0.06298571  1
  Se  Se128  1  0.74798484  0.07668209  0.56440006  1
  Se  Se129  1  0.75487381  0.41805087  0.05488405  1
  Se  Se130  1  0.73849825  0.40468066  0.54528692  1
  Se  Se131  1  0.74794984  0.74986110  0.05437220  1
  Se  Se132  1  0.77418749  0.76667003  0.54981083  1
  Se  Se133  1  0.24773964  0.24455283  0.05655870  1
  Se  Se134  1  0.24618543  0.23967830  0.55077812  1
  Se  Se135  1  0.25603008  0.59079125  0.06192429  1
  Se  Se136  1  0.25129433  0.58928000  0.55543668  1
  Se  Se137  1  0.24673740  0.91493471  0.05777990  1
  Se  Se138  1  0.24759488  0.91226286  0.54936558  1
  Se  Se139  1  0.58613681  0.25033959  0.05568293  1
  Se  Se140  1  0.57694115  0.24214027  0.54341999  1
  Se  Se141  1  0.58678791  0.58775105  0.06520332  1
  Se  Se142  1  0.57766838  0.58879692  0.56113686  1
  Se  Se143  1  0.58766836  0.91750818  0.04794704  1
  Se  Se144  1  0.59440399  0.92414801  0.54333819  1
  Se  Se145  1  0.91860079  0.24849666  0.06767518  1
  Se  Se146  1  0.92002032  0.25334369  0.55981083  1
  Se  Se147  1  0.91432451  0.58653859  0.04822333  1
  Se  Se148  1  0.91301892  0.58332327  0.54967871  1
  Se  Se149  1  0.91366374  0.91605379  0.05490062  1
  Se  Se150  1  0.92025088  0.91938443  0.54753679  1
  Se  Se151  1  0.08188929  0.24851366  0.44750254  1
  Se  Se152  1  0.08332469  0.24592833  0.95673678  1
  Se  Se153  1  0.07747031  0.59066690  0.43314627  1
  Se  Se154  1  0.08166519  0.59072706  0.94176493  1
  Se  Se155  1  0.08742745  0.90962217  0.44069336  1
  Se  Se156  1  0.08785346  0.91560692  0.95353368  1
  Se  Se157  1  0.41926202  0.23955930  0.44141978  1
  Se  Se158  1  0.42190592  0.24281080  0.94852524  1
  Se  Se159  1  0.41031701  0.59062192  0.43829017  1
  Se  Se160  1  0.41441688  0.59391076  0.94254076  1
  Se  Se161  1  0.41660862  0.91343660  0.44339032  1
  Se  Se162  1  0.40959359  0.91934115  0.94843853  1
  Se  Se163  1  0.74704925  0.25203864  0.43586097  1
  Se  Se164  1  0.74626144  0.25264161  0.93896072  1
  Se  Se165  1  0.74468174  0.59419950  0.44996115  1
  Se  Se166  1  0.75314632  0.58041881  0.94746902  1
  Se  Se167  1  0.73169425  0.93611309  0.44925512  1
  Se  Se168  1  0.72279533  0.93452200  0.94858068  1
  Se  Se169  1  0.24666331  0.08016530  0.44376452  1
  Se  Se170  1  0.24546813  0.08764497  0.94998649  1
  Se  Se171  1  0.25513963  0.40538918  0.44022698  1
  Se  Se172  1  0.26062044  0.40758601  0.94352123  1
  Se  Se173  1  0.24715356  0.75303127  0.44361288  1
  Se  Se174  1  0.24777668  0.75397987  0.94843736  1
  Se  Se175  1  0.58491786  0.08169259  0.44846573  1
  Se  Se176  1  0.57253709  0.10035917  0.95284184  1
  Se  Se177  1  0.58993643  0.41174159  0.43402907  1
  Se  Se178  1  0.59479366  0.40951242  0.93903399  1
  Se  Se179  1  0.57787886  0.74681354  0.45530002  1
  Se  Se180  1  0.58078995  0.74083836  0.94639594  1
  Se  Se181  1  0.92391651  0.07353876  0.43468256  1
  Se  Se182  1  0.92433497  0.06894658  0.93934601  1
  Se  Se183  1  0.91374115  0.42132749  0.44596805  1
  Se  Se184  1  0.91660898  0.41362937  0.95512329  1
  Se  Se185  1  0.91522734  0.75428744  0.44040893  1
  Se  Se186  1  0.88986489  0.77535634  0.94439742  1
  Se  Se187  1  0.24752865  0.24198819  0.31218010  1
  Se  Se188  1  0.24976594  0.24805622  0.81329303  1
  Se  Se189  1  0.25120160  0.58794989  0.29782434  1
  Se  Se190  1  0.25540001  0.59483510  0.80235409  1
  Se  Se191  1  0.25231268  0.91600673  0.30137284  1
  Se  Se192  1  0.24331121  0.91242052  0.80799096  1
  Se  Se193  1  0.58304957  0.24715422  0.29826976  1
  Se  Se194  1  0.58128303  0.24777493  0.80605459  1
  Se  Se195  1  0.59087003  0.58993051  0.30395781  1
  Se  Se196  1  0.59206503  0.59286404  0.79568416  1
  Se  Se197  1  0.58573136  0.90226503  0.31730977  1
  Se  Se198  1  0.57579413  0.90420917  0.81353042  1
  Se  Se199  1  0.92034750  0.25511877  0.30398950  1
  Se  Se200  1  0.90638806  0.23916053  0.80638816  1
  Se  Se201  1  0.91793811  0.59144171  0.30209097  1
  Se  Se202  1  0.91757651  0.58602558  0.80760918  1
  Se  Se203  1  0.91807410  0.91541494  0.29949665  1
  Se  Se204  1  0.91578123  0.90192673  0.80950872  1
  Se  Se205  1  0.08168612  0.07868540  0.30369616  1
  Se  Se206  1  0.08591773  0.08777161  0.81143437  1
  Se  Se207  1  0.08059914  0.41792148  0.30113788  1
  Se  Se208  1  0.09384440  0.43198121  0.81515359  1
  Se  Se209  1  0.08094035  0.74927347  0.29734485  1
  Se  Se210  1  0.07780064  0.75334273  0.80678360  1
  Se  Se211  1  0.42094448  0.07135659  0.30051476  1
  Se  Se212  1  0.42748628  0.07698511  0.80949569  1
  Se  Se213  1  0.42589195  0.42798016  0.31036862  1
  Se  Se214  1  0.42853856  0.43294143  0.80900698  1
  Se  Se215  1  0.41661453  0.74938398  0.30392529  1
  Se  Se216  1  0.40849717  0.75158437  0.79933932  1
  Se  Se217  1  0.75764751  0.08659750  0.31202244  1
  Se  Se218  1  0.76120712  0.08309220  0.80756598  1
  Se  Se219  1  0.75215697  0.42245308  0.30381091  1
  Se  Se220  1  0.75621529  0.42373070  0.80850393  1
  Se  Se221  1  0.74853734  0.75374340  0.30914469  1
  Se  Se222  1  0.74783445  0.74699137  0.80707736  1
  Se  Se223  1  0.25098368  0.07622607  0.20115026  1
  Se  Se224  1  0.23971130  0.09259968  0.69364748  1
  Se  Se225  1  0.24523046  0.42471136  0.18998492  1
  Se  Se226  1  0.23915477  0.43247932  0.69001449  1
  Se  Se227  1  0.25152418  0.75104432  0.19635024  1
  Se  Se228  1  0.24916603  0.75348123  0.69272277  1
  Se  Se229  1  0.57872232  0.08324442  0.18751300  1
  Se  Se230  1  0.57983260  0.08358202  0.68913808  1
  Se  Se231  1  0.58991408  0.41906491  0.20081681  1
  Se  Se232  1  0.57487824  0.43185991  0.68188791  1
  Se  Se233  1  0.58874766  0.75172818  0.20012759  1
  Se  Se234  1  0.59681533  0.75421466  0.68991756  1
  Se  Se235  1  0.91619589  0.08063698  0.20484174  1
  Se  Se236  1  0.90714144  0.09146987  0.69549700  1
  Se  Se237  1  0.91765461  0.41907401  0.19828060  1
  Se  Se238  1  0.91057482  0.42206538  0.69031676  1
  Se  Se239  1  0.91801758  0.74830752  0.19286573  1
  Se  Se240  1  0.92149752  0.74473617  0.69338030  1
  Se  Se241  1  0.08291560  0.24998515  0.20290396  1
  Se  Se242  1  0.08524636  0.25013338  0.69217833  1
  Se  Se243  1  0.08135596  0.58696899  0.19595477  1
  Se  Se244  1  0.07658018  0.59293307  0.70009082  1
  Se  Se245  1  0.07809713  0.91583854  0.19414362  1
  Se  Se246  1  0.08812123  0.90837068  0.68421655  1
  Se  Se247  1  0.42030800  0.24484737  0.18925121  1
  Se  Se248  1  0.42087166  0.24554036  0.69274249  1
  Se  Se249  1  0.41817548  0.58920138  0.20139354  1
  Se  Se250  1  0.40978664  0.59270117  0.69670284  1
  Se  Se251  1  0.41879962  0.91697018  0.19707151  1
  Se  Se252  1  0.43096933  0.90511622  0.69047121  1
  Se  Se253  1  0.74770324  0.25377327  0.20264445  1
  Se  Se254  1  0.75730888  0.23956856  0.69305119  1
  Se  Se255  1  0.75144039  0.59026424  0.19549584  1
  Se  Se256  1  0.75089406  0.58463004  0.69154629  1
  Se  Se257  1  0.75398583  0.90866581  0.19042887  1
  Se  Se258  1  0.75552603  0.90215141  0.68924553  1
