# generated using pymatgen
data_In86Cu29Se144
_symmetry_space_group_name_H-M   'P 1'
_cell_length_a   17.58447356
_cell_length_b   17.58404849
_cell_length_c   23.44660790
_cell_angle_alpha   89.98389457
_cell_angle_beta   89.98879850
_cell_angle_gamma   89.98533994
_symmetry_Int_Tables_number   1
_chemical_formula_structural   In86Cu29Se144
_chemical_formula_sum   'In86 Cu29 Se144'
_cell_volume   7249.83670722
_cell_formula_units_Z   1
loop_
 _symmetry_equiv_pos_site_id
 _symmetry_equiv_pos_as_xyz
  1  'x, y, z'
loop_
 _atom_site_type_symbol
 _atom_site_label
 _atom_site_symmetry_multiplicity
 _atom_site_fract_x
 _atom_site_fract_y
 _atom_site_fract_z
 _atom_site_occupancy
  In  In0  1  -0.02503814  0.14687966  0.11089148  1
  In  In1  1  -0.01477236  0.16547003  0.62365811  1
  In  In2  1  0.01042248  0.50305499  0.13260107  1
  In  In3  1  0.01034045  0.50487845  0.61436285  1
  In  In4  1  -0.00058793  0.83302451  0.12792370  1
  In  In5  1  0.00787032  0.83821761  0.61967009  1
  In  In6  1  0.33432432  0.17213206  0.12073283  1
  In  In7  1  0.33528709  0.14742897  0.62607506  1
  In  In8  1  0.34340655  0.50843882  0.13205849  1
  In  In9  1  0.34838648  0.52366765  0.60664106  1
  In  In10  1  0.32468094  0.82929338  0.12203691  1
  In  In11  1  0.33219064  0.83811374  0.62777386  1
  In  In12  1  0.68392583  0.14108674  0.14417243  1
  In  In13  1  0.67076503  0.16695689  0.62878016  1
  In  In14  1  0.65349724  0.49860691  0.13111147  1
  In  In15  1  0.65740878  0.50809344  0.63089940  1
  In  In16  1  0.69217365  0.85087436  0.09958919  1
  In  In17  1  0.67603588  0.82866685  0.62962932  1
  In  In18  1  0.14880410  -0.00146131  0.37328519  1
  In  In19  1  0.16484729  -0.00627136  0.87672715  1
  In  In20  1  0.17685896  0.33892277  0.37573878  1
  In  In21  1  0.15035878  0.32340469  0.87344225  1
  In  In22  1  0.16648523  0.67168566  0.38305598  1
  In  In23  1  0.18073193  0.67166507  0.86854667  1
  In  In24  1  0.51771249  0.00561595  0.37275793  1
  In  In25  1  0.49786145  -0.00785778  0.87102257  1
  In  In26  1  0.50974549  0.32854185  0.38577730  1
  In  In27  1  0.50794033  0.32021310  0.87329998  1
  In  In28  1  0.48457930  0.66697118  0.37842349  1
  In  In29  1  0.51613101  0.68900001  0.86131377  1
  In  In30  1  0.83508785  -0.00052395  0.37878317  1
  In  In31  1  0.82904895  -0.00459964  0.87456569  1
  In  In32  1  0.80986689  0.34030955  0.37203926  1
  In  In33  1  0.82235135  0.33181940  0.87630525  1
  In  In34  1  0.85661102  0.67111320  0.37282099  1
  In  In35  1  0.82300440  0.68233945  0.88152328  1
  In  In36  1  -0.00288060  0.14716492  0.37058227  1
  In  In37  1  0.01178600  0.15362422  0.88778999  1
  In  In38  1  -0.00374043  0.53327730  0.37409219  1
  In  In39  1  -0.00198394  0.49654269  0.87320331  1
  In  In40  1  -0.00181479  0.83520047  0.37950050  1
  In  In41  1  -0.01468133  0.84832907  0.88250968  1
  In  In42  1  0.33847244  0.17820742  0.37795840  1
  In  In43  1  0.33659580  0.14538108  0.87524860  1
  In  In44  1  0.32280917  0.51818132  0.39207807  1
  In  In45  1  0.32570630  0.51311803  0.87040715  1
  In  In46  1  0.33197372  0.81545818  0.37716397  1
  In  In47  1  0.33242142  0.83334287  0.87354883  1
  In  In48  1  0.66917385  0.17054912  0.37691734  1
  In  In49  1  0.66736286  0.16489050  0.87203272  1
  In  In50  1  0.67134621  0.48287936  0.37502724  1
  In  In51  1  0.66423315  0.49835009  0.86463341  1
  In  In52  1  0.66963438  0.85436362  0.37432978  1
  In  In53  1  0.66502506  0.83515541  0.87671617  1
  In  In54  1  0.15400327  -0.01358085  0.12059733  1
  In  In55  1  0.17446067  -0.01317016  0.63331706  1
  In  In56  1  0.16904580  0.32919714  0.12272733  1
  In  In57  1  0.15763447  0.33622904  0.62356366  1
  In  In58  1  0.15933142  0.67423653  0.13673133  1
  In  In59  1  0.18616849  0.69394126  0.59658264  1
  In  In60  1  0.53327231  -0.00545549  0.12169188  1
  In  In61  1  0.49768780  0.00706749  0.62891631  1
  In  In62  1  0.50121764  0.33744699  0.12899516  1
  In  In63  1  0.50917567  0.34021021  0.62190774  1
  In  In64  1  0.49483033  0.66872306  0.12918019  1
  In  In65  1  0.50579317  0.66895393  0.62569838  1
  In  In66  1  0.83284197  -0.00192459  0.12507021  1
  In  In67  1  0.83183317  0.00028119  0.63052603  1
  In  In68  1  0.83559677  0.31218438  0.12524532  1
  In  In69  1  0.83698437  0.31939265  0.62291288  1
  In  In70  1  0.83096855  0.68544912  0.12455571  1
  In  In71  1  0.82202933  0.66409173  0.62108611  1
  In  In72  1  0.83216971  0.50010509  -0.00169078  1
  In  In73  1  0.33914610  -0.00254736  0.25310811  1
  In  In74  1  0.33687251  0.33465495  0.74880392  1
  In  In75  1  -0.00213986  0.33351608  0.24752100  1
  In  In76  1  0.16902187  0.16498832  0.49824080  1
  In  In77  1  0.83243182  0.50133276  0.49281190  1
  In  In78  1  0.49782441  0.50639273  0.00529803  1
  In  In79  1  0.50419377  0.15775414  0.00105222  1
  In  In80  1  0.50205714  0.83746587  0.50144419  1
  In  In81  1  -0.00402388  0.67008320  0.74738849  1
  In  In82  1  0.33648605  0.33938220  0.25158814  1
  In  In83  1  -0.00634063  0.33141882  0.74788414  1
  In  In84  1  0.16394278  0.49973107  0.00520883  1
  In  In85  1  0.66834125  0.67052475  0.24675357  1
  Cu  Cu86  1  0.82786052  0.83701925  0.75491725  1
  Cu  Cu87  1  0.16477666  0.83311784  0.74816031  1
  Cu  Cu88  1  0.33330638  0.67272973  -0.00188939  1
  Cu  Cu89  1  0.16686503  0.51232994  0.25941061  1
  Cu  Cu90  1  0.50537624  0.83569977  0.24903721  1
  Cu  Cu91  1  -0.00141489  -0.00481468  0.00036049  1
  Cu  Cu92  1  0.17531001  0.50739333  0.74039355  1
  Cu  Cu93  1  -0.00602932  0.33203405  0.49430698  1
  Cu  Cu94  1  0.82915299  0.16162861  0.25211041  1
  Cu  Cu95  1  0.16644367  0.15352856  0.75466952  1
  Cu  Cu96  1  0.32165070  0.32787318  -0.00228579  1
  Cu  Cu97  1  0.67456940  0.01024897  0.50149329  1
  Cu  Cu98  1  0.66867704  0.32972880  0.50289561  1
  Cu  Cu99  1  0.66801373  0.32665692  0.00139701  1
  Cu  Cu100  1  0.82846742  0.50141787  0.74753632  1
  Cu  Cu101  1  0.33640632  -0.00389035  0.50237271  1
  Cu  Cu102  1  0.16372358  0.82549868  0.25124469  1
  Cu  Cu103  1  0.49704013  0.50321882  0.74325983  1
  Cu  Cu104  1  0.66660430  0.66955241  0.50071276  1
  Cu  Cu105  1  0.50780956  0.16252029  0.75071710  1
  Cu  Cu106  1  0.83611098  0.83961693  0.24859774  1
  Cu  Cu107  1  0.49861483  0.83492693  0.74829096  1
  Cu  Cu108  1  -0.00194471  -0.00199232  0.50250784  1
  Cu  Cu109  1  0.16070258  0.15844032  0.24266121  1
  Cu  Cu110  1  0.83269472  0.16294381  0.75154616  1
  Cu  Cu111  1  0.00748146  0.67026557  0.00479050  1
  Cu  Cu112  1  0.33964457  0.33528338  0.50178910  1
  Cu  Cu113  1  0.49730659  0.49897611  0.25894536  1
  Cu  Cu114  1  0.32866382  -0.00262326  -0.00166338  1
  Se  Se115  1  0.08295473  0.08062363  0.05321508  1
  Se  Se116  1  0.08254779  0.07816923  0.56267571  1
  Se  Se117  1  0.07036571  0.40656548  0.05788776  1
  Se  Se118  1  0.08064899  0.40991169  0.54752420  1
  Se  Se119  1  0.08891234  0.75233688  0.05947155  1
  Se  Se120  1  0.06699504  0.74438628  0.54750850  1
  Se  Se121  1  0.41302740  0.06902311  0.06238115  1
  Se  Se122  1  0.42078182  0.08185505  0.55058954  1
  Se  Se123  1  0.40210976  0.40788649  0.05732622  1
  Se  Se124  1  0.42405470  0.41929306  0.55292954  1
  Se  Se125  1  0.41572177  0.74888336  0.05721152  1
  Se  Se126  1  0.41094620  0.74649718  0.55664638  1
  Se  Se127  1  0.74486866  0.07876898  0.05820922  1
  Se  Se128  1  0.75761685  0.08915149  0.55894811  1
  Se  Se129  1  0.74169115  0.41240161  0.06226023  1
  Se  Se130  1  0.74836845  0.41556431  0.56207733  1
  Se  Se131  1  0.75969455  0.74603398  0.04155050  1
  Se  Se132  1  0.75029762  0.75407309  0.55102416  1
  Se  Se133  1  0.24317031  0.24298669  0.05169019  1
  Se  Se134  1  0.25855780  0.25348199  0.56230257  1
  Se  Se135  1  0.25690721  0.59076422  0.06162554  1
  Se  Se136  1  0.22692833  0.56477668  0.55472491  1
  Se  Se137  1  0.24590998  0.91358323  0.05251806  1
  Se  Se138  1  0.25031637  0.91633769  0.55413493  1
  Se  Se139  1  0.58666567  0.25148740  0.06334714  1
  Se  Se140  1  0.58598013  0.24704252  0.55782113  1
  Se  Se141  1  0.59314212  0.59646598  0.05864498  1
  Se  Se142  1  0.58502551  0.58615698  0.55388153  1
  Se  Se143  1  0.57183482  0.89786254  0.04650194  1
  Se  Se144  1  0.59376631  0.92630851  0.56057507  1
  Se  Se145  1  0.90884639  0.24522424  0.04624916  1
  Se  Se146  1  0.91519005  0.24604610  0.54692715  1
  Se  Se147  1  0.92598813  0.58647921  0.06062849  1
  Se  Se148  1  0.92083526  0.59270410  0.55251739  1
  Se  Se149  1  0.91729318  0.91338280  0.05736811  1
  Se  Se150  1  0.91362328  0.91933318  0.55885109  1
  Se  Se151  1  0.07763725  0.25124239  0.43442541  1
  Se  Se152  1  0.08078676  0.25250923  0.95153777  1
  Se  Se153  1  0.09373712  0.57279342  0.44736434  1
  Se  Se154  1  0.07978558  0.59013932  0.93847964  1
  Se  Se155  1  0.08443421  0.91677986  0.45019173  1
  Se  Se156  1  0.08519589  0.91191734  0.94899541  1
  Se  Se157  1  0.42087949  0.24742017  0.45244567  1
  Se  Se158  1  0.40906878  0.25126013  0.94198073  1
  Se  Se159  1  0.42275201  0.58489854  0.45578186  1
  Se  Se160  1  0.41368739  0.59306112  0.93864571  1
  Se  Se161  1  0.41463747  0.92365391  0.43470675  1
  Se  Se162  1  0.41339020  0.91750068  0.94315540  1
  Se  Se163  1  0.75412903  0.25044087  0.44885128  1
  Se  Se164  1  0.74755173  0.24434963  0.94569598  1
  Se  Se165  1  0.74357640  0.59419345  0.43380492  1
  Se  Se166  1  0.73577644  0.58484216  0.94095675  1
  Se  Se167  1  0.75272600  0.91889025  0.45122980  1
  Se  Se168  1  0.76581787  0.89822457  0.94297695  1
  Se  Se169  1  0.25727474  0.07343166  0.43656294  1
  Se  Se170  1  0.24530327  0.08188925  0.94669150  1
  Se  Se171  1  0.25039385  0.41435254  0.45126995  1
  Se  Se172  1  0.25105615  0.41311190  0.93628799  1
  Se  Se173  1  0.25245646  0.74962417  0.45345900  1
  Se  Se174  1  0.24711011  0.75276891  0.94525475  1
  Se  Se175  1  0.58597136  0.08789632  0.44847336  1
  Se  Se176  1  0.59232175  0.06913754  0.94124633  1
  Se  Se177  1  0.58777400  0.41928927  0.45289574  1
  Se  Se178  1  0.58633765  0.41003116  0.94453510  1
  Se  Se179  1  0.59048922  0.75032798  0.43669137  1
  Se  Se180  1  0.57643245  0.75618429  0.94548847  1
  Se  Se181  1  0.91712251  0.08397308  0.44958287  1
  Se  Se182  1  0.91331503  0.07649784  0.94625071  1
  Se  Se183  1  0.92182640  0.41310971  0.43025246  1
  Se  Se184  1  0.92419368  0.40619022  0.94218371  1
  Se  Se185  1  0.91308957  0.75647843  0.44948811  1
  Se  Se186  1  0.92174759  0.74594338  0.94751602  1
  Se  Se187  1  0.23974759  0.23980054  0.30243007  1
  Se  Se188  1  0.24608412  0.24244104  0.80898206  1
  Se  Se189  1  0.25395261  0.59162643  0.31137128  1
  Se  Se190  1  0.25572307  0.59211498  0.79366635  1
  Se  Se191  1  0.24369884  0.90908292  0.31105835  1
  Se  Se192  1  0.24770242  0.91541178  0.80444133  1
  Se  Se193  1  0.59215724  0.26248002  0.31094324  1
  Se  Se194  1  0.58995386  0.25048509  0.79962457  1
  Se  Se195  1  0.58107695  0.58337620  0.31370207  1
  Se  Se196  1  0.58121767  0.58398466  0.79976782  1
  Se  Se197  1  0.58840693  0.92311481  0.29747746  1
  Se  Se198  1  0.58473045  0.91492508  0.80224452  1
  Se  Se199  1  0.90969489  0.24464937  0.31138352  1
  Se  Se200  1  0.91426362  0.24129720  0.81353393  1
  Se  Se201  1  0.89799806  0.57041900  0.29917412  1
  Se  Se202  1  0.90559541  0.57998952  0.81067894  1
  Se  Se203  1  0.91800523  0.91886225  0.30789643  1
  Se  Se204  1  0.91701136  0.92017892  0.80142262  1
  Se  Se205  1  0.07790579  0.07540331  0.29516615  1
  Se  Se206  1  0.07864923  0.07667121  0.80796353  1
  Se  Se207  1  0.08629756  0.42283022  0.31153337  1
  Se  Se208  1  0.09359365  0.42697755  0.79973506  1
  Se  Se209  1  0.08106309  0.74905128  0.31131519  1
  Se  Se210  1  0.08229793  0.75843815  0.81144610  1
  Se  Se211  1  0.42446060  0.09488018  0.30966596  1
  Se  Se212  1  0.42001955  0.07953126  0.80024576  1
  Se  Se213  1  0.41541378  0.42416763  0.32174918  1
  Se  Se214  1  0.42609514  0.42446252  0.81230537  1
  Se  Se215  1  0.42115072  0.75341071  0.30162530  1
  Se  Se216  1  0.41113200  0.75143073  0.79950134  1
  Se  Se217  1  0.74860576  0.08005416  0.30985593  1
  Se  Se218  1  0.74833885  0.07990580  0.80420002  1
  Se  Se219  1  0.74894721  0.42254172  0.29401061  1
  Se  Se220  1  0.75071915  0.41313780  0.80106094  1
  Se  Se221  1  0.75577633  0.75992011  0.31051253  1
  Se  Se222  1  0.74450105  0.74903401  0.80344496  1
  Se  Se223  1  0.24840536  0.08193033  0.18704252  1
  Se  Se224  1  0.25346109  0.07607077  0.70037979  1
  Se  Se225  1  0.23903084  0.42933046  0.19380817  1
  Se  Se226  1  0.25256836  0.42170970  0.68321739  1
  Se  Se227  1  0.25560427  0.74864211  0.20046357  1
  Se  Se228  1  0.24319174  0.75054458  0.68922108  1
  Se  Se229  1  0.56767573  0.09042050  0.19873677  1
  Se  Se230  1  0.59021329  0.07950375  0.69657719  1
  Se  Se231  1  0.57758278  0.41598853  0.20324670  1
  Se  Se232  1  0.58431131  0.41531446  0.69903975  1
  Se  Se233  1  0.58715363  0.76316814  0.18430210  1
  Se  Se234  1  0.58440071  0.75185332  0.69566945  1
  Se  Se235  1  0.91423812  0.08042386  0.19749007  1
  Se  Se236  1  0.91942167  0.08203212  0.69941713  1
  Se  Se237  1  0.90676390  0.42000851  0.18674068  1
  Se  Se238  1  0.91234158  0.42833188  0.68525355  1
  Se  Se239  1  0.91755708  0.75039290  0.19932278  1
  Se  Se240  1  0.90445929  0.75871174  0.68878358  1
  Se  Se241  1  0.08081969  0.24032665  0.18480931  1
  Se  Se242  1  0.09024470  0.23715871  0.69357819  1
  Se  Se243  1  0.07874448  0.58968630  0.20547188  1
  Se  Se244  1  0.08935131  0.58745046  0.68618960  1
  Se  Se245  1  0.08253025  0.91339199  0.19992783  1
  Se  Se246  1  0.07745944  0.91614140  0.69849925  1
  Se  Se247  1  0.42265201  0.24213747  0.19577194  1
  Se  Se248  1  0.42376277  0.24094977  0.68970688  1
  Se  Se249  1  0.41976121  0.58714204  0.20459816  1
  Se  Se250  1  0.41496159  0.58854014  0.69225083  1
  Se  Se251  1  0.42422339  0.91302476  0.18624351  1
  Se  Se252  1  0.41607407  0.91967733  0.69489834  1
  Se  Se253  1  0.74844656  0.25038432  0.20133889  1
  Se  Se254  1  0.75407353  0.25208101  0.69856247  1
  Se  Se255  1  0.75694444  0.58021212  0.18636678  1
  Se  Se256  1  0.74640525  0.58857367  0.69705221  1
  Se  Se257  1  0.74664675  0.91210349  0.19148730  1
  Se  Se258  1  0.74530115  0.92048790  0.69951623  1
