# generated using pymatgen
data_In86Cu29Se144
_symmetry_space_group_name_H-M   'P 1'
_cell_length_a   17.57834190
_cell_length_b   17.57108224
_cell_length_c   23.43198901
_cell_angle_alpha   90.00697114
_cell_angle_beta   89.98502948
_cell_angle_gamma   89.99933713
_symmetry_Int_Tables_number   1
_chemical_formula_structural   In86Cu29Se144
_chemical_formula_sum   'In86 Cu29 Se144'
_cell_volume   7237.44965413
_cell_formula_units_Z   1
loop_
 _symmetry_equiv_pos_site_id
 _symmetry_equiv_pos_as_xyz
  1  'x, y, z'
loop_
 _atom_site_type_symbol
 _atom_site_label
 _atom_site_symmetry_multiplicity
 _atom_site_fract_x
 _atom_site_fract_y
 _atom_site_fract_z
 _atom_site_occupancy
  In  In0  1  -0.00860779  0.15930123  0.12617372  1
  In  In1  1  -0.00580333  0.15902980  0.60116090  1
  In  In2  1  0.00559819  0.50397207  0.11535974  1
  In  In3  1  0.01470460  0.48727934  0.61809873  1
  In  In4  1  0.00977805  0.83761027  0.12966309  1
  In  In5  1  -0.00115416  0.84263944  0.61280528  1
  In  In6  1  0.33066554  0.18026323  0.12959198  1
  In  In7  1  0.33578415  0.16438723  0.62454463  1
  In  In8  1  0.32453395  0.49572658  0.12181720  1
  In  In9  1  0.33212009  0.49938603  0.62454268  1
  In  In10  1  0.31529918  0.84473367  0.12868439  1
  In  In11  1  0.32729540  0.84278591  0.63033193  1
  In  In12  1  0.67780729  0.15795113  0.13736441  1
  In  In13  1  0.66934137  0.16292901  0.62177817  1
  In  In14  1  0.65969273  0.48265698  0.12091602  1
  In  In15  1  0.65123925  0.51055349  0.63044465  1
  In  In16  1  0.68339235  0.84522151  0.12672497  1
  In  In17  1  0.67067168  0.83408002  0.62551610  1
  In  In18  1  0.16585728  -0.00015273  0.37948017  1
  In  In19  1  0.16345834  -0.00116475  0.87834064  1
  In  In20  1  0.17358897  0.31890201  0.38300757  1
  In  In21  1  0.17179612  0.32919709  0.87806351  1
  In  In22  1  0.16949794  0.66922319  0.38899906  1
  In  In23  1  0.17008122  0.66007945  0.87434651  1
  In  In24  1  0.52178026  0.01397023  0.37491778  1
  In  In25  1  0.50067907  -0.00203627  0.86465360  1
  In  In26  1  0.50209633  0.33067778  0.38322839  1
  In  In27  1  0.49969654  0.33253952  0.86431564  1
  In  In28  1  0.47738274  0.66318023  0.38470106  1
  In  In29  1  0.50244395  0.66997603  0.86085150  1
  In  In30  1  0.82832388  0.00551223  0.38833340  1
  In  In31  1  0.83568538  0.00754347  0.87156391  1
  In  In32  1  0.81374674  0.32340184  0.36728836  1
  In  In33  1  0.83504058  0.33228293  0.87768685  1
  In  In34  1  0.84522860  0.67381276  0.37887915  1
  In  In35  1  0.81995906  0.66376876  0.86754554  1
  In  In36  1  0.01646030  0.14233704  0.40819051  1
  In  In37  1  -0.00176696  0.16397481  0.88273689  1
  In  In38  1  0.00276359  0.50969667  0.37396158  1
  In  In39  1  0.00466463  0.49384726  0.88014579  1
  In  In40  1  -0.00772612  0.85112088  0.39632296  1
  In  In41  1  0.00277445  0.84844096  0.87237526  1
  In  In42  1  0.33077429  0.17803676  0.37999094  1
  In  In43  1  0.32419707  0.16014483  0.86543161  1
  In  In44  1  0.34587602  0.49363768  0.38959236  1
  In  In45  1  0.32796226  0.49550509  0.86674343  1
  In  In46  1  0.31556974  0.83416636  0.38449188  1
  In  In47  1  0.32436745  0.82688946  0.86481911  1
  In  In48  1  0.66739207  0.16805097  0.38839318  1
  In  In49  1  0.67175479  0.17194342  0.86851457  1
  In  In50  1  0.66685535  0.47979361  0.37676318  1
  In  In51  1  0.67220875  0.50029739  0.86691597  1
  In  In52  1  0.66606682  0.85891197  0.38284408  1
  In  In53  1  0.67548153  0.83327378  0.85564149  1
  In  In54  1  0.15263633  -0.00859845  0.12376871  1
  In  In55  1  0.17194854  0.01144549  0.61143235  1
  In  In56  1  0.17264226  0.33787860  0.12378420  1
  In  In57  1  0.17217118  0.34008806  0.61240604  1
  In  In58  1  0.16811865  0.66655628  0.11838674  1
  In  In59  1  0.18460953  0.67774054  0.61343116  1
  In  In60  1  0.51075307  0.01678797  0.13278138  1
  In  In61  1  0.49751296  0.00262081  0.62525710  1
  In  In62  1  0.50684062  0.31552547  0.14354087  1
  In  In63  1  0.49681265  0.33047082  0.62723027  1
  In  In64  1  0.49685171  0.66046588  0.12646853  1
  In  In65  1  0.50497789  0.66142895  0.62684851  1
  In  In66  1  0.82826480  0.01221945  0.13614574  1
  In  In67  1  0.81794804  -0.01534940  0.59296041  1
  In  In68  1  0.82931987  0.32559902  0.11983031  1
  In  In69  1  0.82852617  0.31434355  0.62026417  1
  In  In70  1  0.85016669  0.67073288  0.12183420  1
  In  In71  1  0.81870047  0.66857221  0.62969351  1
  In  In72  1  0.83839606  0.83366319  -0.00708302  1
  In  In73  1  -0.00239116  0.66754156  0.74024241  1
  In  In74  1  0.33493607  0.00721403  0.26051466  1
  In  In75  1  0.00258821  0.32611204  0.73837075  1
  In  In76  1  0.66462938  0.66599818  0.25156841  1
  In  In77  1  0.49148147  0.83197026  -0.00790534  1
  In  In78  1  0.00669114  0.67264552  0.25148145  1
  In  In79  1  0.32902933  0.66571201  0.24910335  1
  In  In80  1  0.49343350  0.49383251  -0.00953040  1
  In  In81  1  0.83281767  0.50234433  0.50122339  1
  In  In82  1  0.49559764  0.16744788  0.00509093  1
  In  In83  1  -0.00812014  0.32346846  0.25575770  1
  In  In84  1  0.49924751  0.83678983  0.50416810  1
  In  In85  1  -0.00691534  0.00171617  0.74317887  1
  Cu  Cu86  1  0.00379848  0.33070502  0.00258297  1
  Cu  Cu87  1  0.50178542  0.83616653  0.74141782  1
  Cu  Cu88  1  0.66468870  0.00366148  0.00375971  1
  Cu  Cu89  1  0.16961175  0.83532536  0.74690952  1
  Cu  Cu90  1  0.17383634  0.49789757  0.74589437  1
  Cu  Cu91  1  -0.00077375  0.00232301  0.00204579  1
  Cu  Cu92  1  0.83043730  0.85094265  0.26220143  1
  Cu  Cu93  1  0.00286368  0.66605576  0.50226561  1
  Cu  Cu94  1  0.50233653  0.83994369  0.25537331  1
  Cu  Cu95  1  0.16902303  0.16647417  0.74133687  1
  Cu  Cu96  1  0.82725331  0.49552602  0.24155910  1
  Cu  Cu97  1  0.83057516  0.49296181  0.74930566  1
  Cu  Cu98  1  0.32402805  0.67299377  -0.00416281  1
  Cu  Cu99  1  0.00359314  0.66307947  -0.00299692  1
  Cu  Cu100  1  0.31726803  0.00365636  -0.00112559  1
  Cu  Cu101  1  0.49555040  0.49571947  0.74697465  1
  Cu  Cu102  1  0.82817434  0.16175494  0.74495754  1
  Cu  Cu103  1  0.83683368  0.16214009  0.26180882  1
  Cu  Cu104  1  0.50116730  0.16387350  0.74328700  1
  Cu  Cu105  1  0.33732484  0.00525428  0.49922525  1
  Cu  Cu106  1  0.16108460  0.16104154  0.25887289  1
  Cu  Cu107  1  0.33619534  0.33197023  0.50411782  1
  Cu  Cu108  1  0.50274133  0.48681309  0.26171095  1
  Cu  Cu109  1  0.67945361  0.32644743  -0.00008482  1
  Cu  Cu110  1  0.33300931  0.33527087  -0.00017821  1
  Cu  Cu111  1  0.66510873  0.67056846  0.50193894  1
  Cu  Cu112  1  0.65670373  0.33551293  0.50479343  1
  Cu  Cu113  1  0.67243698  0.65885507  -0.01139977  1
  Cu  Cu114  1  0.17582770  0.49221619  0.25326949  1
  Se  Se115  1  0.08173708  0.08555685  0.05645706  1
  Se  Se116  1  0.08634724  0.08171966  0.53899354  1
  Se  Se117  1  0.08899144  0.41605080  0.05272497  1
  Se  Se118  1  0.06709195  0.39422691  0.54288939  1
  Se  Se119  1  0.07648099  0.74839489  0.05676301  1
  Se  Se120  1  0.08556094  0.75188252  0.55323514  1
  Se  Se121  1  0.40366670  0.07243380  0.06231870  1
  Se  Se122  1  0.42089121  0.08546391  0.55344343  1
  Se  Se123  1  0.42064598  0.40438094  0.06301745  1
  Se  Se124  1  0.41883663  0.41671131  0.55719452  1
  Se  Se125  1  0.40490800  0.74568054  0.06107989  1
  Se  Se126  1  0.41149604  0.74894302  0.56457841  1
  Se  Se127  1  0.74954020  0.08303453  0.05808733  1
  Se  Se128  1  0.77467282  0.11328272  0.55042999  1
  Se  Se129  1  0.75492782  0.41863228  0.05208378  1
  Se  Se130  1  0.74154363  0.41754232  0.56411373  1
  Se  Se131  1  0.74450436  0.74265210  0.05441356  1
  Se  Se132  1  0.75084378  0.75087267  0.55331072  1
  Se  Se133  1  0.25040799  0.25050771  0.05307362  1
  Se  Se134  1  0.25225948  0.24392219  0.55291601  1
  Se  Se135  1  0.25053929  0.58240828  0.05106239  1
  Se  Se136  1  0.22365624  0.55568736  0.56141413  1
  Se  Se137  1  0.23895642  0.91409097  0.05129244  1
  Se  Se138  1  0.25593436  0.91778220  0.55107804  1
  Se  Se139  1  0.59447792  0.25290858  0.06205970  1
  Se  Se140  1  0.57987724  0.24715311  0.55799319  1
  Se  Se141  1  0.58668852  0.58722531  0.05197395  1
  Se  Se142  1  0.58113895  0.58436501  0.55005227  1
  Se  Se143  1  0.58284493  0.91953450  0.05904594  1
  Se  Se144  1  0.59339746  0.92803846  0.55568300  1
  Se  Se145  1  0.91904048  0.24696277  0.05469287  1
  Se  Se146  1  0.93859552  0.28086799  0.55243737  1
  Se  Se147  1  0.91590525  0.58294834  0.04905902  1
  Se  Se148  1  0.92318996  0.58932708  0.56564091  1
  Se  Se149  1  0.91599152  0.92181803  0.06232781  1
  Se  Se150  1  0.93857131  0.93716813  0.54276722  1
  Se  Se151  1  0.07132539  0.26590224  0.45140064  1
  Se  Se152  1  0.08443392  0.24944839  0.94498191  1
  Se  Se153  1  0.08265691  0.57930315  0.44983892  1
  Se  Se154  1  0.08784475  0.57995141  0.94470531  1
  Se  Se155  1  0.11613508  0.89287882  0.44619591  1
  Se  Se156  1  0.08100742  0.91719555  0.94938873  1
  Se  Se157  1  0.41982105  0.24703510  0.45248404  1
  Se  Se158  1  0.41162531  0.25441503  0.93867875  1
  Se  Se159  1  0.41148021  0.58491738  0.46126096  1
  Se  Se160  1  0.41036647  0.59664886  0.93592771  1
  Se  Se161  1  0.41542382  0.92628390  0.43584658  1
  Se  Se162  1  0.40289937  0.92834491  0.93769178  1
  Se  Se163  1  0.74972412  0.25973066  0.45458579  1
  Se  Se164  1  0.75639938  0.24077993  0.94403725  1
  Se  Se165  1  0.74213637  0.59033845  0.43697416  1
  Se  Se166  1  0.75689978  0.57330565  0.94149180  1
  Se  Se167  1  0.76084684  0.90778403  0.45654673  1
  Se  Se168  1  0.73807523  0.92114814  0.93909906  1
  Se  Se169  1  0.25207873  0.08556709  0.44382147  1
  Se  Se170  1  0.24262233  0.09104551  0.94285755  1
  Se  Se171  1  0.25031731  0.41167512  0.44860999  1
  Se  Se172  1  0.25262744  0.41936019  0.94396710  1
  Se  Se173  1  0.27402370  0.72852621  0.45267204  1
  Se  Se174  1  0.24288215  0.75593246  0.94123869  1
  Se  Se175  1  0.59067152  0.07898495  0.45694205  1
  Se  Se176  1  0.58343215  0.07898029  0.94116428  1
  Se  Se177  1  0.57716902  0.42399383  0.45299964  1
  Se  Se178  1  0.59311910  0.40298677  0.93985737  1
  Se  Se179  1  0.58644112  0.74707722  0.43685476  1
  Se  Se180  1  0.59252976  0.74682370  0.93488696  1
  Se  Se181  1  0.89041198  0.10465860  0.45855905  1
  Se  Se182  1  0.91155847  0.08037355  0.94819828  1
  Se  Se183  1  0.90750781  0.41931978  0.42773112  1
  Se  Se184  1  0.92025056  0.41181431  0.94636092  1
  Se  Se185  1  0.91437558  0.75121890  0.45576712  1
  Se  Se186  1  0.92592537  0.74021384  0.93200232  1
  Se  Se187  1  0.24776536  0.24873163  0.30328578  1
  Se  Se188  1  0.24430291  0.25115450  0.80049061  1
  Se  Se189  1  0.24838233  0.57618155  0.31552218  1
  Se  Se190  1  0.25132733  0.58655589  0.79966808  1
  Se  Se191  1  0.24151760  0.90741115  0.30401298  1
  Se  Se192  1  0.24442569  0.92285860  0.80439963  1
  Se  Se193  1  0.60699538  0.26933096  0.32043246  1
  Se  Se194  1  0.58294258  0.24699744  0.79997878  1
  Se  Se195  1  0.57446891  0.58067680  0.31682880  1
  Se  Se196  1  0.58319813  0.57786905  0.79980502  1
  Se  Se197  1  0.58913366  0.92431607  0.30179427  1
  Se  Se198  1  0.58607922  0.91937934  0.79610443  1
  Se  Se199  1  0.92098220  0.23227122  0.32504072  1
  Se  Se200  1  0.91484661  0.23935982  0.80391038  1
  Se  Se201  1  0.90489740  0.57795658  0.30124371  1
  Se  Se202  1  0.91701800  0.57163149  0.80536921  1
  Se  Se203  1  0.91686547  0.92521621  0.31883391  1
  Se  Se204  1  0.90312280  0.90729382  0.80199530  1
  Se  Se205  1  0.07758599  0.08496154  0.31664194  1
  Se  Se206  1  0.08458767  0.09207453  0.80421073  1
  Se  Se207  1  0.08714124  0.41708353  0.30997980  1
  Se  Se208  1  0.08773786  0.41828411  0.80262426  1
  Se  Se209  1  0.08282823  0.75474973  0.32236838  1
  Se  Se210  1  0.08551635  0.75649114  0.80512022  1
  Se  Se211  1  0.42808614  0.09918844  0.31278819  1
  Se  Se212  1  0.41623656  0.08362953  0.80025948  1
  Se  Se213  1  0.41341946  0.41065507  0.31319630  1
  Se  Se214  1  0.41139187  0.41239686  0.79958415  1
  Se  Se215  1  0.41699708  0.76069914  0.30956731  1
  Se  Se216  1  0.41738070  0.75476773  0.79746224  1
  Se  Se217  1  0.74792611  0.08466408  0.31510609  1
  Se  Se218  1  0.74746419  0.07930591  0.80140197  1
  Se  Se219  1  0.74494180  0.41434351  0.29603403  1
  Se  Se220  1  0.75228246  0.40675345  0.80424604  1
  Se  Se221  1  0.75300664  0.75796187  0.31402126  1
  Se  Se222  1  0.75253934  0.74279151  0.79159356  1
  Se  Se223  1  0.24148258  0.08636487  0.19276547  1
  Se  Se224  1  0.25003406  0.07777272  0.69159321  1
  Se  Se225  1  0.25758021  0.41143048  0.19778256  1
  Se  Se226  1  0.24978166  0.40879361  0.69208164  1
  Se  Se227  1  0.23223926  0.75693057  0.19711950  1
  Se  Se228  1  0.25222926  0.74798137  0.69696552  1
  Se  Se229  1  0.57932093  0.09801800  0.20582544  1
  Se  Se230  1  0.58703595  0.08074705  0.69253338  1
  Se  Se231  1  0.58779050  0.41328338  0.20140932  1
  Se  Se232  1  0.58263163  0.41326262  0.69612963  1
  Se  Se233  1  0.57744786  0.76002687  0.18903048  1
  Se  Se234  1  0.58641419  0.75026800  0.69203701  1
  Se  Se235  1  0.92118791  0.08274290  0.20493418  1
  Se  Se236  1  0.91032476  0.09171731  0.68049149  1
  Se  Se237  1  0.91866177  0.42165965  0.18730542  1
  Se  Se238  1  0.90906976  0.42103912  0.68503397  1
  Se  Se239  1  0.90589543  0.76561883  0.20027376  1
  Se  Se240  1  0.91076359  0.76401745  0.68614151  1
  Se  Se241  1  0.08859365  0.24436597  0.19277737  1
  Se  Se242  1  0.08831387  0.23630521  0.67705897  1
  Se  Se243  1  0.09445286  0.57386902  0.19439044  1
  Se  Se244  1  0.09185525  0.57631282  0.68690286  1
  Se  Se245  1  0.07954050  0.92005665  0.20276389  1
  Se  Se246  1  0.09145536  0.91543938  0.68656562  1
  Se  Se247  1  0.41120433  0.24555094  0.20611162  1
  Se  Se248  1  0.41311012  0.24815481  0.69678053  1
  Se  Se249  1  0.42533310  0.56734866  0.19705857  1
  Se  Se250  1  0.41584774  0.58302509  0.69387892  1
  Se  Se251  1  0.42166487  0.91510443  0.19138388  1
  Se  Se252  1  0.41502132  0.92310800  0.69620673  1
  Se  Se253  1  0.76376306  0.24688950  0.19989403  1
  Se  Se254  1  0.74473482  0.24991238  0.69641686  1
  Se  Se255  1  0.75267081  0.58297663  0.18285578  1
  Se  Se256  1  0.74720265  0.57982237  0.69900819  1
  Se  Se257  1  0.74521149  0.92730988  0.20463969  1
  Se  Se258  1  0.75704906  0.92788007  0.68209680  1
