# generated using pymatgen
data_In86Cu29Se144
_symmetry_space_group_name_H-M   'P 1'
_cell_length_a   17.58160032
_cell_length_b   17.58476923
_cell_length_c   23.43545663
_cell_angle_alpha   90.00781645
_cell_angle_beta   90.00826456
_cell_angle_gamma   90.00274027
_symmetry_Int_Tables_number   1
_chemical_formula_structural   In86Cu29Se144
_chemical_formula_sum   'In86 Cu29 Se144'
_cell_volume   7245.50211202
_cell_formula_units_Z   1
loop_
 _symmetry_equiv_pos_site_id
 _symmetry_equiv_pos_as_xyz
  1  'x, y, z'
loop_
 _atom_site_type_symbol
 _atom_site_label
 _atom_site_symmetry_multiplicity
 _atom_site_fract_x
 _atom_site_fract_y
 _atom_site_fract_z
 _atom_site_occupancy
  In  In0  1  0.00272608  0.16678415  0.12661220  1
  In  In1  1  -0.00016211  0.17125900  0.63587259  1
  In  In2  1  -0.01370322  0.49705464  0.12651862  1
  In  In3  1  -0.01046464  0.49158914  0.61603750  1
  In  In4  1  -0.00171054  0.84829116  0.13139055  1
  In  In5  1  0.00561063  0.83851961  0.62035446  1
  In  In6  1  0.33499693  0.18201558  0.11713550  1
  In  In7  1  0.31962464  0.16973355  0.64399793  1
  In  In8  1  0.33790898  0.48761907  0.12440646  1
  In  In9  1  0.33416623  0.50153506  0.62192207  1
  In  In10  1  0.34120012  0.82375782  0.12252804  1
  In  In11  1  0.33175501  0.83040277  0.63890916  1
  In  In12  1  0.67440490  0.17120809  0.12796521  1
  In  In13  1  0.68492298  0.16724597  0.62422942  1
  In  In14  1  0.66282089  0.49544416  0.12371677  1
  In  In15  1  0.65876269  0.49572694  0.61242922  1
  In  In16  1  0.66708727  0.82940681  0.11848142  1
  In  In17  1  0.65699906  0.82454987  0.60861481  1
  In  In18  1  0.15265966  0.00559220  0.38017449  1
  In  In19  1  0.18071704  0.01167004  0.85544414  1
  In  In20  1  0.17385119  0.33889898  0.37197752  1
  In  In21  1  0.15707176  0.32591388  0.86335109  1
  In  In22  1  0.17204418  0.66400282  0.38852219  1
  In  In23  1  0.17683767  0.66482032  0.86555013  1
  In  In24  1  0.49848290  -0.01384020  0.38097260  1
  In  In25  1  0.48868562  -0.00503714  0.86988894  1
  In  In26  1  0.51493454  0.35591358  0.35998986  1
  In  In27  1  0.50712170  0.34418506  0.86750154  1
  In  In28  1  0.52158294  0.65526601  0.39817020  1
  In  In29  1  0.49397473  0.66982149  0.87687518  1
  In  In30  1  0.85292805  -0.00946934  0.38049637  1
  In  In31  1  0.83329240  -0.00999864  0.87358696  1
  In  In32  1  0.83269282  0.33596888  0.37789419  1
  In  In33  1  0.83910947  0.33834733  0.87257071  1
  In  In34  1  0.83185231  0.66185914  0.38394897  1
  In  In35  1  0.82957147  0.66891887  0.87991526  1
  In  In36  1  -0.00555781  0.16179134  0.37142799  1
  In  In37  1  0.01277145  0.17379174  0.86337208  1
  In  In38  1  0.00417446  0.49562354  0.38064467  1
  In  In39  1  -0.00148380  0.49202107  0.87494907  1
  In  In40  1  -0.00894603  0.84480498  0.38083486  1
  In  In41  1  -0.00942238  0.83742755  0.86896335  1
  In  In42  1  0.32021475  0.17447146  0.37850405  1
  In  In43  1  0.32005137  0.16332464  0.86394478  1
  In  In44  1  0.34255517  0.49429514  0.38375169  1
  In  In45  1  0.34277871  0.50763065  0.86515324  1
  In  In46  1  0.34497372  0.82280741  0.39054064  1
  In  In47  1  0.34745923  0.84558738  0.85364393  1
  In  In48  1  0.67193349  0.18433917  0.37274354  1
  In  In49  1  0.65588370  0.17520638  0.87319217  1
  In  In50  1  0.67233381  0.49299751  0.38323956  1
  In  In51  1  0.67253707  0.49438324  0.87987081  1
  In  In52  1  0.67788147  0.82041909  0.39132415  1
  In  In53  1  0.66753040  0.82958852  0.87700906  1
  In  In54  1  0.15093939  0.00326982  0.12349860  1
  In  In55  1  0.17692501  -0.01354809  0.65229249  1
  In  In56  1  0.17520112  0.32396862  0.12541834  1
  In  In57  1  0.15788592  0.33498580  0.63278549  1
  In  In58  1  0.17330183  0.66770306  0.12475127  1
  In  In59  1  0.17922760  0.67663577  0.62151592  1
  In  In60  1  0.50530509  -0.00876775  0.12127637  1
  In  In61  1  0.49085676  -0.01020840  0.63156946  1
  In  In62  1  0.49420481  0.34490420  0.13349675  1
  In  In63  1  0.49149731  0.34290458  0.62782650  1
  In  In64  1  0.50148629  0.66280322  0.11667937  1
  In  In65  1  0.49718664  0.66117396  0.61807412  1
  In  In66  1  0.84494438  -0.00334641  0.12760685  1
  In  In67  1  0.84144249  0.00370261  0.61700883  1
  In  In68  1  0.82212266  0.34964261  0.14242360  1
  In  In69  1  0.83557488  0.33242191  0.62334596  1
  In  In70  1  0.82991936  0.66214738  0.12004165  1
  In  In71  1  0.82204306  0.66298428  0.60437046  1
  In  In72  1  0.49683854  0.16825740  0.50030652  1
  In  In73  1  -0.00700441  0.66472271  0.25965827  1
  In  In74  1  0.33723278  0.66070982  0.24851875  1
  In  In75  1  0.67292190  0.65885597  0.26114774  1
  In  In76  1  0.66826088  0.00157439  0.74855208  1
  In  In77  1  0.66166850  0.66148389  0.73439351  1
  In  In78  1  0.16616788  0.50018448  -0.00606379  1
  In  In79  1  0.16651433  0.83540918  -0.00440257  1
  In  In80  1  0.49567728  0.16396972  -0.00592341  1
  In  In81  1  0.67062100  0.00382327  0.24554463  1
  In  In82  1  0.16097424  0.16667010  0.51465629  1
  In  In83  1  0.32764317  0.00445255  0.25473263  1
  In  In84  1  0.00434773  0.66889283  0.74281150  1
  In  In85  1  0.83604699  0.16373673  0.00832692  1
  Cu  Cu86  1  0.34534448  0.66636744  -0.00769892  1
  Cu  Cu87  1  0.32434182  -0.00410138  0.51734377  1
  Cu  Cu88  1  0.83885502  0.49137939  0.74755641  1
  Cu  Cu89  1  0.33799843  0.34257401  0.49959317  1
  Cu  Cu90  1  0.16127740  0.49720988  0.25181622  1
  Cu  Cu91  1  -0.00046692  0.00083296  -0.00023661  1
  Cu  Cu92  1  0.00348048  0.66160033  0.50114623  1
  Cu  Cu93  1  0.66932535  0.00478478  0.50325070  1
  Cu  Cu94  1  0.66914114  0.66152988  -0.00137185  1
  Cu  Cu95  1  0.66722167  0.33559439  0.00452716  1
  Cu  Cu96  1  0.33229096  0.33480070  -0.00321612  1
  Cu  Cu97  1  -0.00092061  0.32886804  0.50246566  1
  Cu  Cu98  1  0.50392269  0.50058067  0.74338974  1
  Cu  Cu99  1  0.32794745  0.67097105  0.50816506  1
  Cu  Cu100  1  0.83632501  0.17530218  0.74835372  1
  Cu  Cu101  1  0.83026058  0.83120141  0.74096305  1
  Cu  Cu102  1  -0.00222178  0.33284010  -0.00449333  1
  Cu  Cu103  1  0.48937617  0.17537833  0.25172872  1
  Cu  Cu104  1  0.00292097  -0.00351480  0.50402130  1
  Cu  Cu105  1  0.16257261  0.84129329  0.25956179  1
  Cu  Cu106  1  -0.00757743  0.67309475  -0.00062411  1
  Cu  Cu107  1  0.16264373  0.17128085  0.25047226  1
  Cu  Cu108  1  0.66929377  0.33336997  0.49811410  1
  Cu  Cu109  1  0.66538423  -0.01745676  -0.00184673  1
  Cu  Cu110  1  0.50528776  0.82581719  0.25462103  1
  Cu  Cu111  1  0.32770469  -0.00566659  -0.01298243  1
  Cu  Cu112  1  0.50197879  0.17556432  0.75064339  1
  Cu  Cu113  1  0.16874489  0.49747775  0.74508760  1
  Cu  Cu114  1  0.83776945  0.17014124  0.25183473  1
  Se  Se115  1  0.08097582  0.08850288  0.05053543  1
  Se  Se116  1  0.07974578  0.06894942  0.57132063  1
  Se  Se117  1  0.07947754  0.41308366  0.05779143  1
  Se  Se118  1  0.08535710  0.41104941  0.55456580  1
  Se  Se119  1  0.07687627  0.74671188  0.06075824  1
  Se  Se120  1  0.08327506  0.74729668  0.55499665  1
  Se  Se121  1  0.40603860  0.07116991  0.05530110  1
  Se  Se122  1  0.40486405  0.08733247  0.56711414  1
  Se  Se123  1  0.41902440  0.41242610  0.05105427  1
  Se  Se124  1  0.42386770  0.42502371  0.55103463  1
  Se  Se125  1  0.42304587  0.75179436  0.04943463  1
  Se  Se126  1  0.41072848  0.75501966  0.56113595  1
  Se  Se127  1  0.73875136  0.06742872  0.05965477  1
  Se  Se128  1  0.75766141  0.08855827  0.54926716  1
  Se  Se129  1  0.75427309  0.41549091  0.05724674  1
  Se  Se130  1  0.75447955  0.41550738  0.55212286  1
  Se  Se131  1  0.75135813  0.74776499  0.05129324  1
  Se  Se132  1  0.75485622  0.76277254  0.54224648  1
  Se  Se133  1  0.24610788  0.24923570  0.04477963  1
  Se  Se134  1  0.26175131  0.25924562  0.56101442  1
  Se  Se135  1  0.26162070  0.59033887  0.05398713  1
  Se  Se136  1  0.24530381  0.57931962  0.55349917  1
  Se  Se137  1  0.25621039  0.92322037  0.06177133  1
  Se  Se138  1  0.24278925  0.91279518  0.57014158  1
  Se  Se139  1  0.58471850  0.25041046  0.05903051  1
  Se  Se140  1  0.58926219  0.25459513  0.56097663  1
  Se  Se141  1  0.58522732  0.57816545  0.05172573  1
  Se  Se142  1  0.60014357  0.60337081  0.55178639  1
  Se  Se143  1  0.57608362  0.90502308  0.05036165  1
  Se  Se144  1  0.57912984  0.92915525  0.55536470  1
  Se  Se145  1  0.91773770  0.26349336  0.06376818  1
  Se  Se146  1  0.92092194  0.24394753  0.55866847  1
  Se  Se147  1  0.91763010  0.58261718  0.05238145  1
  Se  Se148  1  0.91314124  0.57683820  0.54549094  1
  Se  Se149  1  0.91819575  0.91520654  0.05236741  1
  Se  Se150  1  0.91442755  0.91002921  0.55021027  1
  Se  Se151  1  0.08283887  0.25086900  0.44182012  1
  Se  Se152  1  0.08255526  0.25197201  0.94233191  1
  Se  Se153  1  0.08743872  0.57619689  0.45048158  1
  Se  Se154  1  0.07612206  0.59755029  0.93793010  1
  Se  Se155  1  0.08655474  0.91361319  0.45023726  1
  Se  Se156  1  0.07976845  0.92516016  0.93542866  1
  Se  Se157  1  0.41465208  0.26079998  0.43739540  1
  Se  Se158  1  0.41121569  0.25585238  0.93307377  1
  Se  Se159  1  0.41152313  0.58880044  0.45200642  1
  Se  Se160  1  0.42324813  0.57344645  0.94433635  1
  Se  Se161  1  0.41001412  0.92430267  0.45599436  1
  Se  Se162  1  0.41428914  0.90911377  0.94111265  1
  Se  Se163  1  0.75484834  0.24817902  0.44974728  1
  Se  Se164  1  0.74509024  0.25188025  0.94513700  1
  Se  Se165  1  0.72493562  0.60314494  0.44550443  1
  Se  Se166  1  0.75528535  0.57896219  0.94717818  1
  Se  Se167  1  0.75226274  0.92466322  0.44605980  1
  Se  Se168  1  0.75536780  0.90801062  0.94472224  1
  Se  Se169  1  0.25365819  0.07712960  0.45064888  1
  Se  Se170  1  0.24600333  0.08249651  0.93946245  1
  Se  Se171  1  0.24613913  0.41898390  0.44792621  1
  Se  Se172  1  0.25461677  0.41313554  0.93250281  1
  Se  Se173  1  0.24543616  0.75672488  0.45508745  1
  Se  Se174  1  0.25901016  0.74638367  0.93789983  1
  Se  Se175  1  0.59041418  0.08146015  0.43793867  1
  Se  Se176  1  0.59073867  0.06931002  0.93925380  1
  Se  Se177  1  0.57900229  0.41493620  0.44895489  1
  Se  Se178  1  0.58388868  0.41377975  0.94689475  1
  Se  Se179  1  0.55518039  0.78335428  0.44383203  1
  Se  Se180  1  0.58614361  0.74448877  0.94360738  1
  Se  Se181  1  0.92364062  0.08370946  0.44952204  1
  Se  Se182  1  0.91950269  0.08176492  0.93874788  1
  Se  Se183  1  0.91811619  0.41450387  0.44864444  1
  Se  Se184  1  0.91360149  0.41974282  0.94766524  1
  Se  Se185  1  0.92259397  0.74524397  0.44523271  1
  Se  Se186  1  0.91437590  0.75681694  0.94284520  1
  Se  Se187  1  0.25060087  0.25177361  0.30117864  1
  Se  Se188  1  0.25717440  0.26276189  0.79928804  1
  Se  Se189  1  0.24300691  0.57754356  0.31035618  1
  Se  Se190  1  0.25313980  0.58170561  0.79562481  1
  Se  Se191  1  0.25089214  0.91042719  0.32031399  1
  Se  Se192  1  0.24378619  0.90874857  0.79373091  1
  Se  Se193  1  0.58279424  0.25105984  0.30062850  1
  Se  Se194  1  0.58949136  0.25896041  0.79863543  1
  Se  Se195  1  0.57232799  0.57380842  0.31263408  1
  Se  Se196  1  0.58358684  0.57758808  0.80726702  1
  Se  Se197  1  0.58715020  0.91018847  0.30940657  1
  Se  Se198  1  0.57935061  0.90734969  0.80487364  1
  Se  Se199  1  0.91786216  0.25425446  0.30728217  1
  Se  Se200  1  0.92014917  0.25672426  0.80304650  1
  Se  Se201  1  0.90334936  0.56889866  0.31225344  1
  Se  Se202  1  0.91069749  0.58228678  0.80593378  1
  Se  Se203  1  0.92348208  0.91894060  0.30086168  1
  Se  Se204  1  0.90890468  0.91544296  0.79625754  1
  Se  Se205  1  0.08350197  0.08350587  0.30280411  1
  Se  Se206  1  0.05903264  0.05889253  0.80548316  1
  Se  Se207  1  0.08048149  0.41468495  0.30655902  1
  Se  Se208  1  0.08021660  0.42213089  0.80035920  1
  Se  Se209  1  0.09040611  0.75139116  0.31596550  1
  Se  Se210  1  0.08959706  0.75847154  0.80553140  1
  Se  Se211  1  0.42240752  0.09036563  0.31555916  1
  Se  Se212  1  0.42082273  0.08906384  0.80310236  1
  Se  Se213  1  0.40366711  0.41490304  0.30378337  1
  Se  Se214  1  0.41929168  0.41795586  0.79729866  1
  Se  Se215  1  0.42602166  0.74537710  0.31377897  1
  Se  Se216  1  0.41067941  0.73409378  0.80102463  1
  Se  Se217  1  0.75834479  0.08728809  0.31194671  1
  Se  Se218  1  0.75670279  0.09482725  0.81045126  1
  Se  Se219  1  0.74087611  0.40907763  0.31008848  1
  Se  Se220  1  0.75102755  0.41722033  0.80484708  1
  Se  Se221  1  0.76285687  0.75915641  0.31010584  1
  Se  Se222  1  0.75197264  0.74989226  0.80050769  1
  Se  Se223  1  0.24429989  0.09205562  0.18801284  1
  Se  Se224  1  0.23682587  0.09303127  0.71277797  1
  Se  Se225  1  0.24473299  0.42039264  0.19271226  1
  Se  Se226  1  0.25420284  0.41625924  0.69196236  1
  Se  Se227  1  0.24246174  0.76286261  0.19772387  1
  Se  Se228  1  0.25025071  0.74040762  0.70355863  1
  Se  Se229  1  0.56837103  0.09325037  0.19123275  1
  Se  Se230  1  0.57882715  0.09408987  0.68798456  1
  Se  Se231  1  0.59358012  0.40977017  0.19695581  1
  Se  Se232  1  0.58929311  0.41812152  0.69112977  1
  Se  Se233  1  0.58273944  0.74679403  0.19290532  1
  Se  Se234  1  0.57145875  0.76179429  0.68862014  1
  Se  Se235  1  0.91746316  0.08605023  0.19577693  1
  Se  Se236  1  0.90925596  0.08273283  0.69580411  1
  Se  Se237  1  0.92687626  0.41282169  0.20320103  1
  Se  Se238  1  0.92344688  0.41034777  0.69438851  1
  Se  Se239  1  0.91186228  0.75138295  0.19074870  1
  Se  Se240  1  0.90432400  0.74583664  0.68132018  1
  Se  Se241  1  0.08224535  0.25416019  0.19428348  1
  Se  Se242  1  0.09689104  0.23815347  0.70165768  1
  Se  Se243  1  0.08795179  0.58308736  0.19193840  1
  Se  Se244  1  0.08725810  0.57489995  0.68235141  1
  Se  Se245  1  0.08442343  0.92297362  0.20205372  1
  Se  Se246  1  0.06624362  0.91439617  0.70170824  1
  Se  Se247  1  0.40776232  0.25476933  0.19490656  1
  Se  Se248  1  0.41622707  0.25614783  0.69769151  1
  Se  Se249  1  0.42947413  0.57233517  0.19090655  1
  Se  Se250  1  0.41896262  0.58343644  0.69179391  1
  Se  Se251  1  0.42286778  0.90897057  0.19760070  1
  Se  Se252  1  0.40757578  0.92387583  0.70544226  1
  Se  Se253  1  0.74709218  0.24947656  0.20245904  1
  Se  Se254  1  0.74977028  0.25643448  0.69701221  1
  Se  Se255  1  0.75779633  0.57429448  0.19393917  1
  Se  Se256  1  0.76156814  0.57143525  0.68477097  1
  Se  Se257  1  0.75638710  0.90537506  0.19123437  1
  Se  Se258  1  0.74822225  0.91091933  0.68181189  1
