# generated using pymatgen
data_In86Cu29Se144
_symmetry_space_group_name_H-M   'P 1'
_cell_length_a   17.57876062
_cell_length_b   17.58124014
_cell_length_c   23.43943728
_cell_angle_alpha   89.99429617
_cell_angle_beta   90.02721869
_cell_angle_gamma   89.98829460
_symmetry_Int_Tables_number   1
_chemical_formula_structural   In86Cu29Se144
_chemical_formula_sum   'In86 Cu29 Se144'
_cell_volume   7244.10737866
_cell_formula_units_Z   1
loop_
 _symmetry_equiv_pos_site_id
 _symmetry_equiv_pos_as_xyz
  1  'x, y, z'
loop_
 _atom_site_type_symbol
 _atom_site_label
 _atom_site_symmetry_multiplicity
 _atom_site_fract_x
 _atom_site_fract_y
 _atom_site_fract_z
 _atom_site_occupancy
  In  In0  1  0.00180479  0.17665116  0.12903081  1
  In  In1  1  0.00112722  0.19116131  0.62226507  1
  In  In2  1  -0.00319939  0.49684883  0.12703974  1
  In  In3  1  -0.00937606  0.49987292  0.62361446  1
  In  In4  1  -0.01624914  0.81598385  0.11570597  1
  In  In5  1  0.01543711  0.83052328  0.62623754  1
  In  In6  1  0.33906508  0.16534470  0.14427595  1
  In  In7  1  0.35172814  0.17407609  0.61670772  1
  In  In8  1  0.32782970  0.50636178  0.13410554  1
  In  In9  1  0.34460109  0.47795966  0.62626150  1
  In  In10  1  0.33126190  0.83487274  0.12908056  1
  In  In11  1  0.34763467  0.82387952  0.62675643  1
  In  In12  1  0.65856514  0.17165541  0.13940673  1
  In  In13  1  0.66836306  0.17567787  0.62094766  1
  In  In14  1  0.67752507  0.50708255  0.12897616  1
  In  In15  1  0.66601777  0.49807264  0.62161248  1
  In  In16  1  0.67763013  0.82747190  0.13620699  1
  In  In17  1  0.66365238  0.83908189  0.63086114  1
  In  In18  1  0.17058586  -0.00816192  0.37162523  1
  In  In19  1  0.15867377  -0.00402133  0.87944257  1
  In  In20  1  0.17674540  0.33804082  0.37183006  1
  In  In21  1  0.17266801  0.35026560  0.86480398  1
  In  In22  1  0.16212189  0.66128752  0.36211648  1
  In  In23  1  0.16615987  0.66274273  0.88948213  1
  In  In24  1  0.50136460  0.00379430  0.37652766  1
  In  In25  1  0.51029666  -0.00240474  0.86916924  1
  In  In26  1  0.50403654  0.33425347  0.37693858  1
  In  In27  1  0.49741798  0.33648519  0.86306843  1
  In  In28  1  0.50134674  0.66484175  0.37436793  1
  In  In29  1  0.50515322  0.65866020  0.87393459  1
  In  In30  1  0.81729936  0.01977726  0.38494452  1
  In  In31  1  0.81825631  0.00373520  0.87423450  1
  In  In32  1  0.82435815  0.33741098  0.36983275  1
  In  In33  1  0.83554954  0.33820174  0.87003493  1
  In  In34  1  0.80647205  0.63068808  0.34012029  1
  In  In35  1  0.81762392  0.66276829  0.89026492  1
  In  In36  1  -0.02162941  0.17161267  0.38102357  1
  In  In37  1  -0.00972607  0.17936171  0.87602728  1
  In  In38  1  -0.02144005  0.48018181  0.35144669  1
  In  In39  1  -0.00227094  0.49698270  0.88270030  1
  In  In40  1  0.00430166  0.82631896  0.36929030  1
  In  In41  1  -0.00118533  0.81996262  0.88716517  1
  In  In42  1  0.37700643  0.19015167  0.34766792  1
  In  In43  1  0.32332510  0.17810366  0.87452333  1
  In  In44  1  0.33525248  0.50101762  0.37430296  1
  In  In45  1  0.33236466  0.49119669  0.87703806  1
  In  In46  1  0.34545747  0.84404337  0.36217688  1
  In  In47  1  0.33576849  0.82114524  0.88169601  1
  In  In48  1  0.65503781  0.17223693  0.37404890  1
  In  In49  1  0.67053262  0.16760536  0.86406570  1
  In  In50  1  0.66789921  0.49500784  0.37174028  1
  In  In51  1  0.66897546  0.49816578  0.87222158  1
  In  In52  1  0.65721997  0.83031744  0.37416011  1
  In  In53  1  0.66868372  0.83809061  0.87254461  1
  In  In54  1  0.17949517  -0.00417031  0.12910234  1
  In  In55  1  0.17128942  -0.00691900  0.62632447  1
  In  In56  1  0.15772277  0.34410081  0.13442052  1
  In  In57  1  0.16989084  0.34120569  0.63450399  1
  In  In58  1  0.16357072  0.66067284  0.12197500  1
  In  In59  1  0.16101668  0.66452243  0.62591364  1
  In  In60  1  0.50767630  -0.00239155  0.14408650  1
  In  In61  1  0.54963276  0.03335453  0.57874344  1
  In  In62  1  0.50563789  0.32983513  0.13674544  1
  In  In63  1  0.49968103  0.33746873  0.61783879  1
  In  In64  1  0.50775965  0.65790299  0.13863324  1
  In  In65  1  0.51343645  0.68165306  0.61227977  1
  In  In66  1  0.83299583  -0.01138153  0.12629936  1
  In  In67  1  0.81119796  -0.00144117  0.62105235  1
  In  In68  1  0.81161207  0.36605941  0.14389614  1
  In  In69  1  0.83039191  0.33513023  0.62155667  1
  In  In70  1  0.82944222  0.66907633  0.13365635  1
  In  In71  1  0.83226604  0.64474168  0.61856045  1
  In  In72  1  0.50678961  0.49626249  0.00826853  1
  In  In73  1  0.50315252  0.83199956  0.00174675  1
  In  In74  1  0.34545785  0.00499973  0.74066246  1
  In  In75  1  -0.01111203  0.01250908  0.76310346  1
  In  In76  1  0.17520850  0.50220902  0.49758390  1
  In  In77  1  0.33853273  0.66040754  0.75747693  1
  In  In78  1  0.82860526  0.82789648  0.48981762  1
  In  In79  1  0.16430096  0.16874335  0.00942911  1
  In  In80  1  0.83211061  0.16789515  -0.00151825  1
  In  In81  1  0.17333572  0.83225460  0.49378529  1
  In  In82  1  -0.00665498  0.65728000  0.74680495  1
  In  In83  1  -0.00308121  -0.00173023  0.25187082  1
  In  In84  1  0.50216747  0.16888313  0.01493295  1
  In  In85  1  0.17006988  0.16366838  0.50082088  1
  Cu  Cu86  1  0.82705654  0.84189993  0.25172286  1
  Cu  Cu87  1  0.16291311  0.82615709  0.24059408  1
  Cu  Cu88  1  0.82682648  0.49511969  0.74647797  1
  Cu  Cu89  1  0.50527157  0.16893358  0.73709958  1
  Cu  Cu90  1  0.82877117  0.82423822  0.75199798  1
  Cu  Cu91  1  -0.00712142  0.65625915  0.48644935  1
  Cu  Cu92  1  0.17216120  0.18520353  0.74822394  1
  Cu  Cu93  1  0.00298533  -0.01374177  0.00171856  1
  Cu  Cu94  1  0.66868407  -0.00139800  0.00090437  1
  Cu  Cu95  1  0.32982741  -0.00594421  0.00946183  1
  Cu  Cu96  1  0.82618618  0.17194267  0.25589663  1
  Cu  Cu97  1  0.32852996  0.66487683  0.00736623  1
  Cu  Cu98  1  0.67166092  0.65823486  0.49059556  1
  Cu  Cu99  1  0.17023256  0.83520521  0.76122613  1
  Cu  Cu100  1  -0.00325080  0.33704446  0.00463703  1
  Cu  Cu101  1  -0.00836790  0.33783438  0.49498879  1
  Cu  Cu102  1  0.51376554  0.84152579  0.74293086  1
  Cu  Cu103  1  0.33960872  0.66664508  0.49484653  1
  Cu  Cu104  1  0.32923727  0.33233274  0.00210310  1
  Cu  Cu105  1  -0.01319126  0.00128103  0.50417549  1
  Cu  Cu106  1  0.82858031  0.16548886  0.74217652  1
  Cu  Cu107  1  0.49849548  0.83238422  0.25515946  1
  Cu  Cu108  1  0.50309321  0.50393328  0.74445776  1
  Cu  Cu109  1  0.17135418  0.49757222  0.24651795  1
  Cu  Cu110  1  0.34072027  0.00148864  0.48563342  1
  Cu  Cu111  1  0.66893034  0.33638663  0.49711136  1
  Cu  Cu112  1  0.49953495  0.49777390  0.25588498  1
  Cu  Cu113  1  -0.00522769  0.66107248  0.00610119  1
  Cu  Cu114  1  0.16701847  0.16331228  0.25296758  1
  Se  Se115  1  0.07398488  0.07103561  0.06426223  1
  Se  Se116  1  0.07526177  0.07477026  0.56298964  1
  Se  Se117  1  0.08514997  0.41740144  0.05581633  1
  Se  Se118  1  0.07892202  0.41173595  0.55554984  1
  Se  Se119  1  0.08358531  0.74687598  0.05299055  1
  Se  Se120  1  0.07529755  0.73629414  0.54676422  1
  Se  Se121  1  0.41030523  0.07271491  0.06834564  1
  Se  Se122  1  0.41700649  0.08443098  0.54461931  1
  Se  Se123  1  0.41109940  0.40728132  0.06528983  1
  Se  Se124  1  0.42503794  0.42386539  0.54613374  1
  Se  Se125  1  0.41773227  0.74011981  0.06338647  1
  Se  Se126  1  0.41895238  0.75575713  0.54593821  1
  Se  Se127  1  0.74196465  0.08247362  0.06358177  1
  Se  Se128  1  0.73932574  0.08171101  0.55077943  1
  Se  Se129  1  0.75421143  0.42738633  0.05424741  1
  Se  Se130  1  0.75201292  0.41999716  0.55131553  1
  Se  Se131  1  0.75489397  0.75618978  0.06177284  1
  Se  Se132  1  0.74636102  0.73970204  0.55731504  1
  Se  Se133  1  0.25882722  0.25193006  0.06924331  1
  Se  Se134  1  0.25312984  0.26049002  0.55935261  1
  Se  Se135  1  0.24908361  0.57406703  0.05535908  1
  Se  Se136  1  0.26104199  0.59378123  0.56168411  1
  Se  Se137  1  0.24483243  0.90741453  0.05495004  1
  Se  Se138  1  0.26389617  0.92333033  0.55441854  1
  Se  Se139  1  0.59892211  0.26419560  0.05997946  1
  Se  Se140  1  0.58381751  0.25417692  0.54973830  1
  Se  Se141  1  0.59351807  0.59681813  0.05887804  1
  Se  Se142  1  0.58660494  0.58341460  0.55040799  1
  Se  Se143  1  0.58757278  0.92384879  0.06416578  1
  Se  Se144  1  0.57516845  0.89394416  0.55363042  1
  Se  Se145  1  0.91454910  0.25754151  0.06248489  1
  Se  Se146  1  0.91093838  0.25185918  0.54876553  1
  Se  Se147  1  0.91200640  0.58443284  0.06369893  1
  Se  Se148  1  0.91669503  0.57322339  0.54505553  1
  Se  Se149  1  0.90926966  0.91211239  0.05156901  1
  Se  Se150  1  0.91874776  0.91000833  0.56263035  1
  Se  Se151  1  0.07882500  0.25725022  0.44052343  1
  Se  Se152  1  0.07907543  0.25692759  0.94530784  1
  Se  Se153  1  0.07942320  0.57530786  0.43141917  1
  Se  Se154  1  0.07942396  0.57922518  0.95230826  1
  Se  Se155  1  0.07029746  0.92470012  0.44342745  1
  Se  Se156  1  0.08869925  0.90659077  0.94868003  1
  Se  Se157  1  0.42523482  0.24211882  0.44239320  1
  Se  Se158  1  0.41428549  0.25475424  0.94480808  1
  Se  Se159  1  0.41963993  0.57995527  0.44398574  1
  Se  Se160  1  0.41122400  0.58745904  0.94610116  1
  Se  Se161  1  0.42223731  0.90814808  0.44276538  1
  Se  Se162  1  0.41302296  0.92780489  0.94198307  1
  Se  Se163  1  0.74812606  0.25202656  0.44019882  1
  Se  Se164  1  0.74075064  0.25415316  0.93862891  1
  Se  Se165  1  0.75821601  0.58029118  0.43780323  1
  Se  Se166  1  0.75139998  0.55922073  0.95140030  1
  Se  Se167  1  0.73276812  0.92491575  0.44581464  1
  Se  Se168  1  0.75019603  0.91593381  0.94687574  1
  Se  Se169  1  0.25542676  0.08301350  0.43259486  1
  Se  Se170  1  0.25613936  0.07850019  0.94656870  1
  Se  Se171  1  0.26559563  0.40385334  0.44742651  1
  Se  Se172  1  0.24734226  0.41498052  0.94814674  1
  Se  Se173  1  0.25690211  0.74224449  0.43173110  1
  Se  Se174  1  0.24935993  0.75194112  0.95322358  1
  Se  Se175  1  0.58066663  0.08630026  0.44723516  1
  Se  Se176  1  0.58825987  0.08224583  0.94354809  1
  Se  Se177  1  0.58562865  0.42064019  0.44534636  1
  Se  Se178  1  0.58215462  0.40548445  0.94026193  1
  Se  Se179  1  0.58438589  0.74466482  0.44622888  1
  Se  Se180  1  0.59123479  0.74179998  0.94225545  1
  Se  Se181  1  0.90631273  0.09040770  0.45615940  1
  Se  Se182  1  0.92594509  0.07189384  0.94161663  1
  Se  Se183  1  0.91218807  0.42041961  0.43903916  1
  Se  Se184  1  0.91003111  0.41333252  0.94804379  1
  Se  Se185  1  0.91408267  0.73753252  0.42879951  1
  Se  Se186  1  0.90958312  0.74425215  0.95313612  1
  Se  Se187  1  0.25200777  0.24741798  0.30407993  1
  Se  Se188  1  0.25960547  0.26459152  0.80022961  1
  Se  Se189  1  0.25452229  0.58036504  0.30122958  1
  Se  Se190  1  0.23845513  0.57823566  0.81268616  1
  Se  Se191  1  0.24131288  0.90866366  0.29855032  1
  Se  Se192  1  0.25679470  0.91810187  0.81241240  1
  Se  Se193  1  0.59198510  0.26590471  0.30293580  1
  Se  Se194  1  0.58181314  0.24908852  0.79976310  1
  Se  Se195  1  0.58466499  0.58332268  0.30513125  1
  Se  Se196  1  0.58528346  0.58189478  0.80296746  1
  Se  Se197  1  0.58177591  0.91897578  0.30520954  1
  Se  Se198  1  0.59478463  0.92387679  0.79921420  1
  Se  Se199  1  0.91542622  0.25367946  0.30347095  1
  Se  Se200  1  0.90956156  0.24635533  0.79993379  1
  Se  Se201  1  0.94158526  0.60581597  0.30233976  1
  Se  Se202  1  0.90228548  0.57714711  0.81106773  1
  Se  Se203  1  0.90366350  0.91990652  0.31802291  1
  Se  Se204  1  0.91014070  0.90370121  0.81433157  1
  Se  Se205  1  0.08088043  0.09136010  0.31508273  1
  Se  Se206  1  0.09632350  0.10169287  0.81125245  1
  Se  Se207  1  0.09067231  0.41201959  0.30063385  1
  Se  Se208  1  0.06322290  0.40964426  0.80872546  1
  Se  Se209  1  0.07878587  0.74693060  0.29573241  1
  Se  Se210  1  0.08689471  0.74756228  0.81061485  1
  Se  Se211  1  0.39364009  0.05501830  0.30977227  1
  Se  Se212  1  0.42517771  0.09744705  0.80933612  1
  Se  Se213  1  0.41530766  0.41413498  0.30700955  1
  Se  Se214  1  0.41566653  0.42633884  0.79949423  1
  Se  Se215  1  0.41531801  0.74204145  0.30230588  1
  Se  Se216  1  0.43273610  0.76372456  0.80600493  1
  Se  Se217  1  0.74195620  0.08584349  0.30516934  1
  Se  Se218  1  0.74812879  0.07956194  0.79580079  1
  Se  Se219  1  0.76627406  0.43744989  0.29990999  1
  Se  Se220  1  0.74432834  0.41127610  0.80096803  1
  Se  Se221  1  0.74472579  0.75570126  0.30302916  1
  Se  Se222  1  0.75057523  0.74396418  0.81140418  1
  Se  Se223  1  0.24992060  0.07695044  0.20371904  1
  Se  Se224  1  0.24519137  0.09659171  0.68818092  1
  Se  Se225  1  0.25809507  0.40881806  0.19980344  1
  Se  Se226  1  0.24508447  0.43330185  0.69857957  1
  Se  Se227  1  0.24945714  0.74272357  0.19098025  1
  Se  Se228  1  0.24533164  0.75611119  0.69685717  1
  Se  Se229  1  0.57088724  0.09792031  0.20683947  1
  Se  Se230  1  0.58140490  0.08172917  0.68175989  1
  Se  Se231  1  0.58522490  0.42716006  0.19425284  1
  Se  Se232  1  0.58187317  0.41693260  0.69052687  1
  Se  Se233  1  0.58489334  0.75132840  0.20165150  1
  Se  Se234  1  0.58842785  0.74352940  0.69618490  1
  Se  Se235  1  0.90609365  0.09183503  0.19290345  1
  Se  Se236  1  0.91447547  0.08710536  0.68322758  1
  Se  Se237  1  0.93368001  0.40083629  0.19711933  1
  Se  Se238  1  0.91404667  0.41552107  0.69372264  1
  Se  Se239  1  0.91255033  0.75839491  0.20133452  1
  Se  Se240  1  0.90959126  0.75448687  0.68538585  1
  Se  Se241  1  0.08542124  0.24821953  0.20082615  1
  Se  Se242  1  0.07843723  0.26130652  0.69942353  1
  Se  Se243  1  0.08555057  0.57908304  0.19407573  1
  Se  Se244  1  0.09185759  0.56856967  0.69393538  1
  Se  Se245  1  0.07880443  0.90997964  0.18546342  1
  Se  Se246  1  0.08645028  0.91797306  0.70466985  1
  Se  Se247  1  0.42978112  0.24381673  0.20553814  1
  Se  Se248  1  0.41841678  0.25606894  0.69287769  1
  Se  Se249  1  0.41539550  0.58252456  0.20289627  1
  Se  Se250  1  0.42388984  0.58721134  0.68438083  1
  Se  Se251  1  0.41315109  0.91340574  0.20045895  1
  Se  Se252  1  0.43520691  0.91915901  0.68143731  1
  Se  Se253  1  0.74623622  0.25711523  0.20152204  1
  Se  Se254  1  0.74815486  0.25462211  0.69328313  1
  Se  Se255  1  0.75798242  0.58036830  0.20535600  1
  Se  Se256  1  0.74655452  0.58213888  0.69451518  1
  Se  Se257  1  0.74387171  0.92886892  0.20187367  1
  Se  Se258  1  0.75217493  0.91470664  0.70024704  1
