# generated using pymatgen
data_In86Cu29Se144
_symmetry_space_group_name_H-M   'P 1'
_cell_length_a   17.58167217
_cell_length_b   17.57966322
_cell_length_c   23.44927756
_cell_angle_alpha   90.00481941
_cell_angle_beta   90.00750699
_cell_angle_gamma   90.01837690
_symmetry_Int_Tables_number   1
_chemical_formula_structural   In86Cu29Se144
_chemical_formula_sum   'In86 Cu29 Se144'
_cell_volume   7247.69933292
_cell_formula_units_Z   1
loop_
 _symmetry_equiv_pos_site_id
 _symmetry_equiv_pos_as_xyz
  1  'x, y, z'
loop_
 _atom_site_type_symbol
 _atom_site_label
 _atom_site_symmetry_multiplicity
 _atom_site_fract_x
 _atom_site_fract_y
 _atom_site_fract_z
 _atom_site_occupancy
  In  In0  1  0.00268165  0.16634509  0.12194600  1
  In  In1  1  -0.00726847  0.18233331  0.64333303  1
  In  In2  1  -0.01340800  0.50371257  0.13781058  1
  In  In3  1  0.00608020  0.49064197  0.63261559  1
  In  In4  1  -0.00519622  0.84286499  0.12582696  1
  In  In5  1  -0.00318855  0.83526631  0.63099344  1
  In  In6  1  0.33150632  0.16757206  0.12485255  1
  In  In7  1  0.33099344  0.15425699  0.63057856  1
  In  In8  1  0.33846571  0.48609206  0.12792551  1
  In  In9  1  0.33307683  0.50357685  0.61511403  1
  In  In10  1  0.35327703  0.84139157  0.12817738  1
  In  In11  1  0.34380997  0.83894818  0.62524202  1
  In  In12  1  0.66353303  0.16201336  0.11380199  1
  In  In13  1  0.66827923  0.16690316  0.61984811  1
  In  In14  1  0.67027337  0.49795160  0.11867257  1
  In  In15  1  0.66300879  0.51115881  0.62928593  1
  In  In16  1  0.66376643  0.82920160  0.11724770  1
  In  In17  1  0.64858155  0.83316512  0.62820547  1
  In  In18  1  0.16642693  0.00226375  0.36630175  1
  In  In19  1  0.18108903  0.01721754  0.86038286  1
  In  In20  1  0.17106796  0.33751767  0.37071840  1
  In  In21  1  0.15079149  0.33314197  0.87319277  1
  In  In22  1  0.15116386  0.66139783  0.37313957  1
  In  In23  1  0.16264603  0.67578424  0.87229916  1
  In  In24  1  0.49170709  0.00587566  0.38058687  1
  In  In25  1  0.48841197  0.00892447  0.88087754  1
  In  In26  1  0.48748888  0.34256031  0.38082195  1
  In  In27  1  0.50002033  0.33235925  0.87981748  1
  In  In28  1  0.50027632  0.66500002  0.38193569  1
  In  In29  1  0.51839157  0.65715366  0.87976540  1
  In  In30  1  0.84549712  0.00411377  0.37119345  1
  In  In31  1  0.83883357  -0.00401897  0.88178081  1
  In  In32  1  0.83114120  0.32339141  0.37168117  1
  In  In33  1  0.84197485  0.32537580  0.88411729  1
  In  In34  1  0.83959230  0.65546419  0.37001063  1
  In  In35  1  0.83212078  0.66528904  0.87494421  1
  In  In36  1  -0.00098015  0.16568500  0.37035290  1
  In  In37  1  0.00467284  0.16631136  0.87614275  1
  In  In38  1  -0.00144397  0.49925360  0.36993123  1
  In  In39  1  -0.00859234  0.48899093  0.86943566  1
  In  In40  1  -0.00298399  0.83359890  0.36270617  1
  In  In41  1  -0.00684759  0.83044145  0.87201981  1
  In  In42  1  0.33697696  0.17771284  0.36996663  1
  In  In43  1  0.34251086  0.15919943  0.88077513  1
  In  In44  1  0.34593625  0.48525434  0.37726520  1
  In  In45  1  0.34567681  0.50405467  0.87677184  1
  In  In46  1  0.33722408  0.84548027  0.37134510  1
  In  In47  1  0.33532159  0.84857249  0.87676379  1
  In  In48  1  0.66427733  0.16542041  0.38198362  1
  In  In49  1  0.66276716  0.17162789  0.88359699  1
  In  In50  1  0.66267298  0.48983756  0.37407501  1
  In  In51  1  0.65719510  0.51338612  0.87844604  1
  In  In52  1  0.65686773  0.82330987  0.37620782  1
  In  In53  1  0.67690529  0.82510942  0.88020192  1
  In  In54  1  0.15838013  0.01268537  0.12959822  1
  In  In55  1  0.16086221  0.01669256  0.64455998  1
  In  In56  1  0.17536336  0.32449388  0.13061017  1
  In  In57  1  0.14306812  0.33345787  0.62216245  1
  In  In58  1  0.16184111  0.65434227  0.12501629  1
  In  In59  1  0.16597402  0.65202818  0.62198623  1
  In  In60  1  0.48851826  -0.00667707  0.12378290  1
  In  In61  1  0.49578834  0.00012008  0.62510251  1
  In  In62  1  0.49797459  0.32906317  0.12164674  1
  In  In63  1  0.49806915  0.33231912  0.61921657  1
  In  In64  1  0.50715222  0.66940523  0.12051538  1
  In  In65  1  0.49741935  0.66935364  0.62485409  1
  In  In66  1  0.84359885  0.01061521  0.11162351  1
  In  In67  1  0.83212770  0.01677626  0.62623481  1
  In  In68  1  0.84497496  0.34063965  0.11885933  1
  In  In69  1  0.85031337  0.33247704  0.62161491  1
  In  In70  1  0.83736115  0.66922112  0.11914245  1
  In  In71  1  0.83122921  0.66516234  0.63457820  1
  In  In72  1  0.33018435  0.33011106  0.74998773  1
  In  In73  1  0.67226404  0.33495250  0.25019467  1
  In  In74  1  0.16663363  0.83864247  -0.00245722  1
  In  In75  1  0.82966356  0.49635061  0.49526541  1
  In  In76  1  0.66382140  -0.00329757  0.24851279  1
  In  In77  1  0.66657636  0.33331133  0.75714680  1
  In  In78  1  0.32979698  0.67192182  0.74604257  1
  In  In79  1  0.33094360  0.66506048  0.24631139  1
  In  In80  1  0.66939446  -0.00541699  0.75274899  1
  In  In81  1  0.66771495  0.66517105  0.24479505  1
  In  In82  1  0.82721309  0.83838972  0.49395482  1
  In  In83  1  0.16721216  0.49310561  0.00313977  1
  In  In84  1  0.17519388  0.83384593  0.49836429  1
  In  In85  1  0.16907190  0.16914428  0.50290419  1
  Cu  Cu86  1  0.33684938  -0.00043520  0.50302188  1
  Cu  Cu87  1  0.00290048  0.00346922  -0.00333365  1
  Cu  Cu88  1  0.16641131  0.83618201  0.24751256  1
  Cu  Cu89  1  0.83299009  0.82936548  0.75546563  1
  Cu  Cu90  1  0.83381655  0.50143813  0.75307667  1
  Cu  Cu91  1  0.16086694  0.49990487  0.74671726  1
  Cu  Cu92  1  0.16474571  0.16618634  0.24852419  1
  Cu  Cu93  1  -0.00015163  0.33036603  0.00202287  1
  Cu  Cu94  1  0.65583107  0.66993578  0.50485016  1
  Cu  Cu95  1  -0.00521113  0.66294669  -0.00188949  1
  Cu  Cu96  1  0.50102094  0.83039370  0.75158380  1
  Cu  Cu97  1  0.34876933  0.66692125  0.00038834  1
  Cu  Cu98  1  0.66925269  0.33528212  -0.00051609  1
  Cu  Cu99  1  0.33241681  0.66101346  0.49906402  1
  Cu  Cu100  1  0.66117381  0.00328880  0.50438882  1
  Cu  Cu101  1  0.66342903  0.33142741  0.49909860  1
  Cu  Cu102  1  0.16284258  0.49698051  0.24927135  1
  Cu  Cu103  1  0.33478582  0.32853630  0.00329798  1
  Cu  Cu104  1  0.66400729  -0.00333853  -0.00369499  1
  Cu  Cu105  1  0.67178363  0.66715344  -0.00011997  1
  Cu  Cu106  1  0.15728670  0.83547641  0.75221271  1
  Cu  Cu107  1  0.49198684  0.17208739  0.25014061  1
  Cu  Cu108  1  0.83632869  0.83605088  0.24254679  1
  Cu  Cu109  1  0.83974821  0.17043836  0.75505140  1
  Cu  Cu110  1  0.00095338  0.00659551  0.49633808  1
  Cu  Cu111  1  0.84138253  0.16731677  0.24299258  1
  Cu  Cu112  1  0.33505312  0.00479572  0.00168542  1
  Cu  Cu113  1  0.00101617  0.65805575  0.49971549  1
  Cu  Cu114  1  0.33561119  0.33290462  0.49801509  1
  Se  Se115  1  0.08673447  0.08569233  0.05036738  1
  Se  Se116  1  0.07907775  0.07909725  0.56194145  1
  Se  Se117  1  0.07690968  0.41067941  0.06610316  1
  Se  Se118  1  0.07676165  0.42260677  0.55179851  1
  Se  Se119  1  0.07904814  0.74245313  0.05586483  1
  Se  Se120  1  0.07644481  0.74749369  0.55612119  1
  Se  Se121  1  0.41870736  0.08756455  0.05595339  1
  Se  Se122  1  0.41677322  0.08689857  0.55554158  1
  Se  Se123  1  0.41858256  0.41647721  0.05141793  1
  Se  Se124  1  0.41867357  0.41827242  0.55102731  1
  Se  Se125  1  0.42307066  0.75540027  0.05515758  1
  Se  Se126  1  0.41049451  0.74689226  0.55496303  1
  Se  Se127  1  0.74944633  0.08299007  0.04625167  1
  Se  Se128  1  0.75162680  0.08596534  0.55018046  1
  Se  Se129  1  0.75506070  0.41724939  0.05147158  1
  Se  Se130  1  0.74218502  0.41038962  0.56270523  1
  Se  Se131  1  0.75459937  0.75277036  0.05158573  1
  Se  Se132  1  0.74427228  0.74751919  0.55999099  1
  Se  Se133  1  0.24692746  0.24708568  0.05292791  1
  Se  Se134  1  0.25789414  0.25878567  0.56507849  1
  Se  Se135  1  0.26329504  0.58797641  0.05732142  1
  Se  Se136  1  0.24314459  0.57858085  0.54648474  1
  Se  Se137  1  0.25513110  0.92309786  0.06257827  1
  Se  Se138  1  0.24887650  0.92981577  0.56466950  1
  Se  Se139  1  0.58244392  0.25205403  0.05076392  1
  Se  Se140  1  0.58153384  0.24726278  0.55300487  1
  Se  Se141  1  0.58726365  0.58401891  0.05314609  1
  Se  Se142  1  0.57711641  0.58125446  0.55609540  1
  Se  Se143  1  0.58090641  0.91970106  0.05570530  1
  Se  Se144  1  0.57884013  0.91746400  0.55502046  1
  Se  Se145  1  0.91496825  0.24457292  0.05249429  1
  Se  Se146  1  0.92297221  0.24017566  0.55745389  1
  Se  Se147  1  0.91939243  0.57741067  0.05548684  1
  Se  Se148  1  0.91500403  0.58607266  0.56005269  1
  Se  Se149  1  0.92048009  0.91562483  0.04717563  1
  Se  Se150  1  0.92002971  0.92423688  0.55586406  1
  Se  Se151  1  0.08121073  0.25454431  0.43976189  1
  Se  Se152  1  0.08496760  0.24950903  0.94899676  1
  Se  Se153  1  0.08091175  0.57493838  0.44537369  1
  Se  Se154  1  0.08108116  0.58540094  0.94036473  1
  Se  Se155  1  0.07659731  0.92013360  0.43907565  1
  Se  Se156  1  0.08258176  0.92581210  0.93331354  1
  Se  Se157  1  0.41794467  0.24568003  0.44771894  1
  Se  Se158  1  0.41995205  0.24779976  0.94832797  1
  Se  Se159  1  0.41730250  0.57828771  0.44628629  1
  Se  Se160  1  0.42753725  0.57975847  0.94794317  1
  Se  Se161  1  0.41670557  0.91345641  0.44945515  1
  Se  Se162  1  0.41809309  0.91682215  0.95223659  1
  Se  Se163  1  0.74969535  0.25067833  0.44639433  1
  Se  Se164  1  0.75239446  0.24759531  0.95036005  1
  Se  Se165  1  0.73719088  0.59463001  0.44132206  1
  Se  Se166  1  0.75302310  0.58163593  0.94622593  1
  Se  Se167  1  0.73719519  0.93000754  0.43495479  1
  Se  Se168  1  0.75265751  0.91422738  0.94817176  1
  Se  Se169  1  0.25549895  0.07710342  0.44072860  1
  Se  Se170  1  0.24851730  0.08191553  0.94621785  1
  Se  Se171  1  0.25096406  0.41491044  0.44484695  1
  Se  Se172  1  0.25803656  0.40858826  0.93853375  1
  Se  Se173  1  0.25724636  0.74082129  0.43450540  1
  Se  Se174  1  0.26130740  0.74238102  0.94285616  1
  Se  Se175  1  0.57794123  0.08566728  0.44869597  1
  Se  Se176  1  0.58018606  0.08386912  0.94779679  1
  Se  Se177  1  0.58151766  0.41777418  0.44769769  1
  Se  Se178  1  0.58550359  0.41693471  0.94443437  1
  Se  Se179  1  0.57474571  0.75515355  0.45173726  1
  Se  Se180  1  0.58532293  0.75164483  0.94892299  1
  Se  Se181  1  0.91594994  0.08851631  0.44435149  1
  Se  Se182  1  0.91688433  0.08806325  0.94600061  1
  Se  Se183  1  0.92144847  0.40566623  0.44101764  1
  Se  Se184  1  0.91950262  0.41848561  0.95012066  1
  Se  Se185  1  0.92341393  0.74416141  0.44130801  1
  Se  Se186  1  0.91539867  0.74962374  0.94457064  1
  Se  Se187  1  0.24855123  0.25119851  0.30110597  1
  Se  Se188  1  0.24611690  0.24507853  0.81568654  1
  Se  Se189  1  0.24570294  0.57578712  0.31049822  1
  Se  Se190  1  0.24296175  0.57536856  0.80856124  1
  Se  Se191  1  0.25053225  0.91783043  0.30063530  1
  Se  Se192  1  0.25038091  0.91219526  0.80083784  1
  Se  Se193  1  0.57890328  0.24640877  0.31010273  1
  Se  Se194  1  0.57236406  0.23787817  0.80739112  1
  Se  Se195  1  0.57734278  0.57784656  0.30736456  1
  Se  Se196  1  0.58244742  0.58257466  0.79926804  1
  Se  Se197  1  0.57388021  0.91150016  0.31031960  1
  Se  Se198  1  0.57818933  0.90986336  0.81533356  1
  Se  Se199  1  0.91842149  0.25076055  0.30068094  1
  Se  Se200  1  0.92230408  0.25499967  0.80764118  1
  Se  Se201  1  0.92632747  0.58899759  0.29976051  1
  Se  Se202  1  0.91871014  0.58538752  0.80534686  1
  Se  Se203  1  0.91685889  0.92153908  0.29704685  1
  Se  Se204  1  0.91266671  0.91869334  0.80476579  1
  Se  Se205  1  0.07952624  0.08226997  0.30068524  1
  Se  Se206  1  0.07214302  0.07697892  0.80361873  1
  Se  Se207  1  0.08054262  0.41286755  0.30277652  1
  Se  Se208  1  0.07879009  0.41423383  0.79865920  1
  Se  Se209  1  0.08530146  0.75031889  0.29984624  1
  Se  Se210  1  0.07668618  0.74762429  0.80206297  1
  Se  Se211  1  0.41533443  0.08461028  0.30578491  1
  Se  Se212  1  0.40942124  0.07573988  0.80397619  1
  Se  Se213  1  0.41929851  0.41247722  0.29950940  1
  Se  Se214  1  0.42606855  0.42213043  0.80481088  1
  Se  Se215  1  0.42209094  0.75148988  0.30819529  1
  Se  Se216  1  0.41926791  0.75210814  0.81351741  1
  Se  Se217  1  0.75528657  0.09277179  0.30420045  1
  Se  Se218  1  0.75435861  0.09169652  0.81203298  1
  Se  Se219  1  0.76459443  0.42944337  0.30581839  1
  Se  Se220  1  0.75721541  0.42140473  0.81698250  1
  Se  Se221  1  0.75881037  0.75882436  0.30669978  1
  Se  Se222  1  0.74683594  0.74513846  0.80353526  1
  Se  Se223  1  0.25206133  0.08418023  0.19673355  1
  Se  Se224  1  0.26125724  0.07940951  0.70860381  1
  Se  Se225  1  0.25037736  0.41597791  0.19835561  1
  Se  Se226  1  0.24419461  0.42263242  0.68681188  1
  Se  Se227  1  0.24347182  0.75759444  0.18387898  1
  Se  Se228  1  0.23670837  0.76072825  0.68551132  1
  Se  Se229  1  0.57623820  0.09296692  0.19182896  1
  Se  Se230  1  0.58355439  0.08758374  0.69333998  1
  Se  Se231  1  0.58040415  0.42175422  0.19053590  1
  Se  Se232  1  0.57785249  0.41835240  0.69265564  1
  Se  Se233  1  0.57555714  0.76271044  0.19569894  1
  Se  Se234  1  0.58098136  0.74364458  0.69950812  1
  Se  Se235  1  0.92063044  0.07895477  0.19089756  1
  Se  Se236  1  0.91710747  0.08069193  0.70203106  1
  Se  Se237  1  0.91881581  0.40363964  0.20056268  1
  Se  Se238  1  0.91408230  0.41546212  0.69948013  1
  Se  Se239  1  0.91841088  0.74948225  0.19099468  1
  Se  Se240  1  0.91722424  0.74926005  0.69848913  1
  Se  Se241  1  0.08116188  0.24856073  0.19463762  1
  Se  Se242  1  0.10469507  0.23831354  0.69953696  1
  Se  Se243  1  0.08105897  0.58483880  0.19968559  1
  Se  Se244  1  0.07868244  0.58867113  0.69718472  1
  Se  Se245  1  0.08182890  0.91944846  0.19447476  1
  Se  Se246  1  0.07515844  0.92067165  0.69951474  1
  Se  Se247  1  0.41283443  0.25483317  0.19369237  1
  Se  Se248  1  0.42532217  0.24309887  0.69266364  1
  Se  Se249  1  0.42699044  0.57847470  0.18996292  1
  Se  Se250  1  0.41728379  0.57464741  0.69306992  1
  Se  Se251  1  0.41608235  0.92453322  0.20470676  1
  Se  Se252  1  0.42021828  0.91704797  0.69933112  1
  Se  Se253  1  0.75303578  0.24159117  0.18545404  1
  Se  Se254  1  0.75718316  0.24647864  0.69318340  1
  Se  Se255  1  0.76048762  0.57509445  0.19028505  1
  Se  Se256  1  0.74731783  0.58324441  0.70197021  1
  Se  Se257  1  0.75626950  0.91548894  0.18338210  1
  Se  Se258  1  0.75810664  0.90710553  0.68741788  1
