# generated using pymatgen
data_In86Cu29Se144
_symmetry_space_group_name_H-M   'P 1'
_cell_length_a   17.57606587
_cell_length_b   17.57396801
_cell_length_c   23.43419727
_cell_angle_alpha   89.98740613
_cell_angle_beta   90.00733192
_cell_angle_gamma   90.00816310
_symmetry_Int_Tables_number   1
_chemical_formula_structural   In86Cu29Se144
_chemical_formula_sum   'In86 Cu29 Se144'
_cell_volume   7238.38311892
_cell_formula_units_Z   1
loop_
 _symmetry_equiv_pos_site_id
 _symmetry_equiv_pos_as_xyz
  1  'x, y, z'
loop_
 _atom_site_type_symbol
 _atom_site_label
 _atom_site_symmetry_multiplicity
 _atom_site_fract_x
 _atom_site_fract_y
 _atom_site_fract_z
 _atom_site_occupancy
  In  In0  1  -0.00040468  0.14724128  0.12588363  1
  In  In1  1  -0.01682337  0.14298189  0.61156231  1
  In  In2  1  0.00553576  0.50800552  0.13498473  1
  In  In3  1  0.00432335  0.50964580  0.61510033  1
  In  In4  1  -0.00675719  0.84211760  0.13153095  1
  In  In5  1  -0.00707130  0.83523879  0.62762060  1
  In  In6  1  0.33226360  0.16085820  0.13046655  1
  In  In7  1  0.32396842  0.15366860  0.61593938  1
  In  In8  1  0.32113660  0.50105138  0.13565455  1
  In  In9  1  0.33053599  0.52352112  0.61479271  1
  In  In10  1  0.35509570  0.83022991  0.12725185  1
  In  In11  1  0.34264970  0.84487618  0.61134714  1
  In  In12  1  0.65196207  0.16705029  0.12766212  1
  In  In13  1  0.65883216  0.15757957  0.61728495  1
  In  In14  1  0.67521825  0.50888166  0.13491003  1
  In  In15  1  0.67520991  0.49524028  0.61668907  1
  In  In16  1  0.66830765  0.83895562  0.13208855  1
  In  In17  1  0.69334344  0.85396736  0.59829691  1
  In  In18  1  0.16744925  -0.00019983  0.37823030  1
  In  In19  1  0.17912024  -0.00148057  0.87061697  1
  In  In20  1  0.17805276  0.32278261  0.38045370  1
  In  In21  1  0.15596769  0.32146675  0.87458973  1
  In  In22  1  0.16166333  0.68407084  0.39066097  1
  In  In23  1  0.15638709  0.68270427  0.87170276  1
  In  In24  1  0.50030186  -0.00061696  0.37824027  1
  In  In25  1  0.49678055  -0.00209017  0.87847167  1
  In  In26  1  0.48311244  0.33741058  0.36840138  1
  In  In27  1  0.47984169  0.32669979  0.87432953  1
  In  In28  1  0.52741134  0.66573885  0.37802685  1
  In  In29  1  0.51576456  0.67206009  0.87996948  1
  In  In30  1  0.83356217  -0.00417696  0.37765080  1
  In  In31  1  0.81087168  -0.01514418  0.85149463  1
  In  In32  1  0.83111247  0.33326990  0.38566485  1
  In  In33  1  0.84366482  0.32932013  0.87155632  1
  In  In34  1  0.83055987  0.66797703  0.37703681  1
  In  In35  1  0.85101055  0.66885611  0.86783591  1
  In  In36  1  0.00766522  0.15764175  0.38408424  1
  In  In37  1  0.00445901  0.16278486  0.87433531  1
  In  In38  1  -0.01467083  0.51705372  0.38084389  1
  In  In39  1  -0.00857849  0.50519763  0.87246689  1
  In  In40  1  -0.00183447  0.83405081  0.37747502  1
  In  In41  1  -0.01168463  0.83448442  0.86051401  1
  In  In42  1  0.33464535  0.16627870  0.37482899  1
  In  In43  1  0.34206386  0.15282621  0.88577960  1
  In  In44  1  0.34129828  0.48495270  0.36800386  1
  In  In45  1  0.33300517  0.49654396  0.87512849  1
  In  In46  1  0.32512570  0.83952513  0.38398036  1
  In  In47  1  0.32866851  0.84388454  0.87696320  1
  In  In48  1  0.67786952  0.15425670  0.38436333  1
  In  In49  1  0.66537460  0.13688453  0.87577548  1
  In  In50  1  0.67449038  0.51761305  0.36508487  1
  In  In51  1  0.67460289  0.50969767  0.87369519  1
  In  In52  1  0.66575549  0.83093874  0.38263872  1
  In  In53  1  0.66030506  0.84218474  0.88242688  1
  In  In54  1  0.15828177  0.00826215  0.13173561  1
  In  In55  1  0.16555122  0.00108234  0.62237496  1
  In  In56  1  0.17901449  0.33077588  0.13535448  1
  In  In57  1  0.16172172  0.33288247  0.61579413  1
  In  In58  1  0.16948397  0.65820272  0.13131630  1
  In  In59  1  0.15838624  0.65950538  0.60902199  1
  In  In60  1  0.50157882  -0.00113321  0.13070711  1
  In  In61  1  0.49836532  -0.00064178  0.62212954  1
  In  In62  1  0.49807098  0.31235201  0.12423336  1
  In  In63  1  0.51539443  0.32577244  0.62024966  1
  In  In64  1  0.49684305  0.68953984  0.12876584  1
  In  In65  1  0.49937175  0.69380572  0.60591117  1
  In  In66  1  0.84378698  -0.01266911  0.13411318  1
  In  In67  1  0.83180856  -0.00497970  0.63165098  1
  In  In68  1  0.83434562  0.33884456  0.12882843  1
  In  In69  1  0.83545586  0.33283131  0.61118456  1
  In  In70  1  0.81517066  0.68214565  0.14755812  1
  In  In71  1  0.85036637  0.69739128  0.60021668  1
  In  In72  1  0.83526533  0.50853802  0.00991876  1
  In  In73  1  0.32773273  0.68093800  0.74351439  1
  In  In74  1  -0.00095045  0.33829585  0.25611116  1
  In  In75  1  0.17359397  0.83507631  -0.00062492  1
  In  In76  1  0.33651339  0.66896545  0.25551292  1
  In  In77  1  0.00413365  0.32292410  0.75128105  1
  In  In78  1  0.65924198  0.33308617  0.25480976  1
  In  In79  1  0.16699182  0.49892675  0.01367129  1
  In  In80  1  0.82768734  0.15616958  -0.00532390  1
  In  In81  1  0.49956003  0.49161641  0.48980825  1
  In  In82  1  0.67855230  0.68293482  0.72830344  1
  In  In83  1  0.32635321  0.32537521  0.73239841  1
  In  In84  1  0.67035097  0.32008171  0.74531425  1
  In  In85  1  0.49924410  0.50022181  0.00768066  1
  Cu  Cu86  1  0.33480272  0.00823936  0.49694493  1
  Cu  Cu87  1  0.65770255  0.33076735  -0.00390725  1
  Cu  Cu88  1  0.00038132  -0.00558388  -0.00071089  1
  Cu  Cu89  1  0.00048104  0.67656967  -0.00124001  1
  Cu  Cu90  1  0.66496135  -0.00362661  0.00361180  1
  Cu  Cu91  1  0.83183724  0.16169982  0.25567913  1
  Cu  Cu92  1  0.16120965  0.83440613  0.74351618  1
  Cu  Cu93  1  0.32724618  0.31996080  0.00496143  1
  Cu  Cu94  1  0.66592542  -0.00458265  0.50143679  1
  Cu  Cu95  1  0.00731872  0.33713117  0.49585858  1
  Cu  Cu96  1  0.33722586  0.00119175  0.00480680  1
  Cu  Cu97  1  0.15989443  0.50662283  0.26111698  1
  Cu  Cu98  1  0.49569742  0.15995019  0.25273497  1
  Cu  Cu99  1  0.33543581  0.33191083  0.49913142  1
  Cu  Cu100  1  -0.00058360  -0.00649647  0.49911729  1
  Cu  Cu101  1  0.50246613  0.15265807  0.75120905  1
  Cu  Cu102  1  0.67121544  0.68492476  0.00728664  1
  Cu  Cu103  1  0.84165493  0.50184682  0.74312383  1
  Cu  Cu104  1  0.16061778  0.51386536  0.74169531  1
  Cu  Cu105  1  0.00391659  0.31950640  0.00144543  1
  Cu  Cu106  1  0.49757605  0.84414177  0.75082134  1
  Cu  Cu107  1  0.83343779  0.83435004  0.25884715  1
  Cu  Cu108  1  0.16569145  0.83579920  0.25820974  1
  Cu  Cu109  1  0.16904532  0.16392336  0.25680454  1
  Cu  Cu110  1  0.17281108  0.16041334  0.74749989  1
  Cu  Cu111  1  0.49878044  0.51077813  0.74691362  1
  Cu  Cu112  1  0.66731308  0.32920010  0.49501119  1
  Cu  Cu113  1  0.50582403  0.83705529  0.25642129  1
  Cu  Cu114  1  -0.00734159  0.67178865  0.49900516  1
  Se  Se115  1  0.08334202  0.07910284  0.05090906  1
  Se  Se116  1  0.08604978  0.08128860  0.54814904  1
  Se  Se117  1  0.07227784  0.40395638  0.06674303  1
  Se  Se118  1  0.08798189  0.42396011  0.54901141  1
  Se  Se119  1  0.08420093  0.74687693  0.06268520  1
  Se  Se120  1  0.07473475  0.75596509  0.55299302  1
  Se  Se121  1  0.41895476  0.08272874  0.06121602  1
  Se  Se122  1  0.42306110  0.08758511  0.55078655  1
  Se  Se123  1  0.40191976  0.40915281  0.06341251  1
  Se  Se124  1  0.41208743  0.41032544  0.56364000  1
  Se  Se125  1  0.41639431  0.74831016  0.04893977  1
  Se  Se126  1  0.38489024  0.73283724  0.54485589  1
  Se  Se127  1  0.74503005  0.07537694  0.06639587  1
  Se  Se128  1  0.75150144  0.07550774  0.55673459  1
  Se  Se129  1  0.73755899  0.40941280  0.05742613  1
  Se  Se130  1  0.75175733  0.41621745  0.54369936  1
  Se  Se131  1  0.75858463  0.75893371  0.06334582  1
  Se  Se132  1  0.72461110  0.72782700  0.54744884  1
  Se  Se133  1  0.24340076  0.24270875  0.06171403  1
  Se  Se134  1  0.25031124  0.25016701  0.55230560  1
  Se  Se135  1  0.26587369  0.59555724  0.05680110  1
  Se  Se136  1  0.23946088  0.57613420  0.54042448  1
  Se  Se137  1  0.25650719  0.92172766  0.06645664  1
  Se  Se138  1  0.25013419  0.92538420  0.54957811  1
  Se  Se139  1  0.58012649  0.24275045  0.04846125  1
  Se  Se140  1  0.58293817  0.24431023  0.54498396  1
  Se  Se141  1  0.59354318  0.59345476  0.06211268  1
  Se  Se142  1  0.57926002  0.58077322  0.55835898  1
  Se  Se143  1  0.58319768  0.91557248  0.06045707  1
  Se  Se144  1  0.57475011  0.91364418  0.54988414  1
  Se  Se145  1  0.91441758  0.24854252  0.06018052  1
  Se  Se146  1  0.92485573  0.25081596  0.54889779  1
  Se  Se147  1  0.92699819  0.59805422  0.06592049  1
  Se  Se148  1  0.90993684  0.58094878  0.54811707  1
  Se  Se149  1  0.91623943  0.91463744  0.05377885  1
  Se  Se150  1  0.91260105  0.91749065  0.55546047  1
  Se  Se151  1  0.08875866  0.24768662  0.44811674  1
  Se  Se152  1  0.08713448  0.23796875  0.94927531  1
  Se  Se153  1  0.07952728  0.58732078  0.44884612  1
  Se  Se154  1  0.07925426  0.58688115  0.94442187  1
  Se  Se155  1  0.08572183  0.91370204  0.44595317  1
  Se  Se156  1  0.07960009  0.91545019  0.93634934  1
  Se  Se157  1  0.41884892  0.25110262  0.44425463  1
  Se  Se158  1  0.41845629  0.24454263  0.95287387  1
  Se  Se159  1  0.41505380  0.58625144  0.43207998  1
  Se  Se160  1  0.41418306  0.58730464  0.93992647  1
  Se  Se161  1  0.41710122  0.91849050  0.44872782  1
  Se  Se162  1  0.41452836  0.91481938  0.94901226  1
  Se  Se163  1  0.75736745  0.24094866  0.45247050  1
  Se  Se164  1  0.74097259  0.25505197  0.93470025  1
  Se  Se165  1  0.74623507  0.58407276  0.44541096  1
  Se  Se166  1  0.74866278  0.60053392  0.94622508  1
  Se  Se167  1  0.75288410  0.91410755  0.44903273  1
  Se  Se168  1  0.75379503  0.92534774  0.94349172  1
  Se  Se169  1  0.24785212  0.08904775  0.44464313  1
  Se  Se170  1  0.24778478  0.07722359  0.95014927  1
  Se  Se171  1  0.25634858  0.41736415  0.44375495  1
  Se  Se172  1  0.24956956  0.40561570  0.94451468  1
  Se  Se173  1  0.26061157  0.74824342  0.45752943  1
  Se  Se174  1  0.25947030  0.73722984  0.94104591  1
  Se  Se175  1  0.58329587  0.08106652  0.44949523  1
  Se  Se176  1  0.57815158  0.07894778  0.95212057  1
  Se  Se177  1  0.59366889  0.40728265  0.42908690  1
  Se  Se178  1  0.58472189  0.41599059  0.93485565  1
  Se  Se179  1  0.58171253  0.75361467  0.45504075  1
  Se  Se180  1  0.58058185  0.75965148  0.95412063  1
  Se  Se181  1  0.91527629  0.07969590  0.44792665  1
  Se  Se182  1  0.91773239  0.06884942  0.93569597  1
  Se  Se183  1  0.91787046  0.41906732  0.44801903  1
  Se  Se184  1  0.92452446  0.40982080  0.94796500  1
  Se  Se185  1  0.91016227  0.75592621  0.44582609  1
  Se  Se186  1  0.91956974  0.75572550  0.94105074  1
  Se  Se187  1  0.25468082  0.25145858  0.30270721  1
  Se  Se188  1  0.25090683  0.24290398  0.80872212  1
  Se  Se189  1  0.24265622  0.58644502  0.31883375  1
  Se  Se190  1  0.24410319  0.58297806  0.80737613  1
  Se  Se191  1  0.25247534  0.91815387  0.30780995  1
  Se  Se192  1  0.25022052  0.91000025  0.79829431  1
  Se  Se193  1  0.57799315  0.23683266  0.31563115  1
  Se  Se194  1  0.57394015  0.24281962  0.81117578  1
  Se  Se195  1  0.57146006  0.57305112  0.29981904  1
  Se  Se196  1  0.58736374  0.58881387  0.80078028  1
  Se  Se197  1  0.58842076  0.91803400  0.31147688  1
  Se  Se198  1  0.58292037  0.92061008  0.80771915  1
  Se  Se199  1  0.91201872  0.24296741  0.31411069  1
  Se  Se200  1  0.90565279  0.23146571  0.80219356  1
  Se  Se201  1  0.91547428  0.59222130  0.30410331  1
  Se  Se202  1  0.92590830  0.58580757  0.79500989  1
  Se  Se203  1  0.92030463  0.91942546  0.30656253  1
  Se  Se204  1  0.92936895  0.93836099  0.79802824  1
  Se  Se205  1  0.08256213  0.08158005  0.30726484  1
  Se  Se206  1  0.09088144  0.08334075  0.80671720  1
  Se  Se207  1  0.08592125  0.42197247  0.32136960  1
  Se  Se208  1  0.09227517  0.42642514  0.80618343  1
  Se  Se209  1  0.08515794  0.74976024  0.30988983  1
  Se  Se210  1  0.07755881  0.75059487  0.79544399  1
  Se  Se211  1  0.41383986  0.07756822  0.30753429  1
  Se  Se212  1  0.41276591  0.07858744  0.80648507  1
  Se  Se213  1  0.41886130  0.41730638  0.29033859  1
  Se  Se214  1  0.41671358  0.42276728  0.79754250  1
  Se  Se215  1  0.42484495  0.75678727  0.31749631  1
  Se  Se216  1  0.42587300  0.75569522  0.81019591  1
  Se  Se217  1  0.74865783  0.07724123  0.30650379  1
  Se  Se218  1  0.74709544  0.09207631  0.79347361  1
  Se  Se219  1  0.76098193  0.41682927  0.30739335  1
  Se  Se220  1  0.76002702  0.42324978  0.80346144  1
  Se  Se221  1  0.74590646  0.75198496  0.30841857  1
  Se  Se222  1  0.74831347  0.75107310  0.81359064  1
  Se  Se223  1  0.24977832  0.07953297  0.20097108  1
  Se  Se224  1  0.25522899  0.07652284  0.69464836  1
  Se  Se225  1  0.24256903  0.42208006  0.20806312  1
  Se  Se226  1  0.24304000  0.43347350  0.68471570  1
  Se  Se227  1  0.24599629  0.76039237  0.19333432  1
  Se  Se228  1  0.23889184  0.76006428  0.67716151  1
  Se  Se229  1  0.58516095  0.08124607  0.20155025  1
  Se  Se230  1  0.58648252  0.07642668  0.69332434  1
  Se  Se231  1  0.57481959  0.41630499  0.18489018  1
  Se  Se232  1  0.58125469  0.42453090  0.69292309  1
  Se  Se233  1  0.58686906  0.75297300  0.20161766  1
  Se  Se234  1  0.57390202  0.77050573  0.68381867  1
  Se  Se235  1  0.91778410  0.08084219  0.20194726  1
  Se  Se236  1  0.92192045  0.07761250  0.69647081  1
  Se  Se237  1  0.90523114  0.43022600  0.19877873  1
  Se  Se238  1  0.91967041  0.41437530  0.68663562  1
  Se  Se239  1  0.92051788  0.75425977  0.20312713  1
  Se  Se240  1  0.90260803  0.75370685  0.69205831  1
  Se  Se241  1  0.08369159  0.24111988  0.19505987  1
  Se  Se242  1  0.09131273  0.23830320  0.68633038  1
  Se  Se243  1  0.08253324  0.59182505  0.20561513  1
  Se  Se244  1  0.07677631  0.59448126  0.68929409  1
  Se  Se245  1  0.08435552  0.91645767  0.19893651  1
  Se  Se246  1  0.08050335  0.92134575  0.69189482  1
  Se  Se247  1  0.41461007  0.24615335  0.19997018  1
  Se  Se248  1  0.42912724  0.23611709  0.68672635  1
  Se  Se249  1  0.42406896  0.58221510  0.19064476  1
  Se  Se250  1  0.42672101  0.59425423  0.68490891  1
  Se  Se251  1  0.41948293  0.91600614  0.20218273  1
  Se  Se252  1  0.41182334  0.91885857  0.69247758  1
  Se  Se253  1  0.75562223  0.24350817  0.19370401  1
  Se  Se254  1  0.76043397  0.24053697  0.68115851  1
  Se  Se255  1  0.74959854  0.58204481  0.21023985  1
  Se  Se256  1  0.76569480  0.57963189  0.68039257  1
  Se  Se257  1  0.75136444  0.91844390  0.20333858  1
  Se  Se258  1  0.74829969  0.90102157  0.69187574  1
