# generated using pymatgen
data_In86Cu29Se144
_symmetry_space_group_name_H-M   'P 1'
_cell_length_a   17.58568655
_cell_length_b   17.58978328
_cell_length_c   23.45444432
_cell_angle_alpha   89.98570184
_cell_angle_beta   90.00021128
_cell_angle_gamma   89.99281620
_symmetry_Int_Tables_number   1
_chemical_formula_structural   In86Cu29Se144
_chemical_formula_sum   'In86 Cu29 Se144'
_cell_volume   7255.12581113
_cell_formula_units_Z   1
loop_
 _symmetry_equiv_pos_site_id
 _symmetry_equiv_pos_as_xyz
  1  'x, y, z'
loop_
 _atom_site_type_symbol
 _atom_site_label
 _atom_site_symmetry_multiplicity
 _atom_site_fract_x
 _atom_site_fract_y
 _atom_site_fract_z
 _atom_site_occupancy
  In  In0  1  -0.00298070  0.16584603  0.12879259  1
  In  In1  1  -0.02278811  0.18741507  0.63633133  1
  In  In2  1  -0.02167803  0.49898625  0.12508449  1
  In  In3  1  -0.03318182  0.47648968  0.60361833  1
  In  In4  1  0.00869773  0.84025348  0.11706043  1
  In  In5  1  0.00206343  0.83377012  0.61818298  1
  In  In6  1  0.31461089  0.16490890  0.12185948  1
  In  In7  1  0.33680899  0.18048307  0.62808605  1
  In  In8  1  0.34154203  0.49333355  0.12401819  1
  In  In9  1  0.33478378  0.47645265  0.62004390  1
  In  In10  1  0.33905149  0.84391661  0.12448637  1
  In  In11  1  0.31713636  0.84412956  0.62506166  1
  In  In12  1  0.68490405  0.16502620  0.12222381  1
  In  In13  1  0.67605238  0.15612257  0.63701275  1
  In  In14  1  0.66778504  0.49836185  0.12399371  1
  In  In15  1  0.66682268  0.49703795  0.62072201  1
  In  In16  1  0.66327522  0.82833707  0.12161020  1
  In  In17  1  0.68172024  0.83184807  0.62557570  1
  In  In18  1  0.13976321  -0.00508672  0.35386196  1
  In  In19  1  0.16073187  0.01045718  0.88290343  1
  In  In20  1  0.15954492  0.33462806  0.37252678  1
  In  In21  1  0.15480069  0.31879569  0.86670312  1
  In  In22  1  0.17252921  0.67240140  0.37751757  1
  In  In23  1  0.17485884  0.67227688  0.87982361  1
  In  In24  1  0.49936591  0.01331289  0.37045023  1
  In  In25  1  0.50347798  -0.00916868  0.87922836  1
  In  In26  1  0.51464481  0.33212379  0.37712323  1
  In  In27  1  0.51575361  0.34159415  0.86429472  1
  In  In28  1  0.50386415  0.65094496  0.37762972  1
  In  In29  1  0.50505848  0.66521189  0.88357730  1
  In  In30  1  0.84422942  -0.00817318  0.37852753  1
  In  In31  1  0.83732972  0.00211972  0.87584260  1
  In  In32  1  0.83342378  0.33820230  0.38358103  1
  In  In33  1  0.83192552  0.33124773  0.87546513  1
  In  In34  1  0.82484981  0.67820479  0.38031618  1
  In  In35  1  0.83438004  0.66384054  0.88183671  1
  In  In36  1  -0.00683816  0.16045776  0.37077604  1
  In  In37  1  0.00022406  0.16468798  0.87679413  1
  In  In38  1  -0.00727803  0.48266218  0.37670318  1
  In  In39  1  -0.00830126  0.48293763  0.87087834  1
  In  In40  1  -0.01965885  0.84807234  0.38705025  1
  In  In41  1  -0.00934256  0.84173566  0.88263960  1
  In  In42  1  0.33988343  0.16324761  0.37176549  1
  In  In43  1  0.31998753  0.16354077  0.87640461  1
  In  In44  1  0.33710598  0.50585860  0.38155523  1
  In  In45  1  0.34565153  0.49867179  0.87607752  1
  In  In46  1  0.31727872  0.84009023  0.37536222  1
  In  In47  1  0.33016441  0.84448762  0.88626541  1
  In  In48  1  0.66613620  0.18398841  0.37297429  1
  In  In49  1  0.68040624  0.18316951  0.86388010  1
  In  In50  1  0.67197863  0.50025485  0.37632944  1
  In  In51  1  0.67902339  0.48392109  0.88026660  1
  In  In52  1  0.69473858  0.83276628  0.36836343  1
  In  In53  1  0.66495871  0.83759473  0.88186470  1
  In  In54  1  0.16444208  0.00647320  0.12986851  1
  In  In55  1  0.15573633  -0.01453412  0.61942374  1
  In  In56  1  0.15414746  0.31108176  0.12269566  1
  In  In57  1  0.16748573  0.32667467  0.63108945  1
  In  In58  1  0.14967261  0.67197955  0.12532400  1
  In  In59  1  0.14758290  0.67012300  0.61861666  1
  In  In60  1  0.50136174  -0.01574989  0.12464043  1
  In  In61  1  0.50450076  0.01955332  0.63151892  1
  In  In62  1  0.50319755  0.34915827  0.11775645  1
  In  In63  1  0.49712479  0.33691353  0.63408005  1
  In  In64  1  0.51249429  0.67692611  0.12090423  1
  In  In65  1  0.51410131  0.66040711  0.62405748  1
  In  In66  1  0.84348156  0.00444939  0.11937190  1
  In  In67  1  0.83595993  0.00329709  0.62752913  1
  In  In68  1  0.83046887  0.33147379  0.12629027  1
  In  In69  1  0.83570038  0.33010838  0.62404613  1
  In  In70  1  0.82609729  0.65702776  0.11967832  1
  In  In71  1  0.83521166  0.66321693  0.61342537  1
  In  In72  1  0.33229848  0.33227021  0.24877443  1
  In  In73  1  0.16588055  0.50111911  0.50081017  1
  In  In74  1  0.33536228  0.66307202  0.75510313  1
  In  In75  1  0.50529765  0.83025755  0.50453270  1
  In  In76  1  0.67367223  0.66199975  0.74594793  1
  In  In77  1  0.16274765  0.16256042  0.49903930  1
  In  In78  1  0.33648290  0.66837540  0.25587047  1
  In  In79  1  -0.00200322  0.65686796  0.74357020  1
  In  In80  1  0.50422427  0.17452306  0.50365278  1
  In  In81  1  -0.01019709  0.67258082  0.25573089  1
  In  In82  1  0.33206818  0.00632002  0.75119833  1
  In  In83  1  0.66803645  0.00050964  0.24536662  1
  In  In84  1  0.49947061  0.16711845  -0.01135373  1
  In  In85  1  0.16511258  0.50467899  0.00127211  1
  Cu  Cu86  1  0.33036693  -0.00035542  0.00516163  1
  Cu  Cu87  1  0.16301654  0.16125951  0.75143885  1
  Cu  Cu88  1  0.32662530  0.00054029  0.49564931  1
  Cu  Cu89  1  0.50399382  0.49632483  0.75014081  1
  Cu  Cu90  1  0.33084178  0.33694423  -0.00003734  1
  Cu  Cu91  1  0.82454514  0.49155902  0.25000738  1
  Cu  Cu92  1  0.66944667  0.66342542  0.49796406  1
  Cu  Cu93  1  0.50182134  0.84121648  0.75833302  1
  Cu  Cu94  1  0.49393895  0.16915284  0.24702512  1
  Cu  Cu95  1  0.67660928  -0.00094360  0.00102695  1
  Cu  Cu96  1  0.66339213  0.66441887  0.00088118  1
  Cu  Cu97  1  -0.00490259  0.32805256  -0.00200464  1
  Cu  Cu98  1  0.83535470  0.84296005  0.75102468  1
  Cu  Cu99  1  0.16562519  0.48996782  0.74453952  1
  Cu  Cu100  1  0.15568075  0.83347510  0.75058447  1
  Cu  Cu101  1  -0.00466769  0.66971403  0.00067845  1
  Cu  Cu102  1  0.83957916  0.16729516  0.75239734  1
  Cu  Cu103  1  0.33549049  0.67554258  0.00260561  1
  Cu  Cu104  1  0.15733169  0.48982101  0.25035293  1
  Cu  Cu105  1  0.67204268  0.33827265  0.50144910  1
  Cu  Cu106  1  0.67847643  0.00189044  0.50318706  1
  Cu  Cu107  1  0.33692421  0.66681385  0.49948725  1
  Cu  Cu108  1  0.00297736  0.00234530  0.00074816  1
  Cu  Cu109  1  0.83210212  0.17181993  0.25089603  1
  Cu  Cu110  1  0.16395490  0.84180298  0.24642297  1
  Cu  Cu111  1  0.66807607  0.33557533  -0.00355967  1
  Cu  Cu112  1  -0.00549409  0.00232466  0.50085275  1
  Cu  Cu113  1  0.50428828  0.82949079  0.24762068  1
  Cu  Cu114  1  0.51248139  0.50020384  0.24999731  1
  Se  Se115  1  0.08194144  0.08597677  0.05794456  1
  Se  Se116  1  0.06956698  0.08362702  0.56388507  1
  Se  Se117  1  0.07391005  0.41271251  0.05899665  1
  Se  Se118  1  0.08186526  0.40211202  0.55551492  1
  Se  Se119  1  0.08574445  0.75133731  0.04705959  1
  Se  Se120  1  0.09191984  0.76348445  0.54729808  1
  Se  Se121  1  0.41686760  0.08183127  0.06005831  1
  Se  Se122  1  0.40590573  0.07870644  0.55640267  1
  Se  Se123  1  0.41714692  0.42260047  0.04578379  1
  Se  Se124  1  0.42957225  0.41221410  0.55345381  1
  Se  Se125  1  0.41932338  0.75595421  0.05812326  1
  Se  Se126  1  0.40945605  0.74600964  0.56669296  1
  Se  Se127  1  0.75978443  0.08614348  0.04910720  1
  Se  Se128  1  0.75497041  0.08891055  0.55771948  1
  Se  Se129  1  0.75053111  0.41535514  0.05489401  1
  Se  Se130  1  0.75736134  0.42063391  0.55428313  1
  Se  Se131  1  0.74801714  0.74753298  0.05300440  1
  Se  Se132  1  0.75055834  0.75086189  0.54986786  1
  Se  Se133  1  0.24633156  0.25155958  0.04834382  1
  Se  Se134  1  0.25660099  0.25724220  0.55320311  1
  Se  Se135  1  0.25646111  0.59424870  0.06418286  1
  Se  Se136  1  0.25797396  0.58882589  0.56426621  1
  Se  Se137  1  0.24582052  0.91925608  0.06003057  1
  Se  Se138  1  0.24334074  0.91543181  0.54651538  1
  Se  Se139  1  0.58868179  0.25124344  0.05589034  1
  Se  Se140  1  0.59759920  0.25542149  0.56516938  1
  Se  Se141  1  0.58096015  0.57999606  0.05508584  1
  Se  Se142  1  0.58508714  0.58042180  0.54983448  1
  Se  Se143  1  0.58801723  0.91762131  0.05127211  1
  Se  Se144  1  0.58921567  0.92895848  0.56232324  1
  Se  Se145  1  0.91470901  0.24857480  0.05814308  1
  Se  Se146  1  0.91293844  0.24771130  0.55058925  1
  Se  Se147  1  0.91246869  0.58027751  0.04812298  1
  Se  Se148  1  0.95151956  0.60957364  0.56048282  1
  Se  Se149  1  0.91773460  0.91573629  0.04942062  1
  Se  Se150  1  0.91245687  0.91757865  0.55540358  1
  Se  Se151  1  0.07332904  0.25452382  0.44171254  1
  Se  Se152  1  0.08404010  0.24769768  0.94744895  1
  Se  Se153  1  0.07906481  0.58506411  0.43538510  1
  Se  Se154  1  0.07247518  0.58808701  0.93680530  1
  Se  Se155  1  0.08243053  0.92752706  0.44258800  1
  Se  Se156  1  0.08556603  0.91622265  0.94749372  1
  Se  Se157  1  0.41105228  0.25816937  0.44085800  1
  Se  Se158  1  0.40938720  0.26191140  0.93423572  1
  Se  Se159  1  0.42148597  0.58042782  0.45302862  1
  Se  Se160  1  0.41243129  0.58792835  0.94803698  1
  Se  Se161  1  0.41785979  0.92330303  0.44179433  1
  Se  Se162  1  0.41963072  0.91997939  0.95369007  1
  Se  Se163  1  0.74934164  0.24839391  0.44924311  1
  Se  Se164  1  0.75141597  0.24812894  0.94727629  1
  Se  Se165  1  0.75537200  0.58110413  0.44639444  1
  Se  Se166  1  0.74657030  0.58197163  0.94631972  1
  Se  Se167  1  0.75459374  0.91489862  0.44798763  1
  Se  Se168  1  0.75765990  0.91488896  0.94566627  1
  Se  Se169  1  0.24766811  0.07547663  0.43278593  1
  Se  Se170  1  0.24874911  0.08550797  0.95296422  1
  Se  Se171  1  0.25616285  0.40812690  0.44138573  1
  Se  Se172  1  0.24727459  0.41347586  0.93714646  1
  Se  Se173  1  0.25304940  0.75124945  0.44952464  1
  Se  Se174  1  0.24821728  0.75620728  0.95123303  1
  Se  Se175  1  0.59378699  0.07910758  0.44354348  1
  Se  Se176  1  0.59948816  0.07974410  0.93774542  1
  Se  Se177  1  0.58649654  0.41916242  0.44724086  1
  Se  Se178  1  0.57916155  0.41749798  0.94674559  1
  Se  Se179  1  0.59239432  0.74813592  0.43753947  1
  Se  Se180  1  0.58216454  0.75374967  0.94966398  1
  Se  Se181  1  0.91321493  0.08632899  0.44643555  1
  Se  Se182  1  0.91761031  0.08440059  0.94728155  1
  Se  Se183  1  0.91318150  0.42002454  0.45519360  1
  Se  Se184  1  0.91249720  0.41512301  0.94816276  1
  Se  Se185  1  0.92560464  0.73968587  0.44613192  1
  Se  Se186  1  0.91098801  0.75315910  0.94852568  1
  Se  Se187  1  0.24320374  0.24251910  0.30722166  1
  Se  Se188  1  0.25012406  0.24565023  0.80051221  1
  Se  Se189  1  0.24032791  0.57058160  0.30668213  1
  Se  Se190  1  0.23851948  0.57066039  0.80891293  1
  Se  Se191  1  0.24981873  0.92278625  0.30039630  1
  Se  Se192  1  0.24143856  0.91217297  0.80860485  1
  Se  Se193  1  0.57917514  0.25131588  0.29861707  1
  Se  Se194  1  0.57944021  0.24435086  0.79885319  1
  Se  Se195  1  0.59128248  0.58547543  0.30449997  1
  Se  Se196  1  0.58169122  0.57879144  0.81039604  1
  Se  Se197  1  0.58158299  0.91065438  0.31212386  1
  Se  Se198  1  0.59099743  0.92004309  0.80691899  1
  Se  Se199  1  0.90952697  0.25362298  0.31019657  1
  Se  Se200  1  0.92076186  0.25084400  0.80824585  1
  Se  Se201  1  0.90581171  0.57265566  0.31031562  1
  Se  Se202  1  0.90501888  0.57439154  0.80642756  1
  Se  Se203  1  0.91655220  0.91479116  0.30265320  1
  Se  Se204  1  0.92209736  0.92064637  0.80490152  1
  Se  Se205  1  0.08184642  0.10076414  0.29364333  1
  Se  Se206  1  0.08108081  0.07905706  0.80590763  1
  Se  Se207  1  0.07331248  0.40827832  0.30165270  1
  Se  Se208  1  0.08052359  0.41212083  0.80085771  1
  Se  Se209  1  0.09090849  0.75800243  0.30853349  1
  Se  Se210  1  0.08159850  0.74837946  0.81035556  1
  Se  Se211  1  0.41386107  0.08175613  0.29701212  1
  Se  Se212  1  0.42293708  0.08775903  0.81467703  1
  Se  Se213  1  0.42317184  0.42495606  0.30815326  1
  Se  Se214  1  0.41557953  0.41623701  0.80185402  1
  Se  Se215  1  0.42523929  0.75884922  0.31690696  1
  Se  Se216  1  0.42019763  0.75985634  0.81435586  1
  Se  Se217  1  0.75219221  0.08834658  0.31135362  1
  Se  Se218  1  0.75525236  0.08285708  0.80460334  1
  Se  Se219  1  0.74602448  0.40874065  0.30830591  1
  Se  Se220  1  0.74641850  0.40723684  0.80378062  1
  Se  Se221  1  0.76049255  0.74659510  0.29608218  1
  Se  Se222  1  0.75740249  0.75575525  0.80856651  1
  Se  Se223  1  0.25466599  0.08154660  0.19800626  1
  Se  Se224  1  0.23989449  0.08619809  0.68437097  1
  Se  Se225  1  0.23934550  0.41932718  0.18594081  1
  Se  Se226  1  0.25624324  0.40799512  0.69746231  1
  Se  Se227  1  0.24319946  0.75273889  0.19258769  1
  Se  Se228  1  0.24010330  0.75117253  0.69532020  1
  Se  Se229  1  0.57643799  0.09149096  0.18499609  1
  Se  Se230  1  0.58680110  0.08266338  0.70652589  1
  Se  Se231  1  0.58699581  0.41220037  0.19474238  1
  Se  Se232  1  0.59063983  0.41868155  0.69558697  1
  Se  Se233  1  0.59005081  0.74756423  0.19868951  1
  Se  Se234  1  0.57757312  0.76018200  0.69512354  1
  Se  Se235  1  0.91062098  0.08419442  0.19785410  1
  Se  Se236  1  0.92060023  0.07996034  0.69969999  1
  Se  Se237  1  0.91350315  0.41185120  0.19877259  1
  Se  Se238  1  0.92326791  0.40910355  0.69334551  1
  Se  Se239  1  0.91449450  0.75254285  0.18096754  1
  Se  Se240  1  0.90755395  0.75586708  0.69062439  1
  Se  Se241  1  0.07908349  0.24561891  0.20108524  1
  Se  Se242  1  0.08184595  0.24963024  0.69996813  1
  Se  Se243  1  0.07968267  0.57541059  0.19384249  1
  Se  Se244  1  0.08547559  0.56541413  0.68334175  1
  Se  Se245  1  0.07606384  0.92072880  0.19481201  1
  Se  Se246  1  0.07502250  0.91485959  0.69535653  1
  Se  Se247  1  0.42071129  0.24909169  0.18137636  1
  Se  Se248  1  0.43292953  0.23469300  0.69805490  1
  Se  Se249  1  0.42524674  0.57979031  0.19337683  1
  Se  Se250  1  0.42275007  0.57678628  0.69021039  1
  Se  Se251  1  0.41886142  0.91594539  0.20120917  1
  Se  Se252  1  0.42186216  0.91158411  0.69115644  1
  Se  Se253  1  0.74528418  0.25179243  0.19828276  1
  Se  Se254  1  0.75604365  0.25006903  0.69811272  1
  Se  Se255  1  0.74884992  0.58035088  0.19518781  1
  Se  Se256  1  0.76537341  0.57381987  0.68876982  1
  Se  Se257  1  0.75694730  0.91287129  0.18616317  1
  Se  Se258  1  0.74837243  0.92114638  0.69678453  1
