# generated using pymatgen
data_In86Cu29Se144
_symmetry_space_group_name_H-M   'P 1'
_cell_length_a   17.71440458
_cell_length_b   17.72170581
_cell_length_c   23.57221455
_cell_angle_alpha   90.04618303
_cell_angle_beta   89.99650828
_cell_angle_gamma   89.99303628
_symmetry_Int_Tables_number   1
_chemical_formula_structural   In86Cu29Se144
_chemical_formula_sum   'In86 Cu29 Se144'
_cell_volume   7400.01026384
_cell_formula_units_Z   1
loop_
 _symmetry_equiv_pos_site_id
 _symmetry_equiv_pos_as_xyz
  1  'x, y, z'
loop_
 _atom_site_type_symbol
 _atom_site_label
 _atom_site_symmetry_multiplicity
 _atom_site_fract_x
 _atom_site_fract_y
 _atom_site_fract_z
 _atom_site_occupancy
  In  In0  1  -0.00127974  0.16040280  0.12488568  1
  In  In1  1  -0.00014291  0.15395198  0.62210290  1
  In  In2  1  -0.01218666  0.51172476  0.13463123  1
  In  In3  1  -0.00421000  0.50687348  0.61777457  1
  In  In4  1  -0.02368287  0.85095800  0.16089302  1
  In  In5  1  -0.00095216  0.83385915  0.60890774  1
  In  In6  1  0.33107723  0.16917373  0.12124253  1
  In  In7  1  0.33215051  0.16578020  0.63060908  1
  In  In8  1  0.33524721  0.49326609  0.12525053  1
  In  In9  1  0.33171310  0.49426841  0.62984697  1
  In  In10  1  0.34256297  0.83642609  0.14111717  1
  In  In11  1  0.34373568  0.84364128  0.61285811  1
  In  In12  1  0.67187137  0.16744655  0.12016433  1
  In  In13  1  0.65776934  0.16838938  0.62878804  1
  In  In14  1  0.66041883  0.51006382  0.12993728  1
  In  In15  1  0.68041076  0.50076432  0.61816637  1
  In  In16  1  0.60645366  0.87923690  0.19403948  1
  In  In17  1  0.66263515  0.83722340  0.61951625  1
  In  In18  1  0.16940834  0.00127454  0.37636385  1
  In  In19  1  0.18214037  -0.00015803  0.87161067  1
  In  In20  1  0.16707662  0.32418316  0.37238218  1
  In  In21  1  0.17116100  0.31407840  0.88150527  1
  In  In22  1  0.18146617  0.67411309  0.36835176  1
  In  In23  1  0.16459546  0.67103204  0.87728109  1
  In  In24  1  0.49278493  -0.01695580  0.35384475  1
  In  In25  1  0.50954683  0.00959906  0.87067393  1
  In  In26  1  0.50472722  0.33759003  0.36565524  1
  In  In27  1  0.49730170  0.33221810  0.87956210  1
  In  In28  1  0.52768858  0.70507653  0.32879961  1
  In  In29  1  0.50456556  0.65198147  0.87834359  1
  In  In30  1  0.83541717  -0.01024797  0.36274015  1
  In  In31  1  0.82136943  0.00922339  0.88137922  1
  In  In32  1  0.83557185  0.33591882  0.37371016  1
  In  In33  1  0.81777560  0.32394734  0.87534231  1
  In  In34  1  0.83542061  0.66485508  0.37430386  1
  In  In35  1  0.82589332  0.68047583  0.87631300  1
  In  In36  1  0.01007817  0.17639679  0.36713589  1
  In  In37  1  -0.00639901  0.16631913  0.88492242  1
  In  In38  1  -0.00312539  0.48759667  0.36925109  1
  In  In39  1  -0.00257302  0.50716613  0.88142454  1
  In  In40  1  0.00074795  0.83452339  0.37172699  1
  In  In41  1  -0.00464386  0.83054396  0.87289127  1
  In  In42  1  0.33331750  0.15698320  0.36773651  1
  In  In43  1  0.33512855  0.16495489  0.87663053  1
  In  In44  1  0.34556906  0.50292616  0.36652642  1
  In  In45  1  0.37239309  0.48947400  0.88376940  1
  In  In46  1  0.33713831  0.82960430  0.37514301  1
  In  In47  1  0.32645103  0.83708441  0.87205012  1
  In  In48  1  0.66749930  0.16311932  0.36466025  1
  In  In49  1  0.67042578  0.14596407  0.89637180  1
  In  In50  1  0.67475633  0.50356771  0.37349814  1
  In  In51  1  0.65056272  0.49678519  0.87244127  1
  In  In52  1  0.68587850  0.83232903  0.37380967  1
  In  In53  1  0.66222754  0.82997839  0.86616390  1
  In  In54  1  0.16200461  0.00431970  0.13075243  1
  In  In55  1  0.17462504  0.00967154  0.61273916  1
  In  In56  1  0.16881834  0.32308080  0.12875483  1
  In  In57  1  0.18195036  0.32960287  0.62955831  1
  In  In58  1  0.16301017  0.67141140  0.13573895  1
  In  In59  1  0.15953558  0.66701894  0.61738028  1
  In  In60  1  0.49386058  0.01131154  0.12416206  1
  In  In61  1  0.50704367  -0.00564164  0.62848459  1
  In  In62  1  0.49922090  0.33401907  0.12007456  1
  In  In63  1  0.50143256  0.32266158  0.62657094  1
  In  In64  1  0.50597559  0.66241343  0.13017624  1
  In  In65  1  0.49529486  0.68144781  0.62118272  1
  In  In66  1  0.81193679  0.00838235  0.14415136  1
  In  In67  1  0.83456552  -0.00873063  0.62222949  1
  In  In68  1  0.84142542  0.32682835  0.13022295  1
  In  In69  1  0.82041246  0.34410756  0.62125093  1
  In  In70  1  0.78675711  0.72139545  0.17895328  1
  In  In71  1  0.82389329  0.66676754  0.60899764  1
  In  In72  1  0.17051277  0.49402015  0.01336544  1
  In  In73  1  0.16535987  0.83687319  0.00897133  1
  In  In74  1  0.33522416  0.66663766  0.74954308  1
  In  In75  1  -0.00373984  0.66905096  0.73546409  1
  In  In76  1  -0.00308086  -0.00107005  0.74516666  1
  In  In77  1  0.83616206  0.16411360  0.49821518  1
  In  In78  1  0.83465873  0.49801104  0.00455675  1
  In  In79  1  0.82264495  0.83583290  0.02048931  1
  In  In80  1  0.50402182  0.16398651  0.49760433  1
  In  In81  1  0.65946517  0.33391869  0.74978435  1
  In  In82  1  0.16551626  0.49717508  0.49534857  1
  In  In83  1  0.50316110  0.50357946  0.49199844  1
  In  In84  1  0.00307608  0.33186684  0.76199361  1
  In  In85  1  0.50444715  0.84117307  0.01290560  1
  Cu  Cu86  1  0.49992445  0.17587062  0.24212424  1
  Cu  Cu87  1  0.49861199  0.83584433  0.74403717  1
  Cu  Cu88  1  0.66213993  -0.00232369  0.49460759  1
  Cu  Cu89  1  -0.00244782  0.67148112  0.01277096  1
  Cu  Cu90  1  0.17756925  0.49596637  0.75491434  1
  Cu  Cu91  1  0.33406260  0.33105203  0.00142971  1
  Cu  Cu92  1  0.33634296  -0.00103060  0.49042517  1
  Cu  Cu93  1  0.00120168  0.33035222  0.49356619  1
  Cu  Cu94  1  0.66433941  0.33034520  0.00120188  1
  Cu  Cu95  1  0.65993491  0.67688471  0.48835364  1
  Cu  Cu96  1  0.82069021  0.83800146  0.74534693  1
  Cu  Cu97  1  0.00560410  -0.00232917  0.00558578  1
  Cu  Cu98  1  0.00077162  0.00007862  0.49405415  1
  Cu  Cu99  1  0.33422143  0.67290088  0.49475288  1
  Cu  Cu100  1  0.66448404  0.66332169  0.00461152  1
  Cu  Cu101  1  0.49618345  0.48918662  0.24452428  1
  Cu  Cu102  1  0.83445668  0.50718792  0.74265265  1
  Cu  Cu103  1  0.33501130  0.00310945  -0.00087566  1
  Cu  Cu104  1  -0.00221010  0.32576314  0.00570524  1
  Cu  Cu105  1  0.49722172  0.16747627  0.75385618  1
  Cu  Cu106  1  0.17080626  0.16411199  0.24788792  1
  Cu  Cu107  1  0.00073368  0.66947661  0.49202439  1
  Cu  Cu108  1  0.17095880  0.83755174  0.74185019  1
  Cu  Cu109  1  0.16933402  0.16332224  0.75126876  1
  Cu  Cu110  1  0.83648371  0.16995295  0.24899161  1
  Cu  Cu111  1  0.33290609  0.32587117  0.50240181  1
  Cu  Cu112  1  0.16747810  0.48729698  0.24986083  1
  Cu  Cu113  1  0.17089897  0.83943669  0.25794669  1
  Cu  Cu114  1  0.82883338  0.49681302  0.25313667  1
  Se  Se115  1  0.08783906  0.08252722  0.05581660  1
  Se  Se116  1  0.08144766  0.08518725  0.54798518  1
  Se  Se117  1  0.06878667  0.41163497  0.06548503  1
  Se  Se118  1  0.08087732  0.40599768  0.56049862  1
  Se  Se119  1  0.07281880  0.75623367  0.07013965  1
  Se  Se120  1  0.08567013  0.74915005  0.54633993  1
  Se  Se121  1  0.41559516  0.08847001  0.05126188  1
  Se  Se122  1  0.41219585  0.07719102  0.55705014  1
  Se  Se123  1  0.41552764  0.41773645  0.05136593  1
  Se  Se124  1  0.41414906  0.41005700  0.55727984  1
  Se  Se125  1  0.41188937  0.74812090  0.06547014  1
  Se  Se126  1  0.42034051  0.75541008  0.54548902  1
  Se  Se127  1  0.75517093  0.07617047  0.05886956  1
  Se  Se128  1  0.73846270  0.07884253  0.55732226  1
  Se  Se129  1  0.74346814  0.41033537  0.06270307  1
  Se  Se130  1  0.75397453  0.42186140  0.54572705  1
  Se  Se131  1  0.73847891  0.73765152  0.07086340  1
  Se  Se132  1  0.74298196  0.75633736  0.54707833  1
  Se  Se133  1  0.24640793  0.25084490  0.05183982  1
  Se  Se134  1  0.25185948  0.24479847  0.55715777  1
  Se  Se135  1  0.25325048  0.59500695  0.06359421  1
  Se  Se136  1  0.26060708  0.58700090  0.55545421  1
  Se  Se137  1  0.26315554  0.92238135  0.06418836  1
  Se  Se138  1  0.25206287  0.91953599  0.54777199  1
  Se  Se139  1  0.58202875  0.24770235  0.05426911  1
  Se  Se140  1  0.59532322  0.25927246  0.55288522  1
  Se  Se141  1  0.57871510  0.58072148  0.05441598  1
  Se  Se142  1  0.58830008  0.59569008  0.55512957  1
  Se  Se143  1  0.59600636  0.91306693  0.08064527  1
  Se  Se144  1  0.57800739  0.91851908  0.55039533  1
  Se  Se145  1  0.91343330  0.24336982  0.05687255  1
  Se  Se146  1  0.92229791  0.25754094  0.56118672  1
  Se  Se147  1  0.90834576  0.59566230  0.06529529  1
  Se  Se148  1  0.91909546  0.58724221  0.54808421  1
  Se  Se149  1  0.92701813  0.92069852  0.06777544  1
  Se  Se150  1  0.91430239  0.92060400  0.54703127  1
  Se  Se151  1  0.08699891  0.24748712  0.44594107  1
  Se  Se152  1  0.08088031  0.24596993  0.95061499  1
  Se  Se153  1  0.08045371  0.58689721  0.43427193  1
  Se  Se154  1  0.07719940  0.59352013  0.95222448  1
  Se  Se155  1  0.08357263  0.91677846  0.44145803  1
  Se  Se156  1  0.07863077  0.92060269  0.93843630  1
  Se  Se157  1  0.41545202  0.25490852  0.43836528  1
  Se  Se158  1  0.41558458  0.24800443  0.94603023  1
  Se  Se159  1  0.41491690  0.59440256  0.43671106  1
  Se  Se160  1  0.40468455  0.60050226  0.94748234  1
  Se  Se161  1  0.42235807  0.91947290  0.43816583  1
  Se  Se162  1  0.41283082  0.91793969  0.94186002  1
  Se  Se163  1  0.74418322  0.24854561  0.43895908  1
  Se  Se164  1  0.75030029  0.24672722  0.95199018  1
  Se  Se165  1  0.74744723  0.58909412  0.44480680  1
  Se  Se166  1  0.74483278  0.58783167  0.94120725  1
  Se  Se167  1  0.75590788  0.92464560  0.44302406  1
  Se  Se168  1  0.74171775  0.91012863  0.94233371  1
  Se  Se169  1  0.25340451  0.08709242  0.44393881  1
  Se  Se170  1  0.24921259  0.08307635  0.94554532  1
  Se  Se171  1  0.26148176  0.41037793  0.43991283  1
  Se  Se172  1  0.25502460  0.41460859  0.94064266  1
  Se  Se173  1  0.24727706  0.75491026  0.44618051  1
  Se  Se174  1  0.25353135  0.74792689  0.94583768  1
  Se  Se175  1  0.58313575  0.07311411  0.43200145  1
  Se  Se176  1  0.57619105  0.07013903  0.95617396  1
  Se  Se177  1  0.59175200  0.40694915  0.44078945  1
  Se  Se178  1  0.58364312  0.41440285  0.94717836  1
  Se  Se179  1  0.58227053  0.75317863  0.42628820  1
  Se  Se180  1  0.58735345  0.74783820  0.94551028  1
  Se  Se181  1  0.92309984  0.08072617  0.43341641  1
  Se  Se182  1  0.91904973  0.07272820  0.94829101  1
  Se  Se183  1  0.91764382  0.41501740  0.44558302  1
  Se  Se184  1  0.92174633  0.40477515  0.94108948  1
  Se  Se185  1  0.91658955  0.75250520  0.44087635  1
  Se  Se186  1  0.91967078  0.74958083  0.94863411  1
  Se  Se187  1  0.25252131  0.24635069  0.30365968  1
  Se  Se188  1  0.25104046  0.24640753  0.80553806  1
  Se  Se189  1  0.24607344  0.57256695  0.30472255  1
  Se  Se190  1  0.24938457  0.58092564  0.81534242  1
  Se  Se191  1  0.25702935  0.92087562  0.30955038  1
  Se  Se192  1  0.25241646  0.91710906  0.79767364  1
  Se  Se193  1  0.58525994  0.25042720  0.30022822  1
  Se  Se194  1  0.58311190  0.24040412  0.81436307  1
  Se  Se195  1  0.56225463  0.56232561  0.31639283  1
  Se  Se196  1  0.59000700  0.59049900  0.80361223  1
  Se  Se197  1  0.61416367  0.93038969  0.30346340  1
  Se  Se198  1  0.57941970  0.91618717  0.80254919  1
  Se  Se199  1  0.91655756  0.25319648  0.30465581  1
  Se  Se200  1  0.90597569  0.23879954  0.80881648  1
  Se  Se201  1  0.91491787  0.57681969  0.30687299  1
  Se  Se202  1  0.91262023  0.58407883  0.80704971  1
  Se  Se203  1  0.92008121  0.90852079  0.29719993  1
  Se  Se204  1  0.90524722  0.91103251  0.80736699  1
  Se  Se205  1  0.08918133  0.08415018  0.30519381  1
  Se  Se206  1  0.08442382  0.08710511  0.81006232  1
  Se  Se207  1  0.08455487  0.40659116  0.30468091  1
  Se  Se208  1  0.09392098  0.42651348  0.81854017  1
  Se  Se209  1  0.08805676  0.75116394  0.30579275  1
  Se  Se210  1  0.08892540  0.75726103  0.80010641  1
  Se  Se211  1  0.42332199  0.08779212  0.29746255  1
  Se  Se212  1  0.41481706  0.08174066  0.80598755  1
  Se  Se213  1  0.41118742  0.40712743  0.29870912  1
  Se  Se214  1  0.42915971  0.41412173  0.80302074  1
  Se  Se215  1  0.38896522  0.72959583  0.30391446  1
  Se  Se216  1  0.42428862  0.75660434  0.80980503  1
  Se  Se217  1  0.75557661  0.08252954  0.30023153  1
  Se  Se218  1  0.74220050  0.08705741  0.81180291  1
  Se  Se219  1  0.74714118  0.41225819  0.30562027  1
  Se  Se220  1  0.75807469  0.42661552  0.80577395  1
  Se  Se221  1  0.75678716  0.74543213  0.30170905  1
  Se  Se222  1  0.74731086  0.74758483  0.79929028  1
  Se  Se223  1  0.25471186  0.08383099  0.19280555  1
  Se  Se224  1  0.24619549  0.07946236  0.69396083  1
  Se  Se225  1  0.25092135  0.41099973  0.19212610  1
  Se  Se226  1  0.25683775  0.41182746  0.70172442  1
  Se  Se227  1  0.24844295  0.75587124  0.20044422  1
  Se  Se228  1  0.24720366  0.75267212  0.68355343  1
  Se  Se229  1  0.58236904  0.09175645  0.18998121  1
  Se  Se230  1  0.57895095  0.08642901  0.69671313  1
  Se  Se231  1  0.58327630  0.41374814  0.19048078  1
  Se  Se232  1  0.58090667  0.42563234  0.68421065  1
  Se  Se233  1  0.57476521  0.73646203  0.21305863  1
  Se  Se234  1  0.58196076  0.75452189  0.69071490  1
  Se  Se235  1  0.91703842  0.08214272  0.19776072  1
  Se  Se236  1  0.90278231  0.09147284  0.69250908  1
  Se  Se237  1  0.91435395  0.41730680  0.19846153  1
  Se  Se238  1  0.91896766  0.42163517  0.69317928  1
  Se  Se239  1  0.93340529  0.71859395  0.18701394  1
  Se  Se240  1  0.90523951  0.76335719  0.68356047  1
  Se  Se241  1  0.08249612  0.24242599  0.19428515  1
  Se  Se242  1  0.08571875  0.24260356  0.69324590  1
  Se  Se243  1  0.08870812  0.57611733  0.19871404  1
  Se  Se244  1  0.09588306  0.56930640  0.69174767  1
  Se  Se245  1  0.08853335  0.92326088  0.20502790  1
  Se  Se246  1  0.08633797  0.91202559  0.68282401  1
  Se  Se247  1  0.41343397  0.25402240  0.18874019  1
  Se  Se248  1  0.41728856  0.24889141  0.69666507  1
  Se  Se249  1  0.41764208  0.57717634  0.19238852  1
  Se  Se250  1  0.42589701  0.57963245  0.68862706  1
  Se  Se251  1  0.44125084  0.91247053  0.19903374  1
  Se  Se252  1  0.41321793  0.91758293  0.69261481  1
  Se  Se253  1  0.75075238  0.24816616  0.19379620  1
  Se  Se254  1  0.75687458  0.24798277  0.69159822  1
  Se  Se255  1  0.74366209  0.58071978  0.20380813  1
  Se  Se256  1  0.75451875  0.58846319  0.68766730  1
  Se  Se257  1  0.75871105  0.88511803  0.18649254  1
  Se  Se258  1  0.74283937  0.92198976  0.69034446  1
