# generated using pymatgen
data_In86Cu29Se144
_symmetry_space_group_name_H-M   'P 1'
_cell_length_a   17.58280716
_cell_length_b   17.58169909
_cell_length_c   23.44335427
_cell_angle_alpha   90.00857073
_cell_angle_beta   90.01625449
_cell_angle_gamma   90.00284668
_symmetry_Int_Tables_number   1
_chemical_formula_structural   In86Cu29Se144
_chemical_formula_sum   'In86 Cu29 Se144'
_cell_volume   7247.17558145
_cell_formula_units_Z   1
loop_
 _symmetry_equiv_pos_site_id
 _symmetry_equiv_pos_as_xyz
  1  'x, y, z'
loop_
 _atom_site_type_symbol
 _atom_site_label
 _atom_site_symmetry_multiplicity
 _atom_site_fract_x
 _atom_site_fract_y
 _atom_site_fract_z
 _atom_site_occupancy
  In  In0  1  -0.01385195  0.15782163  0.11427869  1
  In  In1  1  -0.01272070  0.17034915  0.62539813  1
  In  In2  1  -0.00707039  0.50536534  0.12152016  1
  In  In3  1  0.00399688  0.50120480  0.61525759  1
  In  In4  1  -0.00000704  0.83981949  0.12525075  1
  In  In5  1  0.00656529  0.84007139  0.62110973  1
  In  In6  1  0.33079631  0.17186398  0.14075046  1
  In  In7  1  0.34303518  0.14791984  0.61526871  1
  In  In8  1  0.33044111  0.50376988  0.16063930  1
  In  In9  1  0.34517924  0.51170861  0.61352490  1
  In  In10  1  0.34482530  0.82758339  0.13372961  1
  In  In11  1  0.32342506  0.83375756  0.61297872  1
  In  In12  1  0.66796546  0.13669315  0.12788540  1
  In  In13  1  0.66678218  0.16226649  0.62386942  1
  In  In14  1  0.67478177  0.49138981  0.12515076  1
  In  In15  1  0.65479671  0.48867842  0.61733370  1
  In  In16  1  0.67296557  0.84960282  0.11557879  1
  In  In17  1  0.67856702  0.84315201  0.61813151  1
  In  In18  1  0.15965276  -0.00850657  0.36934622  1
  In  In19  1  0.16540552  0.01307632  0.88067731  1
  In  In20  1  0.18191454  0.34037056  0.36829743  1
  In  In21  1  0.15104605  0.33177482  0.87995776  1
  In  In22  1  0.18442905  0.65821720  0.37735614  1
  In  In23  1  0.17109570  0.66261700  0.86917108  1
  In  In24  1  0.50303957  0.00070962  0.37124197  1
  In  In25  1  0.50094311  -0.01262747  0.87617534  1
  In  In26  1  0.48825495  0.34206679  0.38055841  1
  In  In27  1  0.50439721  0.31705930  0.87245575  1
  In  In28  1  0.49399777  0.66961986  0.37598545  1
  In  In29  1  0.50141767  0.68290550  0.87146764  1
  In  In30  1  0.83187669  0.00118332  0.37455568  1
  In  In31  1  0.82934433  0.00057048  0.87159098  1
  In  In32  1  0.82912872  0.33588412  0.38153593  1
  In  In33  1  0.82796368  0.33846924  0.87963398  1
  In  In34  1  0.83137723  0.66952630  0.38543229  1
  In  In35  1  0.83164045  0.67153560  0.88769859  1
  In  In36  1  0.00056870  0.15221596  0.37462678  1
  In  In37  1  0.00593960  0.16224142  0.88436427  1
  In  In38  1  0.00045831  0.50508333  0.38136235  1
  In  In39  1  -0.00467614  0.50056234  0.87805724  1
  In  In40  1  -0.00689676  0.84193400  0.37989552  1
  In  In41  1  -0.03284788  0.84008925  0.88355394  1
  In  In42  1  0.34749928  0.16850536  0.36616737  1
  In  In43  1  0.33409556  0.15608973  0.88307764  1
  In  In44  1  0.33483320  0.50054590  0.36884615  1
  In  In45  1  0.32309037  0.50802246  0.87205958  1
  In  In46  1  0.33957286  0.83646764  0.37483073  1
  In  In47  1  0.34452046  0.83303115  0.87399489  1
  In  In48  1  0.67592084  0.16055689  0.37801376  1
  In  In49  1  0.67154138  0.17002286  0.86827338  1
  In  In50  1  0.66323054  0.50061876  0.38422283  1
  In  In51  1  0.67750226  0.49577482  0.87177982  1
  In  In52  1  0.65308653  0.84745455  0.38467533  1
  In  In53  1  0.66217416  0.84278410  0.88058964  1
  In  In54  1  0.15360208  0.00606815  0.13639657  1
  In  In55  1  0.16830105  -0.00958557  0.62290005  1
  In  In56  1  0.17808304  0.33414092  0.12938516  1
  In  In57  1  0.15544044  0.33500143  0.61851582  1
  In  In58  1  0.17290208  0.66895138  0.13137544  1
  In  In59  1  0.17973567  0.67734252  0.61668257  1
  In  In60  1  0.51347946  -0.00560336  0.14489089  1
  In  In61  1  0.50625687  0.00901850  0.60725640  1
  In  In62  1  0.49156019  0.32483571  0.13321993  1
  In  In63  1  0.50833922  0.33641600  0.61752776  1
  In  In64  1  0.48723655  0.67179917  0.12873675  1
  In  In65  1  0.49213456  0.66399365  0.61744797  1
  In  In66  1  0.83346953  0.00171165  0.12278631  1
  In  In67  1  0.83166987  0.00096160  0.62656916  1
  In  In68  1  0.83681515  0.33068813  0.11081858  1
  In  In69  1  0.82206832  0.31979269  0.61679910  1
  In  In70  1  0.83305593  0.67037004  0.11166814  1
  In  In71  1  0.83674404  0.66822585  0.61699162  1
  In  In72  1  0.66642946  0.66369769  0.74662587  1
  In  In73  1  0.50668231  0.15751270  0.00864361  1
  In  In74  1  0.16929849  0.16923518  0.48999169  1
  In  In75  1  0.16376331  0.49721944  0.00675043  1
  In  In76  1  0.16450052  0.83144177  0.01220449  1
  In  In77  1  -0.00748146  0.33503132  0.75833951  1
  In  In78  1  0.65986252  0.32725506  0.24462264  1
  In  In79  1  0.33520677  0.33618411  0.74602250  1
  In  In80  1  0.00071656  0.67275829  0.75861599  1
  In  In81  1  0.66210690  0.67345519  0.26028134  1
  In  In82  1  0.49776344  0.49993882  0.01116550  1
  In  In83  1  0.00495485  0.67071004  0.24504965  1
  In  In84  1  0.33708194  -0.00376361  0.74487539  1
  In  In85  1  0.00278496  0.32773661  0.25336160  1
  Cu  Cu86  1  0.32864378  0.32978560  0.01232363  1
  Cu  Cu87  1  0.17328360  0.82914051  0.25286658  1
  Cu  Cu88  1  0.66681598  0.33303397  -0.00003991  1
  Cu  Cu89  1  -0.00739403  -0.00363109  0.00167279  1
  Cu  Cu90  1  0.83082861  0.50270398  0.24964571  1
  Cu  Cu91  1  0.66786961  0.66332743  0.50204077  1
  Cu  Cu92  1  0.50298021  0.83557345  0.25608368  1
  Cu  Cu93  1  0.50012936  0.83297901  0.74763522  1
  Cu  Cu94  1  0.66135473  0.67225833  -0.00520015  1
  Cu  Cu95  1  0.16459954  0.16654161  0.75867040  1
  Cu  Cu96  1  0.33182214  0.66712507  0.49329609  1
  Cu  Cu97  1  0.33271007  0.00132561  0.00655246  1
  Cu  Cu98  1  0.82947223  0.84039683  0.75028535  1
  Cu  Cu99  1  0.33389756  0.33596627  0.49327310  1
  Cu  Cu100  1  0.50931873  0.16391770  0.74373542  1
  Cu  Cu101  1  0.17435491  0.51219245  0.74268869  1
  Cu  Cu102  1  0.83083320  0.15634549  0.24639979  1
  Cu  Cu103  1  0.82837441  0.15769871  0.74699818  1
  Cu  Cu104  1  0.33477073  0.66771319  0.00628779  1
  Cu  Cu105  1  0.49914883  0.49786776  0.74039694  1
  Cu  Cu106  1  0.66394140  0.32604881  0.49885576  1
  Cu  Cu107  1  0.16656625  0.83504622  0.74431603  1
  Cu  Cu108  1  0.82970013  0.49018316  0.74740979  1
  Cu  Cu109  1  0.67234679  -0.00014531  0.49854637  1
  Cu  Cu110  1  0.82898543  0.84729338  0.25088386  1
  Cu  Cu111  1  0.16228026  0.15823237  0.25199425  1
  Cu  Cu112  1  -0.00190333  0.34021574  0.49684787  1
  Cu  Cu113  1  0.00610301  0.67357240  0.49951748  1
  Cu  Cu114  1  -0.00659947  0.00286390  0.50023240  1
  Se  Se115  1  0.08177706  0.07448531  0.05459101  1
  Se  Se116  1  0.07881706  0.08546743  0.55767683  1
  Se  Se117  1  0.07536328  0.40375771  0.06284881  1
  Se  Se118  1  0.08794985  0.42110495  0.54544141  1
  Se  Se119  1  0.07301439  0.73340622  0.06284449  1
  Se  Se120  1  0.08921682  0.75760972  0.55306728  1
  Se  Se121  1  0.41119035  0.07848452  0.07011672  1
  Se  Se122  1  0.41090907  0.07334586  0.53811208  1
  Se  Se123  1  0.40104756  0.41717587  0.07062502  1
  Se  Se124  1  0.41862752  0.41466299  0.55150530  1
  Se  Se125  1  0.41895737  0.75577145  0.05307469  1
  Se  Se126  1  0.41330505  0.75053703  0.54968912  1
  Se  Se127  1  0.75942111  0.09015413  0.05210131  1
  Se  Se128  1  0.75349641  0.08391140  0.55453265  1
  Se  Se129  1  0.75169524  0.42052298  0.04838911  1
  Se  Se130  1  0.74751248  0.41336191  0.55137238  1
  Se  Se131  1  0.74565399  0.75507322  0.04935642  1
  Se  Se132  1  0.75217721  0.75039229  0.55108922  1
  Se  Se133  1  0.24918659  0.24083880  0.06156116  1
  Se  Se134  1  0.25786183  0.25520595  0.55847132  1
  Se  Se135  1  0.26330387  0.58074816  0.06612884  1
  Se  Se136  1  0.24862928  0.58293733  0.54862875  1
  Se  Se137  1  0.25509119  0.92222732  0.06938395  1
  Se  Se138  1  0.25883781  0.93513027  0.54920316  1
  Se  Se139  1  0.59224093  0.25680710  0.06565608  1
  Se  Se140  1  0.58146829  0.24161740  0.55298139  1
  Se  Se141  1  0.59203904  0.59414259  0.06419720  1
  Se  Se142  1  0.57961235  0.58124480  0.55236744  1
  Se  Se143  1  0.58052705  0.93568104  0.05828610  1
  Se  Se144  1  0.58718441  0.91271200  0.54812691  1
  Se  Se145  1  0.91786324  0.24818495  0.04504074  1
  Se  Se146  1  0.91927476  0.25200042  0.54938694  1
  Se  Se147  1  0.90815066  0.57526699  0.05064488  1
  Se  Se148  1  0.92138084  0.58665978  0.54997825  1
  Se  Se149  1  0.91252006  0.91080479  0.05476728  1
  Se  Se150  1  0.91451331  0.91767841  0.55675538  1
  Se  Se151  1  0.07611067  0.26191561  0.43247759  1
  Se  Se152  1  0.09342737  0.24089841  0.95147207  1
  Se  Se153  1  0.08688584  0.58938485  0.44490376  1
  Se  Se154  1  0.08235918  0.59135861  0.94266012  1
  Se  Se155  1  0.08041950  0.92190390  0.44814500  1
  Se  Se156  1  0.07888288  0.91687693  0.94324081  1
  Se  Se157  1  0.41562812  0.24566528  0.44673884  1
  Se  Se158  1  0.41217656  0.25476156  0.95003591  1
  Se  Se159  1  0.41549318  0.58064805  0.44299854  1
  Se  Se160  1  0.41371458  0.58858626  0.94234381  1
  Se  Se161  1  0.44259431  0.89931602  0.43830541  1
  Se  Se162  1  0.41104576  0.91982086  0.94823651  1
  Se  Se163  1  0.75362136  0.24658527  0.44857032  1
  Se  Se164  1  0.74546262  0.24900994  0.94380850  1
  Se  Se165  1  0.75248069  0.57899750  0.45005621  1
  Se  Se166  1  0.74256151  0.58216351  0.94602677  1
  Se  Se167  1  0.75631888  0.91476226  0.44645152  1
  Se  Se168  1  0.77069587  0.89884488  0.93958064  1
  Se  Se169  1  0.25507113  0.07903579  0.43082671  1
  Se  Se170  1  0.24880045  0.08484559  0.95503453  1
  Se  Se171  1  0.25096874  0.42181684  0.44384155  1
  Se  Se172  1  0.25803648  0.40906801  0.94357592  1
  Se  Se173  1  0.25072569  0.75644849  0.44356525  1
  Se  Se174  1  0.25414953  0.74564616  0.94442864  1
  Se  Se175  1  0.58747977  0.08037592  0.44399764  1
  Se  Se176  1  0.59046428  0.07707598  0.93846344  1
  Se  Se177  1  0.58104326  0.41409234  0.44921431  1
  Se  Se178  1  0.58153233  0.41145261  0.94237653  1
  Se  Se179  1  0.58596961  0.74275598  0.44425045  1
  Se  Se180  1  0.57632599  0.75772299  0.94684821  1
  Se  Se181  1  0.91140417  0.08673803  0.44689254  1
  Se  Se182  1  0.91352325  0.07945451  0.94404587  1
  Se  Se183  1  0.91217241  0.42344189  0.44596521  1
  Se  Se184  1  0.93200255  0.40194125  0.94131261  1
  Se  Se185  1  0.91707750  0.75427814  0.44934126  1
  Se  Se186  1  0.93109003  0.73417814  0.95253799  1
  Se  Se187  1  0.24646047  0.24125453  0.30386303  1
  Se  Se188  1  0.24966550  0.24697116  0.81332120  1
  Se  Se189  1  0.25292112  0.58378420  0.29902248  1
  Se  Se190  1  0.25820147  0.59326187  0.79606919  1
  Se  Se191  1  0.25372284  0.91632446  0.30448612  1
  Se  Se192  1  0.24413387  0.91486015  0.81073707  1
  Se  Se193  1  0.58156377  0.25058142  0.31825633  1
  Se  Se194  1  0.58743972  0.25121136  0.79732365  1
  Se  Se195  1  0.57613048  0.57165231  0.30948086  1
  Se  Se196  1  0.57462589  0.57499150  0.80882341  1
  Se  Se197  1  0.59230475  0.92058218  0.30071713  1
  Se  Se198  1  0.58327766  0.91395104  0.80244463  1
  Se  Se199  1  0.90415988  0.24094367  0.30898583  1
  Se  Se200  1  0.90650477  0.23662206  0.81137251  1
  Se  Se201  1  0.91001213  0.58455019  0.30780076  1
  Se  Se202  1  0.90241137  0.57680752  0.80755664  1
  Se  Se203  1  0.91956626  0.92221309  0.30441156  1
  Se  Se204  1  0.91815096  0.92142496  0.80060209  1
  Se  Se205  1  0.07530058  0.07455770  0.30025735  1
  Se  Se206  1  0.07977585  0.08201622  0.80706194  1
  Se  Se207  1  0.08626616  0.42793719  0.30748572  1
  Se  Se208  1  0.09462545  0.43228952  0.80446120  1
  Se  Se209  1  0.08780904  0.75396420  0.31399236  1
  Se  Se210  1  0.08844988  0.76765185  0.81534983  1
  Se  Se211  1  0.42656732  0.08321735  0.29851225  1
  Se  Se212  1  0.42577557  0.09005158  0.80693255  1
  Se  Se213  1  0.40915175  0.40688003  0.30183889  1
  Se  Se214  1  0.42430445  0.42335016  0.81128550  1
  Se  Se215  1  0.41705116  0.74916153  0.30250904  1
  Se  Se216  1  0.41359111  0.75004068  0.79784398  1
  Se  Se217  1  0.74640494  0.07806001  0.30198076  1
  Se  Se218  1  0.74275682  0.07691664  0.80026223  1
  Se  Se219  1  0.74994912  0.42119141  0.30658744  1
  Se  Se220  1  0.74734810  0.40751467  0.80065257  1
  Se  Se221  1  0.75738293  0.76339100  0.31446713  1
  Se  Se222  1  0.75540204  0.75104987  0.80862013  1
  Se  Se223  1  0.25043361  0.07588450  0.20169677  1
  Se  Se224  1  0.24341501  0.09332719  0.69207283  1
  Se  Se225  1  0.24331084  0.40752839  0.20949021  1
  Se  Se226  1  0.24511475  0.42329328  0.68400779  1
  Se  Se227  1  0.25659144  0.74584445  0.20035286  1
  Se  Se228  1  0.25370791  0.75586988  0.69294248  1
  Se  Se229  1  0.56263089  0.11258463  0.20041822  1
  Se  Se230  1  0.58234244  0.07395858  0.68929645  1
  Se  Se231  1  0.57317044  0.42897298  0.19232360  1
  Se  Se232  1  0.58420864  0.41061458  0.69568739  1
  Se  Se233  1  0.58381973  0.76062636  0.18977416  1
  Se  Se234  1  0.58085729  0.75489784  0.68524319  1
  Se  Se235  1  0.92066137  0.07908442  0.19410623  1
  Se  Se236  1  0.91958286  0.08119119  0.69614231  1
  Se  Se237  1  0.90834570  0.41741638  0.19267254  1
  Se  Se238  1  0.91358695  0.41807760  0.68530318  1
  Se  Se239  1  0.90246128  0.75742384  0.19258295  1
  Se  Se240  1  0.91057136  0.75627381  0.69297354  1
  Se  Se241  1  0.08410745  0.23763589  0.18846203  1
  Se  Se242  1  0.08772718  0.24782165  0.69684245  1
  Se  Se243  1  0.09108311  0.56950335  0.19283290  1
  Se  Se244  1  0.08490143  0.58831091  0.68821185  1
  Se  Se245  1  0.08276498  0.90721656  0.20087150  1
  Se  Se246  1  0.08211859  0.92053091  0.69618021  1
  Se  Se247  1  0.40918785  0.25991388  0.20827424  1
  Se  Se248  1  0.42001971  0.23965342  0.68732921  1
  Se  Se249  1  0.42641809  0.59248492  0.20758728  1
  Se  Se250  1  0.41593138  0.58529856  0.69373382  1
  Se  Se251  1  0.41517633  0.91770621  0.20432075  1
  Se  Se252  1  0.42527463  0.91180980  0.68227463  1
  Se  Se253  1  0.75823404  0.24398911  0.18604941  1
  Se  Se254  1  0.74869731  0.24643539  0.69471872  1
  Se  Se255  1  0.75352625  0.58814383  0.19257238  1
  Se  Se256  1  0.75559295  0.57434663  0.68550898  1
  Se  Se257  1  0.74558328  0.92516869  0.19415928  1
  Se  Se258  1  0.74533387  0.92136574  0.69711735  1
