# generated using pymatgen
data_In86Cu29Se144
_symmetry_space_group_name_H-M   'P 1'
_cell_length_a   17.59259357
_cell_length_b   17.59652634
_cell_length_c   23.45971163
_cell_angle_alpha   90.01046193
_cell_angle_beta   89.95572341
_cell_angle_gamma   89.99155548
_symmetry_Int_Tables_number   1
_chemical_formula_structural   In86Cu29Se144
_chemical_formula_sum   'In86 Cu29 Se144'
_cell_volume   7262.38621554
_cell_formula_units_Z   1
loop_
 _symmetry_equiv_pos_site_id
 _symmetry_equiv_pos_as_xyz
  1  'x, y, z'
loop_
 _atom_site_type_symbol
 _atom_site_label
 _atom_site_symmetry_multiplicity
 _atom_site_fract_x
 _atom_site_fract_y
 _atom_site_fract_z
 _atom_site_occupancy
  In  In0  1  0.00296266  0.18018055  0.12307503  1
  In  In1  1  -0.01077972  0.17009164  0.63586721  1
  In  In2  1  -0.00462081  0.50275376  0.12060646  1
  In  In3  1  -0.01755292  0.52035159  0.63912298  1
  In  In4  1  -0.01916812  0.82257048  0.11004603  1
  In  In5  1  -0.00348601  0.82252728  0.62768275  1
  In  In6  1  0.31980712  0.15970909  0.12548013  1
  In  In7  1  0.34380796  0.17000812  0.62833985  1
  In  In8  1  0.32117604  0.51076362  0.11978251  1
  In  In9  1  0.32328538  0.50847272  0.63634145  1
  In  In10  1  0.33289859  0.83562383  0.12250733  1
  In  In11  1  0.31941911  0.82819461  0.62301729  1
  In  In12  1  0.67603304  0.15419697  0.13323186  1
  In  In13  1  0.67360801  0.16661085  0.63002734  1
  In  In14  1  0.67369610  0.49022940  0.13056845  1
  In  In15  1  0.68370392  0.48543252  0.62746673  1
  In  In16  1  0.67270473  0.82962232  0.13048864  1
  In  In17  1  0.71494842  0.79684256  0.66217894  1
  In  In18  1  0.16266393  -0.02053460  0.37110214  1
  In  In19  1  0.13797247  -0.00616857  0.87714803  1
  In  In20  1  0.16270655  0.34928441  0.37254599  1
  In  In21  1  0.17012794  0.34021377  0.86786788  1
  In  In22  1  0.16351417  0.68286201  0.37886952  1
  In  In23  1  0.16134977  0.67073982  0.87814963  1
  In  In24  1  0.50785911  0.01141561  0.36039014  1
  In  In25  1  0.50785323  -0.01027962  0.87756451  1
  In  In26  1  0.51492384  0.32947106  0.37599085  1
  In  In27  1  0.50395534  0.34260862  0.86901637  1
  In  In28  1  0.50752468  0.65434081  0.37667434  1
  In  In29  1  0.50532247  0.67058599  0.86842784  1
  In  In30  1  0.82600263  -0.00387446  0.37518082  1
  In  In31  1  0.84074287  -0.00122991  0.87933275  1
  In  In32  1  0.83420970  0.33624975  0.36643765  1
  In  In33  1  0.83760533  0.33570441  0.87430540  1
  In  In34  1  0.83568993  0.67111949  0.37309163  1
  In  In35  1  0.83187169  0.66928538  0.87235964  1
  In  In36  1  -0.01334063  0.17296794  0.37217036  1
  In  In37  1  -0.01537551  0.15499735  0.87005963  1
  In  In38  1  -0.00985313  0.49762167  0.36731900  1
  In  In39  1  -0.00160888  0.50293672  0.87342132  1
  In  In40  1  0.00556771  0.82247948  0.38637663  1
  In  In41  1  -0.00700707  0.83688735  0.87579512  1
  In  In42  1  0.35697905  0.16337183  0.37061356  1
  In  In43  1  0.32230701  0.17353934  0.87509983  1
  In  In44  1  0.32688682  0.50894494  0.38000495  1
  In  In45  1  0.32942283  0.50318789  0.87194497  1
  In  In46  1  0.31839395  0.83441991  0.37389372  1
  In  In47  1  0.31960049  0.81475942  0.87139190  1
  In  In48  1  0.66921266  0.16775298  0.36328381  1
  In  In49  1  0.67869685  0.18146203  0.87042434  1
  In  In50  1  0.67975374  0.50611512  0.36942267  1
  In  In51  1  0.68064746  0.51090268  0.86687973  1
  In  In52  1  0.68078933  0.83782767  0.37294504  1
  In  In53  1  0.68992367  0.85060515  0.85546312  1
  In  In54  1  0.16995092  -0.00072877  0.12457760  1
  In  In55  1  0.16464773  -0.02298156  0.62547407  1
  In  In56  1  0.15065757  0.33418605  0.12276794  1
  In  In57  1  0.15596396  0.34449314  0.63659360  1
  In  In58  1  0.15596685  0.65089932  0.10919173  1
  In  In59  1  0.15783592  0.67876785  0.63281911  1
  In  In60  1  0.50335002  -0.00166360  0.13714427  1
  In  In61  1  0.50964176  0.00614064  0.62502867  1
  In  In62  1  0.50607433  0.34132103  0.12613836  1
  In  In63  1  0.50796121  0.32721403  0.63245450  1
  In  In64  1  0.50351050  0.67501018  0.12790020  1
  In  In65  1  0.50166576  0.66729718  0.63207539  1
  In  In66  1  0.82526056  -0.01314071  0.11292046  1
  In  In67  1  0.85383933  -0.02663721  0.64983031  1
  In  In68  1  0.83597710  0.33633795  0.12181355  1
  In  In69  1  0.82694079  0.34641105  0.63068585  1
  In  In70  1  0.83200528  0.66624195  0.12232848  1
  In  In71  1  0.84021978  0.65913381  0.62110050  1
  In  In72  1  0.15941779  0.16657695  -0.00219204  1
  In  In73  1  0.33485049  0.00479561  0.74914304  1
  In  In74  1  0.16622826  0.16056535  0.50199804  1
  In  In75  1  0.15113060  0.51533165  0.51263445  1
  In  In76  1  0.50645547  0.50401848  -0.00670440  1
  In  In77  1  0.50347720  0.16422485  0.01158241  1
  In  In78  1  0.33857771  0.32690841  0.24916930  1
  In  In79  1  0.50419223  0.82678662  0.00302399  1
  In  In80  1  0.33571096  0.66958621  0.25170282  1
  In  In81  1  -0.00147039  -0.00036837  0.24552537  1
  In  In82  1  0.50176798  0.50225952  0.49888466  1
  In  In83  1  0.50661932  0.16763585  0.50241235  1
  In  In84  1  0.82928348  0.16047020  0.49588841  1
  In  In85  1  0.50482312  0.83893071  0.50263641  1
  Cu  Cu86  1  0.67438688  -0.00460426  0.50441078  1
  Cu  Cu87  1  -0.00584306  0.66420082  -0.00616352  1
  Cu  Cu88  1  0.00357716  -0.01209792  0.50802283  1
  Cu  Cu89  1  0.50131526  0.17409474  0.75217270  1
  Cu  Cu90  1  0.16204360  0.82675401  0.24767345  1
  Cu  Cu91  1  -0.00957126  0.33686726  0.49540303  1
  Cu  Cu92  1  0.50158510  0.83497205  0.75180214  1
  Cu  Cu93  1  0.32436937  -0.01298771  -0.00013789  1
  Cu  Cu94  1  0.67576509  0.66434781  0.50310991  1
  Cu  Cu95  1  0.16078278  0.82836462  0.75267080  1
  Cu  Cu96  1  0.83354777  0.50195530  0.24542753  1
  Cu  Cu97  1  0.83586725  0.49828829  0.75294758  1
  Cu  Cu98  1  0.83465224  0.17138428  0.24549092  1
  Cu  Cu99  1  0.83348256  0.83049359  0.24622952  1
  Cu  Cu100  1  0.32949393  -0.00660054  0.49128237  1
  Cu  Cu101  1  0.50949812  0.83428680  0.25172503  1
  Cu  Cu102  1  0.83229861  0.16603429  0.75459409  1
  Cu  Cu103  1  0.67412022  0.00327947  -0.00161658  1
  Cu  Cu104  1  0.16845616  0.16576343  0.24831408  1
  Cu  Cu105  1  0.16542755  0.50407356  0.75539552  1
  Cu  Cu106  1  0.15400297  0.50135008  0.24455887  1
  Cu  Cu107  1  0.50654616  0.49548519  0.25353308  1
  Cu  Cu108  1  0.16440310  0.16975475  0.75246055  1
  Cu  Cu109  1  0.33328518  0.33906632  -0.00855166  1
  Cu  Cu110  1  0.68526533  0.33450523  -0.00012517  1
  Cu  Cu111  1  0.49682353  0.49776004  0.74888775  1
  Cu  Cu112  1  0.33084490  0.34087051  0.50954989  1
  Cu  Cu113  1  -0.00125726  0.34031196  -0.00342496  1
  Cu  Cu114  1  0.67375728  0.67151986  -0.00294841  1
  Se  Se115  1  0.07377703  0.07612372  0.05867459  1
  Se  Se116  1  0.07490319  0.07744885  0.56591260  1
  Se  Se117  1  0.08323084  0.42131556  0.05098580  1
  Se  Se118  1  0.06686338  0.41104971  0.56134782  1
  Se  Se119  1  0.07780068  0.74638999  0.04847380  1
  Se  Se120  1  0.08243180  0.74864362  0.55611380  1
  Se  Se121  1  0.40517616  0.06759825  0.05934782  1
  Se  Se122  1  0.40701884  0.07290806  0.55366566  1
  Se  Se123  1  0.41258578  0.41415399  0.05588552  1
  Se  Se124  1  0.41455861  0.41700012  0.56711755  1
  Se  Se125  1  0.40698371  0.73577563  0.05555607  1
  Se  Se126  1  0.41515047  0.74592319  0.55918368  1
  Se  Se127  1  0.75278185  0.08973474  0.05235869  1
  Se  Se128  1  0.75509962  0.07227413  0.56609530  1
  Se  Se129  1  0.75770276  0.42618947  0.05322243  1
  Se  Se130  1  0.75809310  0.41498884  0.54928228  1
  Se  Se131  1  0.75136024  0.75624832  0.05465389  1
  Se  Se132  1  0.75060956  0.75049930  0.56027055  1
  Se  Se133  1  0.25498902  0.25971273  0.05522459  1
  Se  Se134  1  0.25010479  0.25633895  0.56418585  1
  Se  Se135  1  0.25066572  0.58143583  0.04229651  1
  Se  Se136  1  0.25523340  0.59713477  0.56237412  1
  Se  Se137  1  0.24113822  0.90830463  0.05467809  1
  Se  Se138  1  0.24962921  0.91336370  0.54870099  1
  Se  Se139  1  0.59844550  0.26039461  0.05983924  1
  Se  Se140  1  0.59872087  0.25914357  0.55644622  1
  Se  Se141  1  0.59221549  0.59224020  0.05842857  1
  Se  Se142  1  0.59227954  0.58723391  0.56204405  1
  Se  Se143  1  0.58952245  0.92598849  0.05911583  1
  Se  Se144  1  0.59748675  0.91634242  0.56603593  1
  Se  Se145  1  0.91948910  0.25426156  0.05112285  1
  Se  Se146  1  0.91806961  0.25121604  0.55668090  1
  Se  Se147  1  0.91150076  0.58320503  0.05124201  1
  Se  Se148  1  0.92149035  0.57768536  0.55106435  1
  Se  Se149  1  0.91970332  0.92334453  0.04485050  1
  Se  Se150  1  0.91374433  0.91227758  0.56029451  1
  Se  Se151  1  0.07845714  0.25713125  0.44156844  1
  Se  Se152  1  0.07595156  0.25677974  0.93497050  1
  Se  Se153  1  0.07189331  0.58962459  0.43685243  1
  Se  Se154  1  0.08177598  0.58065614  0.94498934  1
  Se  Se155  1  0.08894534  0.91141634  0.45102934  1
  Se  Se156  1  0.08278928  0.90370656  0.95040398  1
  Se  Se157  1  0.41059451  0.26283462  0.44715596  1
  Se  Se158  1  0.41810637  0.25276645  0.94271726  1
  Se  Se159  1  0.40479371  0.59765413  0.44869482  1
  Se  Se160  1  0.41374966  0.59487144  0.93983571  1
  Se  Se161  1  0.42020066  0.92395010  0.43293927  1
  Se  Se162  1  0.40958601  0.91353096  0.94026775  1
  Se  Se163  1  0.74336126  0.25364689  0.43701367  1
  Se  Se164  1  0.76246382  0.24694768  0.94671146  1
  Se  Se165  1  0.75477216  0.58480303  0.44354639  1
  Se  Se166  1  0.75353748  0.58323520  0.94537034  1
  Se  Se167  1  0.75660615  0.91273173  0.45029798  1
  Se  Se168  1  0.74944914  0.91390673  0.94441087  1
  Se  Se169  1  0.25469362  0.08016178  0.43324691  1
  Se  Se170  1  0.25183308  0.07230857  0.93938292  1
  Se  Se171  1  0.24833289  0.41848799  0.45118341  1
  Se  Se172  1  0.24725537  0.41993953  0.94173994  1
  Se  Se173  1  0.25743796  0.74630317  0.44720059  1
  Se  Se174  1  0.24129960  0.75327390  0.94959287  1
  Se  Se175  1  0.59570516  0.07538873  0.44275356  1
  Se  Se176  1  0.58968049  0.08287337  0.94182266  1
  Se  Se177  1  0.59638882  0.41509124  0.44278102  1
  Se  Se178  1  0.60000869  0.41055571  0.94055796  1
  Se  Se179  1  0.59269859  0.74317200  0.44260892  1
  Se  Se180  1  0.59723062  0.75290796  0.93534689  1
  Se  Se181  1  0.93043018  0.06909301  0.44289241  1
  Se  Se182  1  0.91977585  0.08178994  0.95016575  1
  Se  Se183  1  0.91035832  0.41767867  0.43971170  1
  Se  Se184  1  0.91385208  0.42283071  0.94421446  1
  Se  Se185  1  0.89732297  0.76596432  0.44508831  1
  Se  Se186  1  0.91001930  0.75051996  0.94459769  1
  Se  Se187  1  0.24516428  0.24401861  0.31463290  1
  Se  Se188  1  0.25245055  0.25291936  0.79982663  1
  Se  Se189  1  0.23695669  0.57832436  0.30607195  1
  Se  Se190  1  0.24724987  0.59039804  0.80691907  1
  Se  Se191  1  0.24791321  0.91230947  0.29591078  1
  Se  Se192  1  0.24189565  0.91751598  0.80831699  1
  Se  Se193  1  0.56428609  0.23368967  0.30394848  1
  Se  Se194  1  0.58663682  0.25650776  0.80414136  1
  Se  Se195  1  0.58831020  0.58425465  0.30209048  1
  Se  Se196  1  0.58136640  0.57935633  0.80285943  1
  Se  Se197  1  0.59329105  0.91717962  0.30463626  1
  Se  Se198  1  0.58437085  0.92400099  0.79857383  1
  Se  Se199  1  0.91936120  0.25458222  0.29709013  1
  Se  Se200  1  0.91832647  0.25254823  0.80345800  1
  Se  Se201  1  0.91376729  0.58707724  0.30037626  1
  Se  Se202  1  0.91709707  0.58609757  0.80372880  1
  Se  Se203  1  0.91442956  0.90920364  0.30861685  1
  Se  Se204  1  0.90607825  0.91064413  0.80483685  1
  Se  Se205  1  0.08743365  0.08880016  0.31157692  1
  Se  Se206  1  0.08076162  0.08401505  0.80200939  1
  Se  Se207  1  0.07657626  0.41451342  0.29912702  1
  Se  Se208  1  0.07936234  0.41807092  0.80295102  1
  Se  Se209  1  0.07781615  0.75071359  0.30479919  1
  Se  Se210  1  0.07647784  0.74948468  0.80782627  1
  Se  Se211  1  0.40697139  0.07259777  0.29529746  1
  Se  Se212  1  0.42469844  0.09143334  0.81425774  1
  Se  Se213  1  0.41869789  0.42469922  0.31429426  1
  Se  Se214  1  0.41220753  0.41773261  0.80436652  1
  Se  Se215  1  0.42770505  0.75705319  0.31395260  1
  Se  Se216  1  0.41671630  0.75208311  0.80301918  1
  Se  Se217  1  0.75875255  0.08396783  0.30192182  1
  Se  Se218  1  0.75253547  0.08239913  0.81052929  1
  Se  Se219  1  0.74899626  0.41606964  0.29762997  1
  Se  Se220  1  0.75068142  0.41255209  0.80289603  1
  Se  Se221  1  0.74906759  0.74818131  0.30103480  1
  Se  Se222  1  0.73823424  0.73455591  0.80028322  1
  Se  Se223  1  0.24806535  0.07723972  0.19924287  1
  Se  Se224  1  0.23983929  0.08902420  0.68698219  1
  Se  Se225  1  0.24528481  0.42079468  0.19231030  1
  Se  Se226  1  0.24867309  0.41737516  0.70276305  1
  Se  Se227  1  0.24195168  0.74604101  0.18662984  1
  Se  Se228  1  0.25220473  0.75029855  0.70172457  1
  Se  Se229  1  0.58362657  0.08457479  0.20029299  1
  Se  Se230  1  0.58131120  0.09075021  0.69685717  1
  Se  Se231  1  0.58794587  0.41118281  0.20066613  1
  Se  Se232  1  0.58563678  0.41896523  0.69580682  1
  Se  Se233  1  0.58833060  0.74706417  0.19883454  1
  Se  Se234  1  0.58362784  0.74729792  0.70158072  1
  Se  Se235  1  0.91083076  0.08825291  0.18395768  1
  Se  Se236  1  0.92001384  0.08083854  0.70674629  1
  Se  Se237  1  0.91815851  0.41823412  0.19233567  1
  Se  Se238  1  0.92101845  0.41324783  0.70034643  1
  Se  Se239  1  0.91676076  0.74834827  0.19247320  1
  Se  Se240  1  0.89279514  0.76145986  0.69275726  1
  Se  Se241  1  0.08450112  0.25122669  0.19924755  1
  Se  Se242  1  0.07862593  0.25166947  0.69982396  1
  Se  Se243  1  0.07786941  0.58828055  0.19033366  1
  Se  Se244  1  0.08340386  0.58846887  0.70117856  1
  Se  Se245  1  0.08172124  0.90469728  0.18537668  1
  Se  Se246  1  0.07807332  0.91049911  0.69792496  1
  Se  Se247  1  0.42281464  0.23910446  0.18452317  1
  Se  Se248  1  0.41461177  0.25487162  0.70028416  1
  Se  Se249  1  0.42346631  0.57203162  0.19204820  1
  Se  Se250  1  0.41535848  0.58677072  0.69956754  1
  Se  Se251  1  0.41874038  0.90542568  0.19555495  1
  Se  Se252  1  0.42075887  0.91168760  0.68780884  1
  Se  Se253  1  0.75142324  0.25470753  0.19215982  1
  Se  Se254  1  0.75452526  0.25108585  0.69731206  1
  Se  Se255  1  0.74840342  0.58593325  0.19361126  1
  Se  Se256  1  0.75541476  0.57879958  0.69358885  1
  Se  Se257  1  0.75278636  0.92013101  0.19564456  1
  Se  Se258  1  0.72674078  0.93603787  0.69541989  1
