# generated using pymatgen
data_In86Cu29Se144
_symmetry_space_group_name_H-M   'P 1'
_cell_length_a   17.58086617
_cell_length_b   17.58185697
_cell_length_c   23.44497850
_cell_angle_alpha   90.00770505
_cell_angle_beta   90.00766565
_cell_angle_gamma   90.00307799
_symmetry_Int_Tables_number   1
_chemical_formula_structural   In86Cu29Se144
_chemical_formula_sum   'In86 Cu29 Se144'
_cell_volume   7246.94293005
_cell_formula_units_Z   1
loop_
 _symmetry_equiv_pos_site_id
 _symmetry_equiv_pos_as_xyz
  1  'x, y, z'
loop_
 _atom_site_type_symbol
 _atom_site_label
 _atom_site_symmetry_multiplicity
 _atom_site_fract_x
 _atom_site_fract_y
 _atom_site_fract_z
 _atom_site_occupancy
  In  In0  1  -0.00927403  0.15705320  0.11622413  1
  In  In1  1  -0.01043391  0.14785815  0.61910260  1
  In  In2  1  0.01082652  0.50459389  0.12420417  1
  In  In3  1  0.00561539  0.48812510  0.62049773  1
  In  In4  1  0.00939257  0.83684805  0.13969139  1
  In  In5  1  0.01631196  0.84758812  0.62468400  1
  In  In6  1  0.33325209  0.16415785  0.10724180  1
  In  In7  1  0.33187960  0.16504305  0.62963697  1
  In  In8  1  0.31856201  0.50266853  0.11395141  1
  In  In9  1  0.32254980  0.51338988  0.64247568  1
  In  In10  1  0.33037129  0.83770565  0.11679626  1
  In  In11  1  0.32866861  0.83265499  0.63170894  1
  In  In12  1  0.65911795  0.14196270  0.11103738  1
  In  In13  1  0.66090143  0.15285913  0.62051956  1
  In  In14  1  0.67695238  0.51077085  0.12067884  1
  In  In15  1  0.65938153  0.51148997  0.62658391  1
  In  In16  1  0.66793336  0.83435311  0.13187446  1
  In  In17  1  0.66599762  0.84296475  0.62377582  1
  In  In18  1  0.16423010  -0.00010289  0.37828581  1
  In  In19  1  0.16792948  -0.00534012  0.86666474  1
  In  In20  1  0.17002448  0.32985323  0.38286704  1
  In  In21  1  0.19774177  0.31502972  0.89401285  1
  In  In22  1  0.14652182  0.68147994  0.39235380  1
  In  In23  1  0.17918707  0.65971167  0.89286608  1
  In  In24  1  0.50623755  -0.01195991  0.38820169  1
  In  In25  1  0.50339576  0.00606820  0.87065040  1
  In  In26  1  0.48780463  0.32846215  0.37750471  1
  In  In27  1  0.46171288  0.31718643  0.86348636  1
  In  In28  1  0.51078793  0.67393143  0.37450350  1
  In  In29  1  0.49996480  0.66111016  0.85777055  1
  In  In30  1  0.83557407  -0.00064480  0.37786171  1
  In  In31  1  0.83629303  0.00003787  0.86640191  1
  In  In32  1  0.82514604  0.32666101  0.37848478  1
  In  In33  1  0.82375638  0.31874453  0.87375852  1
  In  In34  1  0.84548139  0.68197152  0.37162662  1
  In  In35  1  0.82459888  0.68393623  0.87099119  1
  In  In36  1  0.00835050  0.15366478  0.37943312  1
  In  In37  1  0.01233816  0.15561935  0.87928141  1
  In  In38  1  -0.00284749  0.51750555  0.37779528  1
  In  In39  1  0.01584658  0.51313522  0.87482688  1
  In  In40  1  -0.00084086  0.83206376  0.37805338  1
  In  In41  1  0.00975595  0.85811103  0.85673634  1
  In  In42  1  0.33564372  0.16194743  0.38900267  1
  In  In43  1  0.33342145  0.16180885  0.87194500  1
  In  In44  1  0.32511481  0.49270262  0.37627506  1
  In  In45  1  0.33150227  0.49986790  0.86726216  1
  In  In46  1  0.32667861  0.83904209  0.38883855  1
  In  In47  1  0.31076620  0.82359250  0.85470154  1
  In  In48  1  0.67986778  0.15202074  0.38719644  1
  In  In49  1  0.67043753  0.14779242  0.88838612  1
  In  In50  1  0.65567846  0.51455733  0.37720999  1
  In  In51  1  0.64666010  0.50634618  0.87208367  1
  In  In52  1  0.66961530  0.84037308  0.37784794  1
  In  In53  1  0.67378708  0.83669327  0.85958380  1
  In  In54  1  0.15615736  -0.00342577  0.11623083  1
  In  In55  1  0.16195606  -0.00574182  0.63199512  1
  In  In56  1  0.16912007  0.33079345  0.11019235  1
  In  In57  1  0.17653447  0.33706804  0.62462859  1
  In  In58  1  0.16254066  0.66632303  0.12015641  1
  In  In59  1  0.17842904  0.67646060  0.61981888  1
  In  In60  1  0.50247637  0.00352221  0.12325615  1
  In  In61  1  0.50064793  0.00180923  0.62697353  1
  In  In62  1  0.50754268  0.32472386  0.12223632  1
  In  In63  1  0.49429997  0.31850588  0.62592149  1
  In  In64  1  0.50684764  0.68037499  0.12221655  1
  In  In65  1  0.47838106  0.67990304  0.64118560  1
  In  In66  1  0.83348231  0.00124468  0.13149340  1
  In  In67  1  0.83099014  -0.00586085  0.62633893  1
  In  In68  1  0.84082518  0.32516794  0.12283492  1
  In  In69  1  0.84514977  0.32816040  0.62322763  1
  In  In70  1  0.83038694  0.68394465  0.13142725  1
  In  In71  1  0.81906760  0.68271851  0.62749997  1
  In  In72  1  0.83785966  0.49733445  0.49938363  1
  In  In73  1  0.66042612  0.32950272  0.75081770  1
  In  In74  1  0.67087699  0.33118813  0.25414505  1
  In  In75  1  0.33483379  0.33334908  0.24322741  1
  In  In76  1  0.33058879  -0.00133180  0.25551267  1
  In  In77  1  0.83865424  0.49394461  0.00095239  1
  In  In78  1  0.33315241  0.66704376  0.24334683  1
  In  In79  1  0.83856933  0.84104686  -0.00959497  1
  In  In80  1  0.49632142  0.83756024  -0.00559290  1
  In  In81  1  0.48930708  0.49027807  -0.01509563  1
  In  In82  1  0.00533279  0.67228817  0.74432263  1
  In  In83  1  0.00910819  0.33255729  0.74807060  1
  In  In84  1  0.49533902  0.49753724  0.49903360  1
  In  In85  1  0.00248634  0.33560054  0.24356274  1
  Cu  Cu86  1  0.15819184  0.51283890  0.25080563  1
  Cu  Cu87  1  0.16518292  0.16177713  0.75274970  1
  Cu  Cu88  1  0.00110129  -0.00152419  0.50066773  1
  Cu  Cu89  1  0.00906675  0.32092094  0.50272139  1
  Cu  Cu90  1  0.50934857  0.51182785  0.24740289  1
  Cu  Cu91  1  0.00235473  0.00105284  -0.00478042  1
  Cu  Cu92  1  0.66553655  0.67895285  0.50087743  1
  Cu  Cu93  1  0.33216149  0.66400526  0.50963119  1
  Cu  Cu94  1  0.16817040  0.16200098  0.24963418  1
  Cu  Cu95  1  0.66183612  0.66800503  -0.00676065  1
  Cu  Cu96  1  0.83495322  0.16060560  0.25140070  1
  Cu  Cu97  1  0.33054566  0.00004272  0.51143315  1
  Cu  Cu98  1  -0.00159705  0.33347489  -0.00196818  1
  Cu  Cu99  1  0.32900706  -0.00208119  -0.00955125  1
  Cu  Cu100  1  0.83313388  0.83751956  0.25568650  1
  Cu  Cu101  1  0.17092077  0.49905873  0.75397850  1
  Cu  Cu102  1  0.33176866  0.33046920  0.50423413  1
  Cu  Cu103  1  0.00458710  0.67424807  0.00249628  1
  Cu  Cu104  1  0.00046947  0.66811057  0.50375715  1
  Cu  Cu105  1  0.82695484  0.50971231  0.75298089  1
  Cu  Cu106  1  0.66129232  0.31504752  -0.00379514  1
  Cu  Cu107  1  0.83429067  0.15797461  0.74771156  1
  Cu  Cu108  1  0.49603145  0.16541174  0.74963597  1
  Cu  Cu109  1  0.51101795  0.15692080  0.25054972  1
  Cu  Cu110  1  0.50610683  0.83415027  0.25461535  1
  Cu  Cu111  1  0.66839969  0.32455285  0.50499521  1
  Cu  Cu112  1  0.50151400  0.83993945  0.74765848  1
  Cu  Cu113  1  0.82720507  0.51745629  0.24990021  1
  Cu  Cu114  1  0.66819821  0.00199273  0.50349402  1
  Se  Se115  1  0.08515986  0.08892125  0.04710657  1
  Se  Se116  1  0.08783424  0.07789619  0.55571346  1
  Se  Se117  1  0.07911487  0.41866181  0.05127001  1
  Se  Se118  1  0.08871425  0.41062644  0.55170016  1
  Se  Se119  1  0.07915018  0.76020662  0.05987630  1
  Se  Se120  1  0.08502368  0.75203144  0.55582020  1
  Se  Se121  1  0.41706855  0.07141364  0.04854668  1
  Se  Se122  1  0.41647113  0.08609203  0.55885625  1
  Se  Se123  1  0.41163645  0.40660873  0.05929002  1
  Se  Se124  1  0.40773511  0.41526342  0.56492014  1
  Se  Se125  1  0.40822075  0.73997481  0.05197921  1
  Se  Se126  1  0.41394061  0.75151261  0.55874616  1
  Se  Se127  1  0.76935041  0.08504556  0.05421216  1
  Se  Se128  1  0.75678793  0.08396526  0.55425564  1
  Se  Se129  1  0.73843199  0.40211677  0.05501757  1
  Se  Se130  1  0.74322184  0.41165418  0.56280290  1
  Se  Se131  1  0.74296737  0.74976478  0.05131235  1
  Se  Se132  1  0.75052545  0.76251042  0.55111824  1
  Se  Se133  1  0.25570829  0.25407897  0.04400077  1
  Se  Se134  1  0.24965698  0.24567259  0.55676505  1
  Se  Se135  1  0.24876942  0.59395810  0.04871189  1
  Se  Se136  1  0.25011707  0.57452584  0.55743827  1
  Se  Se137  1  0.24796333  0.91993684  0.04999014  1
  Se  Se138  1  0.24674330  0.91427671  0.56076114  1
  Se  Se139  1  0.57641980  0.23683974  0.05146512  1
  Se  Se140  1  0.58073832  0.24481106  0.55593328  1
  Se  Se141  1  0.58270979  0.58450704  0.05057875  1
  Se  Se142  1  0.58096512  0.59509635  0.55504401  1
  Se  Se143  1  0.59266126  0.91846543  0.05680522  1
  Se  Se144  1  0.57991558  0.92095054  0.55361522  1
  Se  Se145  1  0.91531515  0.24835707  0.04824869  1
  Se  Se146  1  0.91758423  0.24384350  0.55200298  1
  Se  Se147  1  0.91657018  0.59669252  0.06025093  1
  Se  Se148  1  0.91861643  0.58938767  0.56503254  1
  Se  Se149  1  0.92602284  0.92023583  0.05950244  1
  Se  Se150  1  0.92065594  0.91679575  0.55753278  1
  Se  Se151  1  0.09080260  0.23947713  0.44629921  1
  Se  Se152  1  0.08285258  0.25107376  0.94510646  1
  Se  Se153  1  0.08253354  0.57677581  0.45611162  1
  Se  Se154  1  0.08537853  0.58037850  0.95705220  1
  Se  Se155  1  0.08366784  0.91478751  0.44665132  1
  Se  Se156  1  0.08355257  0.91719526  0.94081377  1
  Se  Se157  1  0.41976364  0.24882251  0.45407018  1
  Se  Se158  1  0.40620685  0.24595012  0.94747111  1
  Se  Se159  1  0.40805035  0.59299416  0.43779904  1
  Se  Se160  1  0.41165303  0.59843913  0.93589789  1
  Se  Se161  1  0.41371563  0.91663707  0.45582947  1
  Se  Se162  1  0.40573874  0.91692590  0.92941283  1
  Se  Se163  1  0.75658195  0.24474983  0.45361427  1
  Se  Se164  1  0.75644786  0.23816252  0.95004235  1
  Se  Se165  1  0.74716243  0.59325585  0.44382683  1
  Se  Se166  1  0.74722950  0.58449656  0.93999875  1
  Se  Se167  1  0.75194255  0.91965347  0.44895189  1
  Se  Se168  1  0.73842143  0.92517629  0.93830770  1
  Se  Se169  1  0.24850689  0.07761061  0.45014279  1
  Se  Se170  1  0.24434187  0.08040871  0.93819233  1
  Se  Se171  1  0.24977975  0.41627493  0.45089795  1
  Se  Se172  1  0.25308176  0.43089562  0.94498210  1
  Se  Se173  1  0.24930461  0.74752386  0.45395709  1
  Se  Se174  1  0.24821137  0.76916501  0.94495660  1
  Se  Se175  1  0.58013417  0.08533674  0.45170528  1
  Se  Se176  1  0.57171770  0.07930719  0.95163938  1
  Se  Se177  1  0.59257868  0.40553937  0.44169906  1
  Se  Se178  1  0.58690930  0.39728680  0.93438829  1
  Se  Se179  1  0.58038799  0.75988919  0.44664151  1
  Se  Se180  1  0.58667464  0.74818089  0.93164612  1
  Se  Se181  1  0.91688573  0.08336417  0.44832361  1
  Se  Se182  1  0.91504165  0.07813000  0.94011798  1
  Se  Se183  1  0.92957633  0.40417042  0.43996843  1
  Se  Se184  1  0.92297932  0.41033260  0.93151830  1
  Se  Se185  1  0.91652932  0.75196708  0.45180037  1
  Se  Se186  1  0.93047614  0.74709650  0.93509031  1
  Se  Se187  1  0.24961756  0.24224311  0.30884632  1
  Se  Se188  1  0.24869364  0.24850335  0.80338254  1
  Se  Se189  1  0.24489265  0.58414175  0.31115524  1
  Se  Se190  1  0.24507624  0.59068475  0.80699272  1
  Se  Se191  1  0.24190108  0.90314654  0.30936594  1
  Se  Se192  1  0.25032519  0.92554218  0.78983542  1
  Se  Se193  1  0.58052658  0.24199752  0.31482839  1
  Se  Se194  1  0.57778112  0.24023965  0.81534944  1
  Se  Se195  1  0.58948033  0.59577240  0.30003642  1
  Se  Se196  1  0.60028036  0.59490683  0.79374405  1
  Se  Se197  1  0.58363379  0.92214458  0.30784487  1
  Se  Se198  1  0.58459063  0.92338825  0.80047878  1
  Se  Se199  1  0.91432084  0.24693773  0.30870954  1
  Se  Se200  1  0.91497456  0.24131397  0.80559770  1
  Se  Se201  1  0.91897900  0.59054237  0.30259741  1
  Se  Se202  1  0.91354050  0.58361559  0.81039117  1
  Se  Se203  1  0.91860812  0.91764571  0.30881712  1
  Se  Se204  1  0.88421224  0.88618340  0.80594090  1
  Se  Se205  1  0.08585818  0.07955312  0.30302742  1
  Se  Se206  1  0.07746067  0.07797130  0.79991926  1
  Se  Se207  1  0.08816887  0.42205979  0.31146469  1
  Se  Se208  1  0.09594116  0.41545314  0.81444351  1
  Se  Se209  1  0.07690772  0.74275941  0.30966063  1
  Se  Se210  1  0.09183436  0.74538657  0.81579540  1
  Se  Se211  1  0.42370944  0.08740358  0.31432710  1
  Se  Se212  1  0.41340382  0.07975618  0.80084546  1
  Se  Se213  1  0.42690713  0.42843951  0.30306331  1
  Se  Se214  1  0.44058702  0.44002552  0.80770657  1
  Se  Se215  1  0.41627807  0.75867859  0.31093929  1
  Se  Se216  1  0.41719973  0.75339677  0.79770890  1
  Se  Se217  1  0.75037854  0.08113304  0.30662357  1
  Se  Se218  1  0.74531702  0.08567542  0.80460258  1
  Se  Se219  1  0.75630761  0.43217488  0.31281103  1
  Se  Se220  1  0.75308708  0.42273304  0.81072894  1
  Se  Se221  1  0.74824470  0.75406997  0.30789872  1
  Se  Se222  1  0.74526960  0.74421221  0.79232039  1
  Se  Se223  1  0.25242304  0.08993268  0.18701554  1
  Se  Se224  1  0.24829025  0.08141224  0.69707314  1
  Se  Se225  1  0.23629276  0.42576554  0.19249333  1
  Se  Se226  1  0.25178017  0.40980541  0.70279456  1
  Se  Se227  1  0.24345074  0.76138941  0.18923542  1
  Se  Se228  1  0.26133324  0.73374620  0.69843555  1
  Se  Se229  1  0.59064065  0.07441917  0.19565772  1
  Se  Se230  1  0.58326399  0.08462579  0.69851616  1
  Se  Se231  1  0.58446063  0.42383737  0.18872039  1
  Se  Se232  1  0.57488891  0.41866154  0.68827524  1
  Se  Se233  1  0.58544202  0.74907712  0.19933096  1
  Se  Se234  1  0.58418657  0.75572741  0.69309280  1
  Se  Se235  1  0.92322140  0.08318666  0.19753230  1
  Se  Se236  1  0.91872819  0.07348578  0.69786643  1
  Se  Se237  1  0.90462684  0.43084904  0.19054361  1
  Se  Se238  1  0.90826126  0.42725999  0.69646666  1
  Se  Se239  1  0.91781518  0.75490843  0.20180894  1
  Se  Se240  1  0.91535615  0.76321386  0.68807327  1
  Se  Se241  1  0.09262866  0.24364970  0.18517578  1
  Se  Se242  1  0.08718614  0.23734473  0.68530176  1
  Se  Se243  1  0.07726575  0.59461248  0.19592952  1
  Se  Se244  1  0.09078593  0.57203471  0.68880969  1
  Se  Se245  1  0.08692088  0.93317399  0.19971474  1
  Se  Se246  1  0.09198184  0.90855737  0.70698239  1
  Se  Se247  1  0.42532186  0.23333952  0.19114036  1
  Se  Se248  1  0.41065570  0.25163766  0.70172958  1
  Se  Se249  1  0.42374780  0.57648920  0.18219106  1
  Se  Se250  1  0.42774979  0.57199392  0.70390020  1
  Se  Se251  1  0.42330420  0.90881884  0.19259076  1
  Se  Se252  1  0.41566459  0.92022576  0.69477573  1
  Se  Se253  1  0.75425635  0.24145299  0.19052482  1
  Se  Se254  1  0.75672651  0.24447325  0.68997478  1
  Se  Se255  1  0.74319471  0.59649004  0.19452739  1
  Se  Se256  1  0.74835017  0.58751187  0.69337730  1
  Se  Se257  1  0.75058189  0.91746705  0.19858848  1
  Se  Se258  1  0.73333463  0.93300648  0.69556067  1
