# generated using pymatgen
data_In86Cu29Se144
_symmetry_space_group_name_H-M   'P 1'
_cell_length_a   17.60555685
_cell_length_b   17.60268530
_cell_length_c   23.45448274
_cell_angle_alpha   89.98739220
_cell_angle_beta   89.99354458
_cell_angle_gamma   89.97255147
_symmetry_Int_Tables_number   1
_chemical_formula_structural   In86Cu29Se144
_chemical_formula_sum   'In86 Cu29 Se144'
_cell_volume   7268.66222096
_cell_formula_units_Z   1
loop_
 _symmetry_equiv_pos_site_id
 _symmetry_equiv_pos_as_xyz
  1  'x, y, z'
loop_
 _atom_site_type_symbol
 _atom_site_label
 _atom_site_symmetry_multiplicity
 _atom_site_fract_x
 _atom_site_fract_y
 _atom_site_fract_z
 _atom_site_occupancy
  In  In0  1  0.00345272  0.16562769  0.11298413  1
  In  In1  1  -0.01162057  0.15816653  0.62206149  1
  In  In2  1  -0.00025592  0.48846761  0.12101374  1
  In  In3  1  0.00864056  0.50931071  0.62117344  1
  In  In4  1  -0.00854058  0.84384319  0.12610805  1
  In  In5  1  -0.01364146  0.84297241  0.62917145  1
  In  In6  1  0.33337521  0.16578543  0.11636019  1
  In  In7  1  0.33071919  0.17235688  0.63564697  1
  In  In8  1  0.33887414  0.50718252  0.11428708  1
  In  In9  1  0.32466909  0.50784545  0.63887610  1
  In  In10  1  0.33803026  0.83467353  0.13266347  1
  In  In11  1  0.34417799  0.83036277  0.63948841  1
  In  In12  1  0.64990381  0.15703698  0.10650702  1
  In  In13  1  0.66195078  0.16456540  0.63908930  1
  In  In14  1  0.65744398  0.50864762  0.11896093  1
  In  In15  1  0.65971893  0.48647206  0.62745042  1
  In  In16  1  0.68228551  0.83906363  0.12025268  1
  In  In17  1  0.67318866  0.83951576  0.62061264  1
  In  In18  1  0.18313762  -0.00340691  0.38093298  1
  In  In19  1  0.17592383  0.01280674  0.86526985  1
  In  In20  1  0.16768774  0.33528239  0.38755435  1
  In  In21  1  0.18505992  0.31859745  0.88039567  1
  In  In22  1  0.17059239  0.65446409  0.37882932  1
  In  In23  1  0.16780386  0.66448502  0.86910142  1
  In  In24  1  0.49425021  -0.00558124  0.37015258  1
  In  In25  1  0.53402992  0.03716008  0.82643692  1
  In  In26  1  0.48802091  0.32982506  0.37476936  1
  In  In27  1  0.49962965  0.33278470  0.87278046  1
  In  In28  1  0.50481659  0.67481882  0.37637210  1
  In  In29  1  0.48343542  0.67029374  0.86786810  1
  In  In30  1  0.82930942  0.00136098  0.37887925  1
  In  In31  1  0.83498573  0.00271384  0.87595846  1
  In  In32  1  0.83206061  0.32808453  0.38681678  1
  In  In33  1  0.81515516  0.32312312  0.87522646  1
  In  In34  1  0.82199102  0.67347486  0.39103486  1
  In  In35  1  0.84522011  0.66919063  0.87170852  1
  In  In36  1  0.00023029  0.16650071  0.38463136  1
  In  In37  1  0.00991207  0.15781369  0.88027881  1
  In  In38  1  0.00028947  0.49789146  0.38638257  1
  In  In39  1  0.00498511  0.51611357  0.87154354  1
  In  In40  1  -0.00445977  0.82685739  0.38050184  1
  In  In41  1  -0.00438523  0.82910309  0.86746700  1
  In  In42  1  0.34058057  0.15285873  0.38142272  1
  In  In43  1  0.33942781  0.15975705  0.86722964  1
  In  In44  1  0.32902688  0.49638715  0.37484524  1
  In  In45  1  0.33917162  0.49576692  0.87214826  1
  In  In46  1  0.34306145  0.83907437  0.37427610  1
  In  In47  1  0.35033230  0.83997626  0.85501503  1
  In  In48  1  0.67905384  0.16296319  0.37597408  1
  In  In49  1  0.66768198  0.17556090  0.87984943  1
  In  In50  1  0.66080868  0.50907987  0.38146097  1
  In  In51  1  0.65891104  0.47744940  0.87167782  1
  In  In52  1  0.65895545  0.84018858  0.38219901  1
  In  In53  1  0.66080471  0.85914055  0.86682354  1
  In  In54  1  0.17703516  0.01176120  0.12174340  1
  In  In55  1  0.15257492  0.00220954  0.62958170  1
  In  In56  1  0.16565282  0.33456424  0.11000029  1
  In  In57  1  0.17319731  0.34210257  0.62171209  1
  In  In58  1  0.18450185  0.67298235  0.12436949  1
  In  In59  1  0.17980768  0.65306192  0.62733869  1
  In  In60  1  0.49464220  0.00840470  0.12579999  1
  In  In61  1  0.51364203  -0.01415752  0.64803593  1
  In  In62  1  0.50560941  0.33658505  0.10862790  1
  In  In63  1  0.48246798  0.34681374  0.66790110  1
  In  In64  1  0.49333987  0.65538451  0.12179148  1
  In  In65  1  0.47106575  0.67130505  0.63027183  1
  In  In66  1  0.81925050  -0.00745335  0.11685742  1
  In  In67  1  0.82458576  0.00340478  0.62744362  1
  In  In68  1  0.84066799  0.32922735  0.12212410  1
  In  In69  1  0.82211565  0.32355216  0.62152124  1
  In  In70  1  0.82083467  0.67461443  0.12205795  1
  In  In71  1  0.83974733  0.67582395  0.61954295  1
  In  In72  1  0.00590805  0.00020112  0.25317740  1
  In  In73  1  0.16663052  0.83269266  -0.00556468  1
  In  In74  1  0.66660194  0.33286059  0.23766944  1
  In  In75  1  0.16553047  0.83072915  0.50307832  1
  In  In76  1  0.65992605  0.67733087  0.25668389  1
  In  In77  1  0.66284943  0.66306257  0.74719484  1
  In  In78  1  -0.00025900  0.33602087  0.74938650  1
  In  In79  1  0.50640755  0.16099740  0.52120266  1
  In  In80  1  0.00163666  0.66676720  0.25199539  1
  In  In81  1  0.50099163  0.83701181  -0.00992368  1
  In  In82  1  0.49576117  0.50022563  0.50899243  1
  In  In83  1  0.33546862  0.33149536  0.24564287  1
  In  In84  1  0.83219222  0.50067305  -0.00418549  1
  In  In85  1  0.00312227  0.32909896  0.24593600  1
  Cu  Cu86  1  0.33036376  0.66251512  -0.00570916  1
  Cu  Cu87  1  0.83668719  0.50113507  0.75183039  1
  Cu  Cu88  1  -0.00102819  0.66626750  0.50381844  1
  Cu  Cu89  1  0.15615454  0.82426818  0.74403044  1
  Cu  Cu90  1  0.34045161  0.00361879  -0.00786438  1
  Cu  Cu91  1  0.50605191  0.83765048  0.25091746  1
  Cu  Cu92  1  -0.00082100  0.33281963  0.50764565  1
  Cu  Cu93  1  0.00190084  0.67099668  -0.00607142  1
  Cu  Cu94  1  0.16148151  0.16705009  0.75171386  1
  Cu  Cu95  1  0.82463794  0.50537526  0.26118655  1
  Cu  Cu96  1  0.33356499  0.32970621  -0.00885003  1
  Cu  Cu97  1  0.66445155  0.66760582  -0.00442592  1
  Cu  Cu98  1  0.17091628  0.50150561  0.25066557  1
  Cu  Cu99  1  -0.00877902  0.00431821  0.50650649  1
  Cu  Cu100  1  0.82892062  0.83984740  0.74733001  1
  Cu  Cu101  1  0.33317939  0.33349885  0.50931157  1
  Cu  Cu102  1  0.66439447  0.00385043  -0.01218490  1
  Cu  Cu103  1  0.17984963  0.83597283  0.25273606  1
  Cu  Cu104  1  0.17246211  0.49599504  0.75152423  1
  Cu  Cu105  1  -0.00200649  -0.00130832  -0.00127609  1
  Cu  Cu106  1  0.18070697  0.16374412  0.24843476  1
  Cu  Cu107  1  0.66467610  0.00490974  0.50591597  1
  Cu  Cu108  1  0.83222450  0.16179859  0.75087715  1
  Cu  Cu109  1  0.66721930  0.66697955  0.50414692  1
  Cu  Cu110  1  0.33372941  -0.00059713  0.50422332  1
  Cu  Cu111  1  0.00154689  0.33513796  -0.00753511  1
  Cu  Cu112  1  0.66364813  0.32816918  0.50829660  1
  Cu  Cu113  1  0.50860844  0.16266289  0.24649606  1
  Cu  Cu114  1  0.83535351  0.15591982  0.24953399  1
  Se  Se115  1  0.08817613  0.07881655  0.04962733  1
  Se  Se116  1  0.08141272  0.08506910  0.55371495  1
  Se  Se117  1  0.08204757  0.42168664  0.04530370  1
  Se  Se118  1  0.08568014  0.41944044  0.55379200  1
  Se  Se119  1  0.07705279  0.74751519  0.06191570  1
  Se  Se120  1  0.07732933  0.74460522  0.56721669  1
  Se  Se121  1  0.42193867  0.08642759  0.04915830  1
  Se  Se122  1  0.41241361  0.06951287  0.57240493  1
  Se  Se123  1  0.41217487  0.41590262  0.04738801  1
  Se  Se124  1  0.41674472  0.40416163  0.57213188  1
  Se  Se125  1  0.40909556  0.74881270  0.05323922  1
  Se  Se126  1  0.41061178  0.75989040  0.55651385  1
  Se  Se127  1  0.74868228  0.08154276  0.04621543  1
  Se  Se128  1  0.74028019  0.09101731  0.56211352  1
  Se  Se129  1  0.74545983  0.41387872  0.06003108  1
  Se  Se130  1  0.74798110  0.41780065  0.55443738  1
  Se  Se131  1  0.74955552  0.75181994  0.04535964  1
  Se  Se132  1  0.75233011  0.75437080  0.55174774  1
  Se  Se133  1  0.25044830  0.24803929  0.04802269  1
  Se  Se134  1  0.25107970  0.24610106  0.55901753  1
  Se  Se135  1  0.24449184  0.58445516  0.04924600  1
  Se  Se136  1  0.26039741  0.57744335  0.55558202  1
  Se  Se137  1  0.26311605  0.92074727  0.05358393  1
  Se  Se138  1  0.25094494  0.92080519  0.56441941  1
  Se  Se139  1  0.58706596  0.25531696  0.04176878  1
  Se  Se140  1  0.58169172  0.26494648  0.57651698  1
  Se  Se141  1  0.57827631  0.58639904  0.04653318  1
  Se  Se142  1  0.58582735  0.59247332  0.56635605  1
  Se  Se143  1  0.58835777  0.92417709  0.05475137  1
  Se  Se144  1  0.57922127  0.92403536  0.56012248  1
  Se  Se145  1  0.92012257  0.25329937  0.04920210  1
  Se  Se146  1  0.91204947  0.24736890  0.55419867  1
  Se  Se147  1  0.92182822  0.59252565  0.05900563  1
  Se  Se148  1  0.91424264  0.58114783  0.55408379  1
  Se  Se149  1  0.91349474  0.91579659  0.05098286  1
  Se  Se150  1  0.90665746  0.91996755  0.55599859  1
  Se  Se151  1  0.08264262  0.25071104  0.45118033  1
  Se  Se152  1  0.08780391  0.24822518  0.94571180  1
  Se  Se153  1  0.08413078  0.58429595  0.45054352  1
  Se  Se154  1  0.08809629  0.58783396  0.94565964  1
  Se  Se155  1  0.07439118  0.92654122  0.44365387  1
  Se  Se156  1  0.07919687  0.92394049  0.93533651  1
  Se  Se157  1  0.41528949  0.24978571  0.45271226  1
  Se  Se158  1  0.41547429  0.24432626  0.93896973  1
  Se  Se159  1  0.41414467  0.58702410  0.44131477  1
  Se  Se160  1  0.41843583  0.58327486  0.94270333  1
  Se  Se161  1  0.41863345  0.92094330  0.44798064  1
  Se  Se162  1  0.41823835  0.92823985  0.92939572  1
  Se  Se163  1  0.74544705  0.24579827  0.45246126  1
  Se  Se164  1  0.75123512  0.24755537  0.95439905  1
  Se  Se165  1  0.74752061  0.57703272  0.45381793  1
  Se  Se166  1  0.74320413  0.58740650  0.93271261  1
  Se  Se167  1  0.74571991  0.92155660  0.44907863  1
  Se  Se168  1  0.75035223  0.91552449  0.94311649  1
  Se  Se169  1  0.25083173  0.08559101  0.45358405  1
  Se  Se170  1  0.25169495  0.08584970  0.94234520  1
  Se  Se171  1  0.25621935  0.41746401  0.45100427  1
  Se  Se172  1  0.25099562  0.42018394  0.94382732  1
  Se  Se173  1  0.25666155  0.74702404  0.44076780  1
  Se  Se174  1  0.26191199  0.75178636  0.93352512  1
  Se  Se175  1  0.58393704  0.08200380  0.44293563  1
  Se  Se176  1  0.57700926  0.07390626  0.92932112  1
  Se  Se177  1  0.58281317  0.40511142  0.44435670  1
  Se  Se178  1  0.58222300  0.40850998  0.94789741  1
  Se  Se179  1  0.58337111  0.74999521  0.45040430  1
  Se  Se180  1  0.59058548  0.74649254  0.92988436  1
  Se  Se181  1  0.91052377  0.08573614  0.44745069  1
  Se  Se182  1  0.91628267  0.08551383  0.94709008  1
  Se  Se183  1  0.91540852  0.41405402  0.45084740  1
  Se  Se184  1  0.92141570  0.41406856  0.93184954  1
  Se  Se185  1  0.91548438  0.75288912  0.45356442  1
  Se  Se186  1  0.91665034  0.75443928  0.94507327  1
  Se  Se187  1  0.24939051  0.24693526  0.31406020  1
  Se  Se188  1  0.25305680  0.24559939  0.80014235  1
  Se  Se189  1  0.25321804  0.58309363  0.30411031  1
  Se  Se190  1  0.25494123  0.58176144  0.80414993  1
  Se  Se191  1  0.25925953  0.92297880  0.30522365  1
  Se  Se192  1  0.23339873  0.90259954  0.80602154  1
  Se  Se193  1  0.58122138  0.24651551  0.30880852  1
  Se  Se194  1  0.58402223  0.24793877  0.80652668  1
  Se  Se195  1  0.57270879  0.57429112  0.30544111  1
  Se  Se196  1  0.57696480  0.57599476  0.81074081  1
  Se  Se197  1  0.58853875  0.92018122  0.30459223  1
  Se  Se198  1  0.56739217  0.90126902  0.79024320  1
  Se  Se199  1  0.91045878  0.24272151  0.30808999  1
  Se  Se200  1  0.91422299  0.24325489  0.81055481  1
  Se  Se201  1  0.90947790  0.58264290  0.31749124  1
  Se  Se202  1  0.92086021  0.58792370  0.79813689  1
  Se  Se203  1  0.91430106  0.90986105  0.30914951  1
  Se  Se204  1  0.91371267  0.91895811  0.80389239  1
  Se  Se205  1  0.09611482  0.09216586  0.31180975  1
  Se  Se206  1  0.07616565  0.08109817  0.79981795  1
  Se  Se207  1  0.08914545  0.42098561  0.30939192  1
  Se  Se208  1  0.09226269  0.41712354  0.81357462  1
  Se  Se209  1  0.09510449  0.75831259  0.31062589  1
  Se  Se210  1  0.07712516  0.74122086  0.80235677  1
  Se  Se211  1  0.42004006  0.08770917  0.30277893  1
  Se  Se212  1  0.39141843  0.05203566  0.79913196  1
  Se  Se213  1  0.42537159  0.42484769  0.30284069  1
  Se  Se214  1  0.41125677  0.40698959  0.80210304  1
  Se  Se215  1  0.42388757  0.75395266  0.30500393  1
  Se  Se216  1  0.41318311  0.74169645  0.78844561  1
  Se  Se217  1  0.74955218  0.07749820  0.30315001  1
  Se  Se218  1  0.74886964  0.08638010  0.81057638  1
  Se  Se219  1  0.74779816  0.41603809  0.31401205  1
  Se  Se220  1  0.75452635  0.41476637  0.80120088  1
  Se  Se221  1  0.75731684  0.75994837  0.31320234  1
  Se  Se222  1  0.75155173  0.75625596  0.80838428  1
  Se  Se223  1  0.26324588  0.08300154  0.19404503  1
  Se  Se224  1  0.24048578  0.08354586  0.69511647  1
  Se  Se225  1  0.24161238  0.41837366  0.18642416  1
  Se  Se226  1  0.25272856  0.40738845  0.70104341  1
  Se  Se227  1  0.25860679  0.74797259  0.20065285  1
  Se  Se228  1  0.24875632  0.74599582  0.69636807  1
  Se  Se229  1  0.59132378  0.08220963  0.19115782  1
  Se  Se230  1  0.58128517  0.08565297  0.71054008  1
  Se  Se231  1  0.57062099  0.42665817  0.18871243  1
  Se  Se232  1  0.59887979  0.41384100  0.70972573  1
  Se  Se233  1  0.57779384  0.75815210  0.18289168  1
  Se  Se234  1  0.57906920  0.75235634  0.68396568  1
  Se  Se235  1  0.91882637  0.08446006  0.18616809  1
  Se  Se236  1  0.91470413  0.07922178  0.69719621  1
  Se  Se237  1  0.90442505  0.42734881  0.19832382  1
  Se  Se238  1  0.91174018  0.42208187  0.68590295  1
  Se  Se239  1  0.90790377  0.75507361  0.19437711  1
  Se  Se240  1  0.91176350  0.75165477  0.69778082  1
  Se  Se241  1  0.09697878  0.23962844  0.18859019  1
  Se  Se242  1  0.08473898  0.24593588  0.68679626  1
  Se  Se243  1  0.08785481  0.57658935  0.18846774  1
  Se  Se244  1  0.08901822  0.57935528  0.69758874  1
  Se  Se245  1  0.09852558  0.91141580  0.19001830  1
  Se  Se246  1  0.07466938  0.91617378  0.69879223  1
  Se  Se247  1  0.43078121  0.24607574  0.18609329  1
  Se  Se248  1  0.42318903  0.22818266  0.71094178  1
  Se  Se249  1  0.40351434  0.58909327  0.19168042  1
  Se  Se250  1  0.44027933  0.55788030  0.69494988  1
  Se  Se251  1  0.42138924  0.92055796  0.19651076  1
  Se  Se252  1  0.39311685  0.94126222  0.70327133  1
  Se  Se253  1  0.75932796  0.23723908  0.18714066  1
  Se  Se254  1  0.75147665  0.25076380  0.70124279  1
  Se  Se255  1  0.74996719  0.58043682  0.19503470  1
  Se  Se256  1  0.75823095  0.57820820  0.68691865  1
  Se  Se257  1  0.75433305  0.91502409  0.19590909  1
  Se  Se258  1  0.74148529  0.92173335  0.69794470  1
