# generated using pymatgen
data_In86Cu29Se144
_symmetry_space_group_name_H-M   'P 1'
_cell_length_a   17.58050476
_cell_length_b   17.57687566
_cell_length_c   23.43761362
_cell_angle_alpha   90.00078291
_cell_angle_beta   90.01352864
_cell_angle_gamma   90.03490313
_symmetry_Int_Tables_number   1
_chemical_formula_structural   In86Cu29Se144
_chemical_formula_sum   'In86 Cu29 Se144'
_cell_volume   7242.46354986
_cell_formula_units_Z   1
loop_
 _symmetry_equiv_pos_site_id
 _symmetry_equiv_pos_as_xyz
  1  'x, y, z'
loop_
 _atom_site_type_symbol
 _atom_site_label
 _atom_site_symmetry_multiplicity
 _atom_site_fract_x
 _atom_site_fract_y
 _atom_site_fract_z
 _atom_site_occupancy
  In  In0  1  -0.00298702  0.17627681  0.12771956  1
  In  In1  1  -0.01405329  0.16777372  0.62071005  1
  In  In2  1  -0.00361983  0.49806710  0.13488149  1
  In  In3  1  0.00330245  0.51103990  0.60275070  1
  In  In4  1  -0.00756193  0.82936922  0.12969254  1
  In  In5  1  0.01812414  0.81744462  0.63464551  1
  In  In6  1  0.34421100  0.15724648  0.13368312  1
  In  In7  1  0.33104855  0.14673572  0.62763445  1
  In  In8  1  0.33110386  0.49226477  0.13008731  1
  In  In9  1  0.32913714  0.51369604  0.62722337  1
  In  In10  1  0.34221955  0.83074969  0.12715774  1
  In  In11  1  0.33500104  0.83098511  0.62171428  1
  In  In12  1  0.67394532  0.16740039  0.11762390  1
  In  In13  1  0.67007527  0.16573811  0.61893550  1
  In  In14  1  0.65927773  0.50668313  0.13100783  1
  In  In15  1  0.66752691  0.48438074  0.62862756  1
  In  In16  1  0.65732500  0.83725682  0.12663961  1
  In  In17  1  0.66468292  0.85832811  0.62215436  1
  In  In18  1  0.17448841  -0.01680012  0.37828997  1
  In  In19  1  0.15939189  -0.01232962  0.85604962  1
  In  In20  1  0.17300024  0.34230721  0.37561240  1
  In  In21  1  0.16205933  0.33644184  0.87599511  1
  In  In22  1  0.14271886  0.67791605  0.39558698  1
  In  In23  1  0.17643462  0.68293064  0.85190809  1
  In  In24  1  0.49240861  0.01050911  0.38533144  1
  In  In25  1  0.50240917  0.00162146  0.86963935  1
  In  In26  1  0.49161069  0.32584689  0.36669967  1
  In  In27  1  0.51189348  0.31316823  0.88736004  1
  In  In28  1  0.51564384  0.66810921  0.37411449  1
  In  In29  1  0.49617142  0.67850744  0.88168403  1
  In  In30  1  0.83512986  0.00846716  0.38785992  1
  In  In31  1  0.83681451  0.01000647  0.86747986  1
  In  In32  1  0.83525383  0.33709573  0.37593118  1
  In  In33  1  0.80715871  0.33460282  0.87024540  1
  In  In34  1  0.82700378  0.65462689  0.37661957  1
  In  In35  1  0.84692429  0.65579151  0.86529341  1
  In  In36  1  -0.01324405  0.16859365  0.38327601  1
  In  In37  1  -0.00332267  0.15718648  0.87243410  1
  In  In38  1  -0.00599699  0.49683070  0.37887350  1
  In  In39  1  -0.01150158  0.51404931  0.86910482  1
  In  In40  1  0.01487214  0.82762923  0.38336102  1
  In  In41  1  -0.00172864  0.83056219  0.85952788  1
  In  In42  1  0.34105427  0.17308036  0.36991190  1
  In  In43  1  0.35374900  0.15856904  0.87714663  1
  In  In44  1  0.33385951  0.48933092  0.37276453  1
  In  In45  1  0.33529839  0.51424144  0.87421697  1
  In  In46  1  0.31747520  0.84330575  0.37676502  1
  In  In47  1  0.34509514  0.84612944  0.85857193  1
  In  In48  1  0.65270798  0.17179596  0.38501926  1
  In  In49  1  0.66298070  0.16619160  0.87357706  1
  In  In50  1  0.67393916  0.50090758  0.36857164  1
  In  In51  1  0.66919479  0.47825830  0.87153593  1
  In  In52  1  0.67160701  0.82487508  0.37963169  1
  In  In53  1  0.65033782  0.83558043  0.87404678  1
  In  In54  1  0.16771033  0.01041331  0.13125899  1
  In  In55  1  0.18415502  -0.02349626  0.64157175  1
  In  In56  1  0.16129842  0.33915441  0.14068934  1
  In  In57  1  0.14998853  0.34441029  0.61115974  1
  In  In58  1  0.16530461  0.65745764  0.13087332  1
  In  In59  1  0.16875901  0.67461534  0.61355723  1
  In  In60  1  0.49810574  -0.01049587  0.11493164  1
  In  In61  1  0.50129114  0.00026502  0.62058281  1
  In  In62  1  0.50070329  0.33368650  0.12983334  1
  In  In63  1  0.52016486  0.33221606  0.62784934  1
  In  In64  1  0.51020623  0.67782711  0.12028377  1
  In  In65  1  0.48085735  0.66951795  0.62929543  1
  In  In66  1  0.81778599  0.00871595  0.12373379  1
  In  In67  1  0.82537318  0.01215856  0.63248281  1
  In  In68  1  0.83250121  0.32798064  0.13187530  1
  In  In69  1  0.83034181  0.32402864  0.60813010  1
  In  In70  1  0.83984274  0.65943440  0.13470431  1
  In  In71  1  0.84910485  0.66104517  0.61655976  1
  In  In72  1  0.32803112  0.66714539  0.25200418  1
  In  In73  1  0.83570553  0.83607256  0.50613257  1
  In  In74  1  0.66970729  0.66865385  0.75080542  1
  In  In75  1  0.17098730  0.83523474  -0.00935186  1
  In  In76  1  0.16401112  0.16472123  0.50560982  1
  In  In77  1  0.16918704  0.50124081  0.00207629  1
  In  In78  1  0.18148900  0.16272190  0.00344248  1
  In  In79  1  0.83215148  0.49624603  -0.00742345  1
  In  In80  1  0.33643029  0.33047674  0.75539455  1
  In  In81  1  0.00384794  -0.00357621  0.26129669  1
  In  In82  1  -0.00448323  0.34043416  0.73858252  1
  In  In83  1  0.66449692  -0.00194991  0.24961105  1
  In  In84  1  0.49962916  0.49889013  0.50322536  1
  In  In85  1  0.82177885  0.83793165  -0.00628047  1
  Cu  Cu86  1  -0.00852826  0.32565201  0.00353288  1
  Cu  Cu87  1  0.16408588  0.50589009  0.73871719  1
  Cu  Cu88  1  0.00785122  0.66499608  -0.00447148  1
  Cu  Cu89  1  0.33481662  -0.00371684  0.50298264  1
  Cu  Cu90  1  0.82643800  0.17710150  0.74575718  1
  Cu  Cu91  1  0.83491847  0.49267784  0.25515721  1
  Cu  Cu92  1  0.16763824  0.16316864  0.74812701  1
  Cu  Cu93  1  0.83195347  0.16991662  0.25323393  1
  Cu  Cu94  1  0.33379849  0.67008272  0.50025355  1
  Cu  Cu95  1  0.83035281  0.84012618  0.74275344  1
  Cu  Cu96  1  0.16859412  0.17081326  0.25534776  1
  Cu  Cu97  1  -0.01126049  0.00465188  -0.00491236  1
  Cu  Cu98  1  0.15899627  0.50602427  0.25981175  1
  Cu  Cu99  1  0.00235736  -0.00268473  0.50888497  1
  Cu  Cu100  1  0.33692177  -0.00330362  -0.00593329  1
  Cu  Cu101  1  0.34034542  0.33414454  0.00944474  1
  Cu  Cu102  1  0.66535205  0.32948649  0.49625547  1
  Cu  Cu103  1  0.50445314  0.49940975  0.25087531  1
  Cu  Cu104  1  0.66616266  0.66451282  0.00179314  1
  Cu  Cu105  1  0.66119894  0.33086254  0.00200785  1
  Cu  Cu106  1  0.49957715  0.83474044  0.24840911  1
  Cu  Cu107  1  0.83849247  0.82014516  0.25786973  1
  Cu  Cu108  1  0.34786486  0.67412652  -0.00217535  1
  Cu  Cu109  1  0.34425494  0.32522470  0.49843648  1
  Cu  Cu110  1  0.50054998  0.16674191  0.25174848  1
  Cu  Cu111  1  0.66100569  0.66885002  0.50213123  1
  Cu  Cu112  1  0.50336319  0.49589122  0.75205501  1
  Cu  Cu113  1  0.50632857  0.16434338  0.75019769  1
  Cu  Cu114  1  0.49719428  0.83699928  0.74636833  1
  Se  Se115  1  0.07444855  0.07846994  0.05664018  1
  Se  Se116  1  0.08606238  0.07251054  0.57146594  1
  Se  Se117  1  0.07436133  0.40918702  0.05915511  1
  Se  Se118  1  0.09289982  0.43204775  0.53513990  1
  Se  Se119  1  0.08286391  0.74653464  0.05726599  1
  Se  Se120  1  0.07727022  0.75183780  0.54760466  1
  Se  Se121  1  0.41201801  0.08082301  0.05374848  1
  Se  Se122  1  0.41636842  0.08545758  0.55143502  1
  Se  Se123  1  0.42007582  0.42170782  0.06026483  1
  Se  Se124  1  0.41261387  0.40888812  0.56657714  1
  Se  Se125  1  0.42487224  0.76062547  0.05271804  1
  Se  Se126  1  0.42092081  0.75198072  0.55004534  1
  Se  Se127  1  0.74222239  0.07620715  0.04715357  1
  Se  Se128  1  0.76563504  0.09398012  0.55328726  1
  Se  Se129  1  0.74522558  0.41339128  0.05962799  1
  Se  Se130  1  0.74358660  0.41748730  0.54882116  1
  Se  Se131  1  0.75036343  0.73982626  0.06229731  1
  Se  Se132  1  0.74006438  0.74706638  0.56503602  1
  Se  Se133  1  0.25361142  0.26024175  0.06928786  1
  Se  Se134  1  0.25940861  0.25545690  0.56413123  1
  Se  Se135  1  0.26383422  0.59585821  0.05744155  1
  Se  Se136  1  0.25233539  0.58151447  0.54924358  1
  Se  Se137  1  0.25273056  0.92536557  0.05810625  1
  Se  Se138  1  0.24783681  0.91426519  0.55380716  1
  Se  Se139  1  0.57900801  0.24986686  0.05817849  1
  Se  Se140  1  0.58144818  0.24828752  0.55063296  1
  Se  Se141  1  0.58241453  0.58152076  0.05460986  1
  Se  Se142  1  0.58524635  0.58862531  0.56716504  1
  Se  Se143  1  0.59936055  0.92422848  0.05150449  1
  Se  Se144  1  0.57718309  0.91727903  0.54756761  1
  Se  Se145  1  0.90738011  0.24548053  0.05661428  1
  Se  Se146  1  0.93878551  0.26466365  0.54770585  1
  Se  Se147  1  0.92576308  0.58529369  0.05457268  1
  Se  Se148  1  0.90083989  0.57412461  0.53694491  1
  Se  Se149  1  0.91814978  0.92088143  0.05831926  1
  Se  Se150  1  0.92159254  0.92093132  0.57174002  1
  Se  Se151  1  0.08172358  0.25623392  0.44249077  1
  Se  Se152  1  0.08069822  0.25021388  0.94624316  1
  Se  Se153  1  0.09502394  0.55810531  0.44844925  1
  Se  Se154  1  0.08965472  0.59082663  0.93395178  1
  Se  Se155  1  0.08568177  0.91859655  0.45289709  1
  Se  Se156  1  0.06926598  0.92252080  0.93739349  1
  Se  Se157  1  0.42553069  0.24359343  0.44521237  1
  Se  Se158  1  0.41430179  0.24506856  0.95404635  1
  Se  Se159  1  0.41370071  0.58935451  0.43890366  1
  Se  Se160  1  0.42329463  0.58119816  0.94730066  1
  Se  Se161  1  0.41249164  0.91313751  0.44450464  1
  Se  Se162  1  0.41902889  0.91486071  0.93891335  1
  Se  Se163  1  0.75260356  0.24891363  0.44341001  1
  Se  Se164  1  0.74496297  0.24995957  0.94619974  1
  Se  Se165  1  0.73840310  0.58254842  0.44804204  1
  Se  Se166  1  0.74381464  0.59186722  0.93510392  1
  Se  Se167  1  0.74089296  0.92445576  0.44828035  1
  Se  Se168  1  0.73841767  0.93047094  0.93414361  1
  Se  Se169  1  0.25686719  0.08172570  0.44223427  1
  Se  Se170  1  0.25017272  0.06787474  0.93223883  1
  Se  Se171  1  0.26101465  0.41179203  0.44946128  1
  Se  Se172  1  0.26088471  0.40805113  0.94380869  1
  Se  Se173  1  0.24811983  0.75360047  0.44879911  1
  Se  Se174  1  0.26261648  0.74475422  0.93443741  1
  Se  Se175  1  0.59022143  0.07397583  0.45161805  1
  Se  Se176  1  0.55968375  0.10329514  0.93722728  1
  Se  Se177  1  0.58308421  0.41173933  0.43699926  1
  Se  Se178  1  0.58204945  0.41754250  0.94806955  1
  Se  Se179  1  0.58037395  0.75381783  0.45016910  1
  Se  Se180  1  0.58448544  0.75335307  0.95155888  1
  Se  Se181  1  0.91957091  0.08398200  0.45911554  1
  Se  Se182  1  0.90791459  0.09150968  0.94558166  1
  Se  Se183  1  0.89412818  0.43523492  0.44718820  1
  Se  Se184  1  0.92507060  0.40548328  0.93431631  1
  Se  Se185  1  0.91685661  0.74347998  0.44301567  1
  Se  Se186  1  0.92110849  0.74551580  0.94086497  1
  Se  Se187  1  0.25270590  0.25624514  0.30623003  1
  Se  Se188  1  0.24358312  0.23913051  0.81465304  1
  Se  Se189  1  0.24119573  0.58516355  0.31890250  1
  Se  Se190  1  0.25189765  0.57893595  0.79734735  1
  Se  Se191  1  0.24990085  0.92001581  0.29778024  1
  Se  Se192  1  0.22967455  0.88675337  0.79830542  1
  Se  Se193  1  0.58702757  0.24809755  0.30365156  1
  Se  Se194  1  0.58455965  0.25409711  0.80231118  1
  Se  Se195  1  0.58773723  0.58434524  0.30163810  1
  Se  Se196  1  0.58089711  0.57975271  0.81370682  1
  Se  Se197  1  0.57800718  0.91121580  0.31369354  1
  Se  Se198  1  0.58327815  0.91876328  0.79821173  1
  Se  Se199  1  0.91780682  0.24977489  0.30690941  1
  Se  Se200  1  0.91175990  0.25300862  0.80765666  1
  Se  Se201  1  0.91566635  0.58111768  0.30631153  1
  Se  Se202  1  0.92140852  0.58442319  0.78804302  1
  Se  Se203  1  0.90792453  0.90854765  0.31946647  1
  Se  Se204  1  0.91396340  0.92138411  0.79959979  1
  Se  Se205  1  0.09174695  0.09104163  0.31958267  1
  Se  Se206  1  0.07739240  0.08426933  0.79863327  1
  Se  Se207  1  0.07916812  0.41502771  0.30867524  1
  Se  Se208  1  0.08948256  0.42657141  0.80431382  1
  Se  Se209  1  0.08569150  0.74798030  0.30882566  1
  Se  Se210  1  0.06098177  0.72950125  0.79647371  1
  Se  Se211  1  0.41882787  0.08044809  0.30448344  1
  Se  Se212  1  0.41694345  0.08044988  0.79723608  1
  Se  Se213  1  0.41605407  0.41675439  0.29896749  1
  Se  Se214  1  0.42600707  0.41695711  0.81725913  1
  Se  Se215  1  0.42101953  0.75518212  0.31142375  1
  Se  Se216  1  0.42189436  0.74529989  0.80008314  1
  Se  Se217  1  0.75375900  0.08671219  0.31204058  1
  Se  Se218  1  0.74810177  0.09057374  0.80166936  1
  Se  Se219  1  0.74692368  0.40798151  0.30199902  1
  Se  Se220  1  0.77277749  0.44004355  0.79957369  1
  Se  Se221  1  0.74689989  0.74251954  0.30755741  1
  Se  Se222  1  0.75889947  0.76115622  0.81205705  1
  Se  Se223  1  0.25011461  0.08579641  0.20198145  1
  Se  Se224  1  0.25613532  0.07556115  0.70572518  1
  Se  Se225  1  0.24541494  0.42557587  0.20477025  1
  Se  Se226  1  0.24373208  0.41311815  0.68894534  1
  Se  Se227  1  0.24006531  0.75996118  0.19158010  1
  Se  Se228  1  0.25775551  0.74023142  0.68717381  1
  Se  Se229  1  0.57671519  0.08689748  0.18820749  1
  Se  Se230  1  0.58499900  0.08506991  0.68901479  1
  Se  Se231  1  0.58732866  0.41383917  0.19861158  1
  Se  Se232  1  0.58962450  0.41119304  0.70565539  1
  Se  Se233  1  0.58607880  0.75079685  0.19895671  1
  Se  Se234  1  0.58091534  0.75659072  0.68770360  1
  Se  Se235  1  0.91160429  0.08250505  0.19623039  1
  Se  Se236  1  0.91528556  0.09218262  0.69965302  1
  Se  Se237  1  0.91771481  0.40943119  0.19961065  1
  Se  Se238  1  0.91349910  0.42404712  0.67217186  1
  Se  Se239  1  0.92396965  0.74268076  0.20208257  1
  Se  Se240  1  0.90877647  0.75129130  0.69182524  1
  Se  Se241  1  0.07916021  0.24757330  0.20209494  1
  Se  Se242  1  0.09303024  0.24614486  0.68725022  1
  Se  Se243  1  0.07824966  0.58521388  0.20060762  1
  Se  Se244  1  0.08493117  0.58239488  0.67874509  1
  Se  Se245  1  0.08778036  0.91115303  0.19311037  1
  Se  Se246  1  0.07502488  0.92061770  0.70076788  1
  Se  Se247  1  0.41554829  0.25207907  0.19952807  1
  Se  Se248  1  0.42199365  0.24373051  0.68986943  1
  Se  Se249  1  0.42428378  0.58353147  0.19092126  1
  Se  Se250  1  0.41688606  0.57798636  0.70232286  1
  Se  Se251  1  0.41987958  0.91959332  0.19417993  1
  Se  Se252  1  0.41587042  0.91907377  0.69009145  1
  Se  Se253  1  0.74473393  0.24466571  0.19653837  1
  Se  Se254  1  0.74858246  0.25780573  0.68707544  1
  Se  Se255  1  0.75364276  0.57729308  0.19887120  1
  Se  Se256  1  0.75432446  0.58205660  0.68612693  1
  Se  Se257  1  0.76324034  0.90472756  0.19608799  1
  Se  Se258  1  0.74250103  0.92702166  0.70050782  1
