# generated using pymatgen
data_In86Cu29Se144
_symmetry_space_group_name_H-M   'P 1'
_cell_length_a   17.57860065
_cell_length_b   17.57716957
_cell_length_c   23.42619951
_cell_angle_alpha   89.99313625
_cell_angle_beta   90.01055983
_cell_angle_gamma   90.04161185
_symmetry_Int_Tables_number   1
_chemical_formula_structural   In86Cu29Se144
_chemical_formula_sum   'In86 Cu29 Se144'
_cell_volume   7238.27293052
_cell_formula_units_Z   1
loop_
 _symmetry_equiv_pos_site_id
 _symmetry_equiv_pos_as_xyz
  1  'x, y, z'
loop_
 _atom_site_type_symbol
 _atom_site_label
 _atom_site_symmetry_multiplicity
 _atom_site_fract_x
 _atom_site_fract_y
 _atom_site_fract_z
 _atom_site_occupancy
  In  In0  1  -0.00450796  0.17550217  0.12069150  1
  In  In1  1  0.01218362  0.16572500  0.62581352  1
  In  In2  1  0.00049810  0.49868520  0.11701619  1
  In  In3  1  0.00197269  0.50032874  0.62761098  1
  In  In4  1  -0.00273969  0.81496238  0.12758395  1
  In  In5  1  0.00425962  0.82239903  0.62569478  1
  In  In6  1  0.37570637  0.13635268  0.16085815  1
  In  In7  1  0.33757093  0.17971784  0.62513773  1
  In  In8  1  0.33389659  0.50460290  0.13385852  1
  In  In9  1  0.32682709  0.50113549  0.62578718  1
  In  In10  1  0.33744169  0.83636101  0.12730129  1
  In  In11  1  0.33462954  0.83465884  0.61054715  1
  In  In12  1  0.63124308  0.15015991  0.06672979  1
  In  In13  1  0.66633128  0.16573554  0.63291089  1
  In  In14  1  0.66438630  0.48997515  0.10907888  1
  In  In15  1  0.66579655  0.48350079  0.62672777  1
  In  In16  1  0.65361200  0.85218707  0.13030176  1
  In  In17  1  0.66221855  0.84455797  0.62733617  1
  In  In18  1  0.17743371  -0.00998665  0.38171355  1
  In  In19  1  0.15988704  -0.00915767  0.88074799  1
  In  In20  1  0.17456515  0.33292162  0.38421323  1
  In  In21  1  0.17928452  0.34480964  0.86785837  1
  In  In22  1  0.16571032  0.66613208  0.37099188  1
  In  In23  1  0.16535857  0.66982297  0.87646011  1
  In  In24  1  0.48537212  -0.01571609  0.35352774  1
  In  In25  1  0.51399167  -0.00530044  0.88989710  1
  In  In26  1  0.49215987  0.33773479  0.36464468  1
  In  In27  1  0.50251965  0.33402344  0.88454312  1
  In  In28  1  0.50069445  0.68087756  0.36463262  1
  In  In29  1  0.49928245  0.66208528  0.88864142  1
  In  In30  1  0.81799006  -0.00113937  0.37012135  1
  In  In31  1  0.82463422  0.01766648  0.88265228  1
  In  In32  1  0.84014763  0.34008133  0.37481601  1
  In  In33  1  0.83669299  0.33053972  0.87121496  1
  In  In34  1  0.83341366  0.64455814  0.36913765  1
  In  In35  1  0.83571622  0.65216355  0.87592957  1
  In  In36  1  0.00038752  0.18388983  0.37931350  1
  In  In37  1  -0.01507066  0.17328588  0.87659121  1
  In  In38  1  -0.00456441  0.51043845  0.37810481  1
  In  In39  1  0.00478925  0.50131277  0.87130153  1
  In  In40  1  0.01560896  0.82792374  0.37593422  1
  In  In41  1  0.01382100  0.83317823  0.87482545  1
  In  In42  1  0.33313240  0.15925988  0.36446032  1
  In  In43  1  0.33722835  0.18417232  0.87929563  1
  In  In44  1  0.32382334  0.48910515  0.36073071  1
  In  In45  1  0.34227855  0.48788124  0.88880296  1
  In  In46  1  0.33251381  0.82612204  0.36542203  1
  In  In47  1  0.33669636  0.83372581  0.88522003  1
  In  In48  1  0.66068656  0.15587580  0.36883375  1
  In  In49  1  0.66897294  0.17368880  0.87920280  1
  In  In50  1  0.67090525  0.50489705  0.37565516  1
  In  In51  1  0.69492369  0.46355960  0.91623372  1
  In  In52  1  0.65225221  0.83801722  0.37524552  1
  In  In53  1  0.65611792  0.83440857  0.87931484  1
  In  In54  1  0.18918736  0.00028325  0.13053241  1
  In  In55  1  0.16942403  0.00156323  0.61106670  1
  In  In56  1  0.17419069  0.34351129  0.12083054  1
  In  In57  1  0.16701388  0.33614562  0.62690818  1
  In  In58  1  0.16540203  0.66349154  0.12759806  1
  In  In59  1  0.16121535  0.65494595  0.61465941  1
  In  In60  1  0.50570270  -0.00313345  0.11997928  1
  In  In61  1  0.51078866  -0.00172347  0.62178494  1
  In  In62  1  0.49832599  0.32542297  0.11948246  1
  In  In63  1  0.50441772  0.33017092  0.63896595  1
  In  In64  1  0.48706759  0.66079468  0.12596900  1
  In  In65  1  0.48897763  0.66790858  0.62146261  1
  In  In66  1  0.79892634  0.00985099  0.11969900  1
  In  In67  1  0.81695481  -0.00440598  0.62706243  1
  In  In68  1  0.81854437  0.32856308  0.10098627  1
  In  In69  1  0.82567814  0.34112232  0.63218890  1
  In  In70  1  0.84429159  0.65750082  0.12677581  1
  In  In71  1  0.85187048  0.66622007  0.62981404  1
  In  In72  1  0.66418154  0.65885860  0.75964113  1
  In  In73  1  0.66507027  0.32978193  0.23626252  1
  In  In74  1  0.33762901  0.00591913  0.74929528  1
  In  In75  1  0.17317212  0.16618251  0.00351215  1
  In  In76  1  -0.00000390  -0.00128465  0.25668540  1
  In  In77  1  0.83357846  0.16755201  0.50965369  1
  In  In78  1  -0.00633371  0.00545219  0.75288605  1
  In  In79  1  0.66287078  0.66445058  0.24248186  1
  In  In80  1  0.83274263  0.83191014  0.00796398  1
  In  In81  1  0.49802412  0.50487857  0.49369733  1
  In  In82  1  0.49646524  0.15828688  0.49158515  1
  In  In83  1  0.32966672  0.66238885  0.74698425  1
  In  In84  1  -0.00096540  0.34055796  0.24020825  1
  In  In85  1  0.83768787  0.82915856  0.50552326  1
  Cu  Cu86  1  0.00667018  0.34633840  0.50173822  1
  Cu  Cu87  1  0.83123500  0.83796435  0.74875203  1
  Cu  Cu88  1  0.32232532  0.66815922  0.00811623  1
  Cu  Cu89  1  0.00405590  -0.01096269  0.00450976  1
  Cu  Cu90  1  0.50387880  0.49041075  0.76474455  1
  Cu  Cu91  1  0.16387602  0.17596923  0.75025781  1
  Cu  Cu92  1  0.50185881  0.83533973  0.75629010  1
  Cu  Cu93  1  0.66016970  0.67493011  0.00628048  1
  Cu  Cu94  1  -0.00015370  0.00687781  0.49786351  1
  Cu  Cu95  1  0.33243829  -0.00215538  0.48694950  1
  Cu  Cu96  1  0.16829275  0.83063853  0.24946543  1
  Cu  Cu97  1  0.83351101  0.49724769  0.75706694  1
  Cu  Cu98  1  0.82616720  0.16412943  0.24117395  1
  Cu  Cu99  1  0.00311455  0.33809900  -0.00595863  1
  Cu  Cu100  1  0.33398132  0.32994785  0.00843749  1
  Cu  Cu101  1  0.33891103  -0.00057905  0.00850395  1
  Cu  Cu102  1  0.82856969  0.82538175  0.24505539  1
  Cu  Cu103  1  0.32839605  0.33857434  0.50216756  1
  Cu  Cu104  1  0.16485421  0.82977128  0.74829826  1
  Cu  Cu105  1  0.50329043  0.16758491  0.75734372  1
  Cu  Cu106  1  0.17376964  0.17176241  0.25820291  1
  Cu  Cu107  1  0.82452505  0.17244023  0.75485571  1
  Cu  Cu108  1  0.67207108  0.66735789  0.49494303  1
  Cu  Cu109  1  0.33230014  0.67241658  0.49103621  1
  Cu  Cu110  1  0.67004480  0.32680441  0.50247183  1
  Cu  Cu111  1  0.16056946  0.50232915  0.24733849  1
  Cu  Cu112  1  0.00508164  0.66402675  0.50063340  1
  Cu  Cu113  1  0.00501724  0.66201935  0.00012641  1
  Cu  Cu114  1  0.16685535  0.49793779  0.74708080  1
  Se  Se115  1  0.08244766  0.07371644  0.06464880  1
  Se  Se116  1  0.08524884  0.09062700  0.54843650  1
  Se  Se117  1  0.08659972  0.41586380  0.05057311  1
  Se  Se118  1  0.09124958  0.42530634  0.55756553  1
  Se  Se119  1  0.08418775  0.74731997  0.05486611  1
  Se  Se120  1  0.08680257  0.75281210  0.55089599  1
  Se  Se121  1  0.41469261  0.09053580  0.05980907  1
  Se  Se122  1  0.40492674  0.07340199  0.55812651  1
  Se  Se123  1  0.41134106  0.41921916  0.06152076  1
  Se  Se124  1  0.41969600  0.40977410  0.56086785  1
  Se  Se125  1  0.41326316  0.75025109  0.05558514  1
  Se  Se126  1  0.42030065  0.74945913  0.54605461  1
  Se  Se127  1  0.76658603  0.10111281  0.03881980  1
  Se  Se128  1  0.73192553  0.07466600  0.55421911  1
  Se  Se129  1  0.75560346  0.42911499  0.03358232  1
  Se  Se130  1  0.75131341  0.41474126  0.55241565  1
  Se  Se131  1  0.74192125  0.74641914  0.07096597  1
  Se  Se132  1  0.74503567  0.74025688  0.56632924  1
  Se  Se133  1  0.26253419  0.24314204  0.06992377  1
  Se  Se134  1  0.24911506  0.25189162  0.55600537  1
  Se  Se135  1  0.24584776  0.57719414  0.05958824  1
  Se  Se136  1  0.25987183  0.58525062  0.55043598  1
  Se  Se137  1  0.25031028  0.91446984  0.05410293  1
  Se  Se138  1  0.24885640  0.91574557  0.54422638  1
  Se  Se139  1  0.60608643  0.29237633  0.04727133  1
  Se  Se140  1  0.58291442  0.25030661  0.55840010  1
  Se  Se141  1  0.57778206  0.58771789  0.05622038  1
  Se  Se142  1  0.59150372  0.58782055  0.55975623  1
  Se  Se143  1  0.58628302  0.91741058  0.04712690  1
  Se  Se144  1  0.57409567  0.90433697  0.55303468  1
  Se  Se145  1  0.92168533  0.25067412  0.04486568  1
  Se  Se146  1  0.92629508  0.26267264  0.56178402  1
  Se  Se147  1  0.91480939  0.58091525  0.04816210  1
  Se  Se148  1  0.91991097  0.58291053  0.55515220  1
  Se  Se149  1  0.91828756  0.92376246  0.07083631  1
  Se  Se150  1  0.92526745  0.92856985  0.56381131  1
  Se  Se151  1  0.08465095  0.25502334  0.45160487  1
  Se  Se152  1  0.08656428  0.25360661  0.93740458  1
  Se  Se153  1  0.08833831  0.58292603  0.44489478  1
  Se  Se154  1  0.08759933  0.58055775  0.94364663  1
  Se  Se155  1  0.08110182  0.91853364  0.44765457  1
  Se  Se156  1  0.08851744  0.90651679  0.95371975  1
  Se  Se157  1  0.40869444  0.25922264  0.44058487  1
  Se  Se158  1  0.42048525  0.24856317  0.95542519  1
  Se  Se159  1  0.41034546  0.59008903  0.43041598  1
  Se  Se160  1  0.40803274  0.58660572  0.95416797  1
  Se  Se161  1  0.41472489  0.91361195  0.43472745  1
  Se  Se162  1  0.41999564  0.91576563  0.95226514  1
  Se  Se163  1  0.74614464  0.24879955  0.43764463  1
  Se  Se164  1  0.77219782  0.23717552  0.94297638  1
  Se  Se165  1  0.75438774  0.57811890  0.44915250  1
  Se  Se166  1  0.74579566  0.59598293  0.95137540  1
  Se  Se167  1  0.74509487  0.91725954  0.44739072  1
  Se  Se168  1  0.74433513  0.92079969  0.94664721  1
  Se  Se169  1  0.25127528  0.09117919  0.44215949  1
  Se  Se170  1  0.26112326  0.07367304  0.93977499  1
  Se  Se171  1  0.25340433  0.42733099  0.44727623  1
  Se  Se172  1  0.24840604  0.40974936  0.95283957  1
  Se  Se173  1  0.24606551  0.75393658  0.43907131  1
  Se  Se174  1  0.24672580  0.75131444  0.94681256  1
  Se  Se175  1  0.58106884  0.06510717  0.43431588  1
  Se  Se176  1  0.58239926  0.09712250  0.95195991  1
  Se  Se177  1  0.58930808  0.40494850  0.44047675  1
  Se  Se178  1  0.56081318  0.43471200  0.95355163  1
  Se  Se179  1  0.58296121  0.74501435  0.44417118  1
  Se  Se180  1  0.57723496  0.75618766  0.95161327  1
  Se  Se181  1  0.91584725  0.07984649  0.43737038  1
  Se  Se182  1  0.92867572  0.07538224  0.94807715  1
  Se  Se183  1  0.91724967  0.42032427  0.44655598  1
  Se  Se184  1  0.91989734  0.41823250  0.93837884  1
  Se  Se185  1  0.92052648  0.74040365  0.43924869  1
  Se  Se186  1  0.92254777  0.74633090  0.94199466  1
  Se  Se187  1  0.25382342  0.26071529  0.30799528  1
  Se  Se188  1  0.25492315  0.25098081  0.80238442  1
  Se  Se189  1  0.24627972  0.58527194  0.29956693  1
  Se  Se190  1  0.24919778  0.57204074  0.81207893  1
  Se  Se191  1  0.24834427  0.91837699  0.30185710  1
  Se  Se192  1  0.24654544  0.91025870  0.80695064  1
  Se  Se193  1  0.57705668  0.24376297  0.30315258  1
  Se  Se194  1  0.58250887  0.25406231  0.81101143  1
  Se  Se195  1  0.57650775  0.57320540  0.30639775  1
  Se  Se196  1  0.58181316  0.57144863  0.82396199  1
  Se  Se197  1  0.59468984  0.92066063  0.29654904  1
  Se  Se198  1  0.58298446  0.92070454  0.80720077  1
  Se  Se199  1  0.90737301  0.24315576  0.30059728  1
  Se  Se200  1  0.91969486  0.25231449  0.79766429  1
  Se  Se201  1  0.91632290  0.57260169  0.29776546  1
  Se  Se202  1  0.92066052  0.58518671  0.80133761  1
  Se  Se203  1  0.90769486  0.90237784  0.31196719  1
  Se  Se204  1  0.90800571  0.91483591  0.81615844  1
  Se  Se205  1  0.08746922  0.09308253  0.31562130  1
  Se  Se206  1  0.09062480  0.09169864  0.81256125  1
  Se  Se207  1  0.08638374  0.41797747  0.31063489  1
  Se  Se208  1  0.08372355  0.41456301  0.80125169  1
  Se  Se209  1  0.08138623  0.74682162  0.29905857  1
  Se  Se210  1  0.08319597  0.74657869  0.80175990  1
  Se  Se211  1  0.43042501  0.09769405  0.29702559  1
  Se  Se212  1  0.42406476  0.08636223  0.81757595  1
  Se  Se213  1  0.42083403  0.42284614  0.29481348  1
  Se  Se214  1  0.41294644  0.40904015  0.81162394  1
  Se  Se215  1  0.41419548  0.74895080  0.29274649  1
  Se  Se216  1  0.41956024  0.75114121  0.81028585  1
  Se  Se217  1  0.74545697  0.08128861  0.29675885  1
  Se  Se218  1  0.74398470  0.08481577  0.80556423  1
  Se  Se219  1  0.75279932  0.41812462  0.30459746  1
  Se  Se220  1  0.74622617  0.42387134  0.81537846  1
  Se  Se221  1  0.75094986  0.74968562  0.31191783  1
  Se  Se222  1  0.75673603  0.75649883  0.81354588  1
  Se  Se223  1  0.25312687  0.08100593  0.20894247  1
  Se  Se224  1  0.23974852  0.09002528  0.69028952  1
  Se  Se225  1  0.24676138  0.41669188  0.19940170  1
  Se  Se226  1  0.25465744  0.41547181  0.69697672  1
  Se  Se227  1  0.24976709  0.75059728  0.19245950  1
  Se  Se228  1  0.24597928  0.75598772  0.68473064  1
  Se  Se229  1  0.59516401  0.09836539  0.16637605  1
  Se  Se230  1  0.57778256  0.08294224  0.69729129  1
  Se  Se231  1  0.57489842  0.42835539  0.18720350  1
  Se  Se232  1  0.58865792  0.41419294  0.70509781  1
  Se  Se233  1  0.57014949  0.75896026  0.19224327  1
  Se  Se234  1  0.57561902  0.74887115  0.69519511  1
  Se  Se235  1  0.91338526  0.08224245  0.18736740  1
  Se  Se236  1  0.90251497  0.09335675  0.68933382  1
  Se  Se237  1  0.90084125  0.41343535  0.17771916  1
  Se  Se238  1  0.91594816  0.41964387  0.69713325  1
  Se  Se239  1  0.91674602  0.74050075  0.20167752  1
  Se  Se240  1  0.92032710  0.75557602  0.70181317  1
  Se  Se241  1  0.09409511  0.24172287  0.19149609  1
  Se  Se242  1  0.07938396  0.25591255  0.69650043  1
  Se  Se243  1  0.07459453  0.57971156  0.19224086  1
  Se  Se244  1  0.08678273  0.58681018  0.69515914  1
  Se  Se245  1  0.08621587  0.91306702  0.19049440  1
  Se  Se246  1  0.08988095  0.91978231  0.69117720  1
  Se  Se247  1  0.41015321  0.26870228  0.19814728  1
  Se  Se248  1  0.41650417  0.24730284  0.70319114  1
  Se  Se249  1  0.40118584  0.60005035  0.20353661  1
  Se  Se250  1  0.43078792  0.56921801  0.69686812  1
  Se  Se251  1  0.40668331  0.93733427  0.18971812  1
  Se  Se252  1  0.41959875  0.90649443  0.69117117  1
  Se  Se253  1  0.75145640  0.23993899  0.17668561  1
  Se  Se254  1  0.74267653  0.25590060  0.69884192  1
  Se  Se255  1  0.75015699  0.56934259  0.18619084  1
  Se  Se256  1  0.75524721  0.57715896  0.69200671  1
  Se  Se257  1  0.75044500  0.91840635  0.19876605  1
  Se  Se258  1  0.74142733  0.91970489  0.70279520  1
