# generated using pymatgen
data_In86Cu29Se144
_symmetry_space_group_name_H-M   'P 1'
_cell_length_a   17.62064081
_cell_length_b   17.62033682
_cell_length_c   23.48157140
_cell_angle_alpha   90.01305452
_cell_angle_beta   89.97533599
_cell_angle_gamma   90.01303277
_symmetry_Int_Tables_number   1
_chemical_formula_structural   In86Cu29Se144
_chemical_formula_sum   'In86 Cu29 Se144'
_cell_volume   7290.59541608
_cell_formula_units_Z   1
loop_
 _symmetry_equiv_pos_site_id
 _symmetry_equiv_pos_as_xyz
  1  'x, y, z'
loop_
 _atom_site_type_symbol
 _atom_site_label
 _atom_site_symmetry_multiplicity
 _atom_site_fract_x
 _atom_site_fract_y
 _atom_site_fract_z
 _atom_site_occupancy
  In  In0  1  0.01119088  0.14946148  0.13458542  1
  In  In1  1  -0.01570020  0.15098165  0.61239481  1
  In  In2  1  -0.00283963  0.51188078  0.11926527  1
  In  In3  1  -0.01268127  0.50486454  0.62365639  1
  In  In4  1  0.00574435  0.84232645  0.11172658  1
  In  In5  1  -0.00072458  0.84578647  0.63166987  1
  In  In6  1  0.32949365  0.15568289  0.12865294  1
  In  In7  1  0.33503583  0.16754636  0.61226719  1
  In  In8  1  0.34579599  0.49641759  0.13296385  1
  In  In9  1  0.35434897  0.50636229  0.62738970  1
  In  In10  1  0.32157478  0.84724587  0.13358207  1
  In  In11  1  0.33889126  0.82579743  0.62750060  1
  In  In12  1  0.65732947  0.16963857  0.13837782  1
  In  In13  1  0.65802818  0.16870756  0.62525291  1
  In  In14  1  0.66736058  0.49225562  0.12610687  1
  In  In15  1  0.66822693  0.48124348  0.63596311  1
  In  In16  1  0.66744382  0.83734243  0.12630322  1
  In  In17  1  0.66284186  0.85477381  0.63620005  1
  In  In18  1  0.20375473  0.04549123  0.32882543  1
  In  In19  1  0.15836501  0.01341924  0.88734362  1
  In  In20  1  0.17602610  0.30006058  0.36411299  1
  In  In21  1  0.16208586  0.32064725  0.88225163  1
  In  In22  1  0.17689243  0.66484767  0.37585494  1
  In  In23  1  0.17948880  0.67045646  0.87779583  1
  In  In24  1  0.50395371  -0.00361716  0.37562871  1
  In  In25  1  0.50721653  -0.00102286  0.87791484  1
  In  In26  1  0.48814257  0.31289083  0.35903674  1
  In  In27  1  0.50830590  0.31723536  0.87066038  1
  In  In28  1  0.50513159  0.66997614  0.37249578  1
  In  In29  1  0.50916950  0.67520231  0.86160971  1
  In  In30  1  0.84461837  0.00439445  0.36808159  1
  In  In31  1  0.82210752  -0.01773151  0.85828472  1
  In  In32  1  0.82068023  0.33744858  0.37962834  1
  In  In33  1  0.82732934  0.33666623  0.87854533  1
  In  In34  1  0.81785770  0.66436788  0.37711030  1
  In  In35  1  0.82170826  0.67597304  0.87903357  1
  In  In36  1  0.00812292  0.15665652  0.37987494  1
  In  In37  1  0.00131109  0.16518372  0.87553901  1
  In  In38  1  -0.00601918  0.48693265  0.37627279  1
  In  In39  1  -0.00789669  0.48247034  0.87876629  1
  In  In40  1  -0.00285377  0.84844199  0.37630670  1
  In  In41  1  -0.01320784  0.84737584  0.88381488  1
  In  In42  1  0.34871397  0.16141190  0.37223153  1
  In  In43  1  0.33847282  0.16118458  0.88727489  1
  In  In44  1  0.33859411  0.50218303  0.36988555  1
  In  In45  1  0.33050406  0.50613350  0.87572933  1
  In  In46  1  0.34487736  0.84567537  0.36623057  1
  In  In47  1  0.33982043  0.83087702  0.88484419  1
  In  In48  1  0.66337584  0.16481157  0.37403722  1
  In  In49  1  0.66010276  0.15285480  0.85318324  1
  In  In50  1  0.66725402  0.49946029  0.37302687  1
  In  In51  1  0.67093456  0.51344067  0.86481537  1
  In  In52  1  0.66628024  0.82354714  0.37206007  1
  In  In53  1  0.67301047  0.83747816  0.86609000  1
  In  In54  1  0.16851527  -0.00471265  0.12384447  1
  In  In55  1  0.15920581  0.00668968  0.62452437  1
  In  In56  1  0.18501515  0.32406663  0.13021610  1
  In  In57  1  0.17735219  0.32329890  0.62160933  1
  In  In58  1  0.16759796  0.67546856  0.12180732  1
  In  In59  1  0.17423041  0.68255457  0.62674357  1
  In  In60  1  0.48333977  0.02988321  0.15133582  1
  In  In61  1  0.51531357  0.01331705  0.60718295  1
  In  In62  1  0.50191613  0.31202726  0.14235966  1
  In  In63  1  0.51216837  0.32217871  0.62574697  1
  In  In64  1  0.50538304  0.66833462  0.13175693  1
  In  In65  1  0.49734572  0.67324287  0.63135207  1
  In  In66  1  0.83907520  -0.00451725  0.12982277  1
  In  In67  1  0.79569304  0.03886917  0.67160714  1
  In  In68  1  0.81994010  0.33270061  0.12513513  1
  In  In69  1  0.81250427  0.31542977  0.61232903  1
  In  In70  1  0.81954745  0.66386374  0.11325595  1
  In  In71  1  0.82592218  0.65521111  0.62372454  1
  In  In72  1  0.83412099  0.16734290  0.00135284  1
  In  In73  1  0.16355727  0.84110621  0.50180786  1
  In  In74  1  0.16285449  0.49434382  0.49907005  1
  In  In75  1  0.83322769  0.84182220  0.50970482  1
  In  In76  1  0.16360747  0.49530359  -0.00126879  1
  In  In77  1  -0.00004982  0.66872858  0.75136107  1
  In  In78  1  0.50737189  0.49006123  0.50671070  1
  In  In79  1  0.49835227  0.84844487  0.00749109  1
  In  In80  1  0.00168128  0.33003133  0.24777486  1
  In  In81  1  0.33799129  -0.00248508  0.75863267  1
  In  In82  1  0.50068250  0.49623232  -0.00775246  1
  In  In83  1  -0.00299919  0.67449105  0.24194439  1
  In  In84  1  0.00050721  0.32825474  0.75302333  1
  In  In85  1  0.34276518  0.33584792  0.74432035  1
  Cu  Cu86  1  0.82766346  0.50679738  0.24822784  1
  Cu  Cu87  1  0.50796512  0.50538883  0.25079370  1
  Cu  Cu88  1  0.66203260  0.32479402  0.49690665  1
  Cu  Cu89  1  0.82953719  0.16933707  0.25280074  1
  Cu  Cu90  1  -0.00480409  0.00087940  0.00192743  1
  Cu  Cu91  1  0.50209362  0.84080377  0.74940060  1
  Cu  Cu92  1  0.66511565  0.32875236  0.00567984  1
  Cu  Cu93  1  0.50734234  0.82877553  0.25150571  1
  Cu  Cu94  1  -0.01227093  0.66440626  0.50152087  1
  Cu  Cu95  1  0.67569237  0.00282305  0.50416748  1
  Cu  Cu96  1  0.00521540  0.00814251  0.49669613  1
  Cu  Cu97  1  0.66895344  0.00485025  -0.00359948  1
  Cu  Cu98  1  0.33188147  0.00072004  0.48749614  1
  Cu  Cu99  1  0.16755731  0.83613052  0.75360649  1
  Cu  Cu100  1  0.34273300  0.32169637  0.00572776  1
  Cu  Cu101  1  0.66721685  0.67072339  -0.00562303  1
  Cu  Cu102  1  0.33132141  0.67402195  0.00320356  1
  Cu  Cu103  1  -0.00655961  0.32986320  0.49451961  1
  Cu  Cu104  1  0.66250269  0.66535142  0.49677697  1
  Cu  Cu105  1  0.82891706  0.83490576  0.24741503  1
  Cu  Cu106  1  0.16906483  0.16373710  0.75521214  1
  Cu  Cu107  1  0.83402087  0.49526206  0.75019312  1
  Cu  Cu108  1  0.34011513  0.67059848  0.50353418  1
  Cu  Cu109  1  -0.00143483  0.32612906  0.00187959  1
  Cu  Cu110  1  0.33003128  0.32435262  0.48968795  1
  Cu  Cu111  1  0.17571511  0.50032978  0.25486269  1
  Cu  Cu112  1  -0.00914126  0.66616696  -0.00269959  1
  Cu  Cu113  1  0.17280686  0.50847276  0.75206639  1
  Cu  Cu114  1  0.16205512  0.82984854  0.24181450  1
  Se  Se115  1  0.08271851  0.08004173  0.05474343  1
  Se  Se116  1  0.09121078  0.09085656  0.54967229  1
  Se  Se117  1  0.07935905  0.40543911  0.06395332  1
  Se  Se118  1  0.07170290  0.40529962  0.56129383  1
  Se  Se119  1  0.07954730  0.74299519  0.05027840  1
  Se  Se120  1  0.06999720  0.74529535  0.55846739  1
  Se  Se121  1  0.42837326  0.09069632  0.06193809  1
  Se  Se122  1  0.41482819  0.08234547  0.54473488  1
  Se  Se123  1  0.42166646  0.40726824  0.06094274  1
  Se  Se124  1  0.40446409  0.40098331  0.55703656  1
  Se  Se125  1  0.41353447  0.74894965  0.06410726  1
  Se  Se126  1  0.42357759  0.75398308  0.55475220  1
  Se  Se127  1  0.74345164  0.08265148  0.06417371  1
  Se  Se128  1  0.75243227  0.07892524  0.56871385  1
  Se  Se129  1  0.74923976  0.41736722  0.05185196  1
  Se  Se130  1  0.73836876  0.41493486  0.55163727  1
  Se  Se131  1  0.74362235  0.75858965  0.04972106  1
  Se  Se132  1  0.73957764  0.74634131  0.56013949  1
  Se  Se133  1  0.25236788  0.24243906  0.05485427  1
  Se  Se134  1  0.24498838  0.24367091  0.54448797  1
  Se  Se135  1  0.25907009  0.58104117  0.05861371  1
  Se  Se136  1  0.25340712  0.58896103  0.55766876  1
  Se  Se137  1  0.24335377  0.90745679  0.05414400  1
  Se  Se138  1  0.26042855  0.92711082  0.56031556  1
  Se  Se139  1  0.58350923  0.24880924  0.06240405  1
  Se  Se140  1  0.57688904  0.24151231  0.54777542  1
  Se  Se141  1  0.58681711  0.58967606  0.05405499  1
  Se  Se142  1  0.58961763  0.58750767  0.56385340  1
  Se  Se143  1  0.58814904  0.93771327  0.06485088  1
  Se  Se144  1  0.59121844  0.91195039  0.54920647  1
  Se  Se145  1  0.92449344  0.24962075  0.06912004  1
  Se  Se146  1  0.91149455  0.24626846  0.54883881  1
  Se  Se147  1  0.90934783  0.58045893  0.04865652  1
  Se  Se148  1  0.90598639  0.57739530  0.54989460  1
  Se  Se149  1  0.90718088  0.91743292  0.05054958  1
  Se  Se150  1  0.92585556  0.93376686  0.56135395  1
  Se  Se151  1  0.08355466  0.25406082  0.44211811  1
  Se  Se152  1  0.08062034  0.24090004  0.95132201  1
  Se  Se153  1  0.07322869  0.59072419  0.44039946  1
  Se  Se154  1  0.07393014  0.58673645  0.93726105  1
  Se  Se155  1  0.08783007  0.93312967  0.43656456  1
  Se  Se156  1  0.08153822  0.91717654  0.94995532  1
  Se  Se157  1  0.42428562  0.24566172  0.44482291  1
  Se  Se158  1  0.42815440  0.24776376  0.94743452  1
  Se  Se159  1  0.41645660  0.58344114  0.44687274  1
  Se  Se160  1  0.41336689  0.59937814  0.94101065  1
  Se  Se161  1  0.42007805  0.91261133  0.44631065  1
  Se  Se162  1  0.40576756  0.93683486  0.94812627  1
  Se  Se163  1  0.74943863  0.24292672  0.44578491  1
  Se  Se164  1  0.73728312  0.24638229  0.94025774  1
  Se  Se165  1  0.74571189  0.57825955  0.44812797  1
  Se  Se166  1  0.74774345  0.58085092  0.94486871  1
  Se  Se167  1  0.74952584  0.92158122  0.43840287  1
  Se  Se168  1  0.74666124  0.91921107  0.94087469  1
  Se  Se169  1  0.24906989  0.08190857  0.43221049  1
  Se  Se170  1  0.24450434  0.09333930  0.95227217  1
  Se  Se171  1  0.25084629  0.40910413  0.43399872  1
  Se  Se172  1  0.26251281  0.40340352  0.94473935  1
  Se  Se173  1  0.25875235  0.75110682  0.44437379  1
  Se  Se174  1  0.24695328  0.75638230  0.95201147  1
  Se  Se175  1  0.58891691  0.07719414  0.44554842  1
  Se  Se176  1  0.59236713  0.08873756  0.93939234  1
  Se  Se177  1  0.58180144  0.40352069  0.43523425  1
  Se  Se178  1  0.59532021  0.40830553  0.93737629  1
  Se  Se179  1  0.58165830  0.75081874  0.44569859  1
  Se  Se180  1  0.58190457  0.75465509  0.94166406  1
  Se  Se181  1  0.91241238  0.08472479  0.44619324  1
  Se  Se182  1  0.91242142  0.07300505  0.93748764  1
  Se  Se183  1  0.90894353  0.41784094  0.44826771  1
  Se  Se184  1  0.91242273  0.40902792  0.95284440  1
  Se  Se185  1  0.91639721  0.74913888  0.43987527  1
  Se  Se186  1  0.90971828  0.75286785  0.94641536  1
  Se  Se187  1  0.28292607  0.25695782  0.29807260  1
  Se  Se188  1  0.25172595  0.24759480  0.80929015  1
  Se  Se189  1  0.25678283  0.58934628  0.30353476  1
  Se  Se190  1  0.25551674  0.59034933  0.80439729  1
  Se  Se191  1  0.24361821  0.90802622  0.30098798  1
  Se  Se192  1  0.24301537  0.91439617  0.81875716  1
  Se  Se193  1  0.59424982  0.25189598  0.30042389  1
  Se  Se194  1  0.59508303  0.25829263  0.79413918  1
  Se  Se195  1  0.58946556  0.58746248  0.30550536  1
  Se  Se196  1  0.56896302  0.57222733  0.80012403  1
  Se  Se197  1  0.58800868  0.91263139  0.30658591  1
  Se  Se198  1  0.58513819  0.92337522  0.80342126  1
  Se  Se199  1  0.91243788  0.24847830  0.31306964  1
  Se  Se200  1  0.90471057  0.24246954  0.80979628  1
  Se  Se201  1  0.91503487  0.58039221  0.30736687  1
  Se  Se202  1  0.91367242  0.57410876  0.81125214  1
  Se  Se203  1  0.91801562  0.91408225  0.29819334  1
  Se  Se204  1  0.92176386  0.90922822  0.79847244  1
  Se  Se205  1  0.06582499  0.07491153  0.30039317  1
  Se  Se206  1  0.08355368  0.08255094  0.80669910  1
  Se  Se207  1  0.09648013  0.41723371  0.31153134  1
  Se  Se208  1  0.09749749  0.42224421  0.80944627  1
  Se  Se209  1  0.08666978  0.75462705  0.31106314  1
  Se  Se210  1  0.08754075  0.75615310  0.81432170  1
  Se  Se211  1  0.40980167  0.06118503  0.30534769  1
  Se  Se212  1  0.42674036  0.09489117  0.81025635  1
  Se  Se213  1  0.42296435  0.42248163  0.30274376  1
  Se  Se214  1  0.42233294  0.42091441  0.81427601  1
  Se  Se215  1  0.41884307  0.74811888  0.30389026  1
  Se  Se216  1  0.41617274  0.76291621  0.80562458  1
  Se  Se217  1  0.75065270  0.08214544  0.30612503  1
  Se  Se218  1  0.75965073  0.08220696  0.79195660  1
  Se  Se219  1  0.75146308  0.41904873  0.30290075  1
  Se  Se220  1  0.74992832  0.41543762  0.80534459  1
  Se  Se221  1  0.75230498  0.74642083  0.30085516  1
  Se  Se222  1  0.73300257  0.73200315  0.80363886  1
  Se  Se223  1  0.24448424  0.07515785  0.19845584  1
  Se  Se224  1  0.25229011  0.08938614  0.69271755  1
  Se  Se225  1  0.25355005  0.41872819  0.19681993  1
  Se  Se226  1  0.24564085  0.42736058  0.68749276  1
  Se  Se227  1  0.25046234  0.74508905  0.19576497  1
  Se  Se228  1  0.25298194  0.75527540  0.70145588  1
  Se  Se229  1  0.58740739  0.08801237  0.21391216  1
  Se  Se230  1  0.58564500  0.07245238  0.69138461  1
  Se  Se231  1  0.58112027  0.41599971  0.19511702  1
  Se  Se232  1  0.54531402  0.43842977  0.68614106  1
  Se  Se233  1  0.59250626  0.74902342  0.19656161  1
  Se  Se234  1  0.58463569  0.75702810  0.69586782  1
  Se  Se235  1  0.91206944  0.08553380  0.19956906  1
  Se  Se236  1  0.93044858  0.08543322  0.69949840  1
  Se  Se237  1  0.91286773  0.42734270  0.19065242  1
  Se  Se238  1  0.90924776  0.41241200  0.68927186  1
  Se  Se239  1  0.90607061  0.75815602  0.18082916  1
  Se  Se240  1  0.90913526  0.75021684  0.68843463  1
  Se  Se241  1  0.09960701  0.23814780  0.19955122  1
  Se  Se242  1  0.09194014  0.24254609  0.69134380  1
  Se  Se243  1  0.09309893  0.57560322  0.19319284  1
  Se  Se244  1  0.09094522  0.57883858  0.68792168  1
  Se  Se245  1  0.07818830  0.91365541  0.19101850  1
  Se  Se246  1  0.09038598  0.92039966  0.69803906  1
  Se  Se247  1  0.39080839  0.25545988  0.20016583  1
  Se  Se248  1  0.42326879  0.23289784  0.69058098  1
  Se  Se249  1  0.42065787  0.58715886  0.19900367  1
  Se  Se250  1  0.40435220  0.60156445  0.69914048  1
  Se  Se251  1  0.42312783  0.91057813  0.19827702  1
  Se  Se252  1  0.42439879  0.92117872  0.68734456  1
  Se  Se253  1  0.74892648  0.25476077  0.20031172  1
  Se  Se254  1  0.72930535  0.26458616  0.69325707  1
  Se  Se255  1  0.74684961  0.58538845  0.18996511  1
  Se  Se256  1  0.74846383  0.57608927  0.69677886  1
  Se  Se257  1  0.74673310  0.92176175  0.19685476  1
  Se  Se258  1  0.77156487  0.90044147  0.70029758  1
