# generated using pymatgen
data_In86Cu29Se144
_symmetry_space_group_name_H-M   'P 1'
_cell_length_a   17.57917602
_cell_length_b   17.57770041
_cell_length_c   23.44116031
_cell_angle_alpha   89.97929662
_cell_angle_beta   89.98934374
_cell_angle_gamma   89.98178133
_symmetry_Int_Tables_number   1
_chemical_formula_structural   In86Cu29Se144
_chemical_formula_sum   'In86 Cu29 Se144'
_cell_volume   7243.35248770
_cell_formula_units_Z   1
loop_
 _symmetry_equiv_pos_site_id
 _symmetry_equiv_pos_as_xyz
  1  'x, y, z'
loop_
 _atom_site_type_symbol
 _atom_site_label
 _atom_site_symmetry_multiplicity
 _atom_site_fract_x
 _atom_site_fract_y
 _atom_site_fract_z
 _atom_site_occupancy
  In  In0  1  -0.00097869  0.16522768  0.11925630  1
  In  In1  1  -0.00966663  0.16069462  0.62104623  1
  In  In2  1  0.00790002  0.50631539  0.11908417  1
  In  In3  1  -0.00130443  0.50421436  0.61156137  1
  In  In4  1  -0.00830726  0.82311840  0.11984272  1
  In  In5  1  0.01435720  0.82307968  0.62581774  1
  In  In6  1  0.32276331  0.17291802  0.13056907  1
  In  In7  1  0.33163448  0.18523492  0.62836022  1
  In  In8  1  0.32114723  0.48582479  0.11813876  1
  In  In9  1  0.33084604  0.51125611  0.63901937  1
  In  In10  1  0.33419568  0.84580133  0.12704017  1
  In  In11  1  0.32070654  0.82436887  0.62064167  1
  In  In12  1  0.68609293  0.17601715  0.12633343  1
  In  In13  1  0.67426110  0.17367312  0.62488159  1
  In  In14  1  0.66720051  0.49789677  0.12233658  1
  In  In15  1  0.66488566  0.49097184  0.62631298  1
  In  In16  1  0.66597397  0.81720438  0.12563723  1
  In  In17  1  0.66756695  0.84566701  0.61784376  1
  In  In18  1  0.17108371  -0.00507106  0.38067858  1
  In  In19  1  0.15633595  0.00930571  0.87939961  1
  In  In20  1  0.16940786  0.33045259  0.38141440  1
  In  In21  1  0.17216755  0.33066803  0.88101774  1
  In  In22  1  0.15245931  0.67527996  0.38654331  1
  In  In23  1  0.17506570  0.65672408  0.88233454  1
  In  In24  1  0.48417625  0.00135674  0.37690483  1
  In  In25  1  0.49741764  0.00237658  0.87395137  1
  In  In26  1  0.50023213  0.33693721  0.36528123  1
  In  In27  1  0.52129609  0.35246800  0.85297086  1
  In  In28  1  0.51764016  0.66335504  0.37982217  1
  In  In29  1  0.48318832  0.66427572  0.86979277  1
  In  In30  1  0.84525659  0.00363452  0.37503422  1
  In  In31  1  0.85290495  -0.01093960  0.87969999  1
  In  In32  1  0.82811322  0.34059120  0.37837487  1
  In  In33  1  0.82193539  0.34486506  0.88009659  1
  In  In34  1  0.82547886  0.65503797  0.36644321  1
  In  In35  1  0.83519507  0.66667560  0.87951196  1
  In  In36  1  -0.00258098  0.17196062  0.38458139  1
  In  In37  1  0.00610917  0.16221208  0.87868709  1
  In  In38  1  -0.01273794  0.51182189  0.38618178  1
  In  In39  1  -0.00396998  0.50508036  0.88269655  1
  In  In40  1  0.01280495  0.83650705  0.37324587  1
  In  In41  1  -0.00682850  0.84574261  0.87733347  1
  In  In42  1  0.32911016  0.16134463  0.36976437  1
  In  In43  1  0.32678877  0.17226406  0.87297177  1
  In  In44  1  0.33212969  0.48695562  0.37292448  1
  In  In45  1  0.33722200  0.49561874  0.87511849  1
  In  In46  1  0.32398394  0.83889544  0.38226653  1
  In  In47  1  0.33401560  0.81546986  0.87486588  1
  In  In48  1  0.67085113  0.18152685  0.37037953  1
  In  In49  1  0.66908776  0.18731019  0.87325085  1
  In  In50  1  0.67758786  0.50940864  0.36681988  1
  In  In51  1  0.67899778  0.49229423  0.87944709  1
  In  In52  1  0.67097177  0.81041002  0.37983376  1
  In  In53  1  0.67668317  0.83870159  0.87647591  1
  In  In54  1  0.17132450  0.00526772  0.12194874  1
  In  In55  1  0.15564876  -0.00706226  0.62168902  1
  In  In56  1  0.17013032  0.33488200  0.11834385  1
  In  In57  1  0.17514663  0.34369970  0.62021290  1
  In  In58  1  0.15630664  0.65947787  0.12265608  1
  In  In59  1  0.16670129  0.67235452  0.61575766  1
  In  In60  1  0.49383014  -0.01136760  0.12811230  1
  In  In61  1  0.50822973  -0.00350314  0.62190720  1
  In  In62  1  0.49070590  0.34014265  0.12779343  1
  In  In63  1  0.49321996  0.34920198  0.65125083  1
  In  In64  1  0.51688962  0.66153015  0.12721572  1
  In  In65  1  0.48630407  0.65669318  0.62552258  1
  In  In66  1  0.84272103  0.00639103  0.11890437  1
  In  In67  1  0.82824504  0.01329939  0.62678818  1
  In  In68  1  0.82062308  0.32330342  0.12126556  1
  In  In69  1  0.83041911  0.33527973  0.62121760  1
  In  In70  1  0.83237957  0.66188785  0.12298772  1
  In  In71  1  0.84606472  0.66129283  0.61862156  1
  In  In72  1  0.66197005  -0.00192362  0.24923371  1
  In  In73  1  0.50203978  0.16820087  0.50650719  1
  In  In74  1  -0.00419164  0.33604783  0.25329870  1
  In  In75  1  0.00017308  0.33530000  0.74619678  1
  In  In76  1  0.66887060  0.00838717  0.74785415  1
  In  In77  1  -0.00169856  0.66747121  0.75095376  1
  In  In78  1  0.50060647  0.50136936  0.50408598  1
  In  In79  1  0.00269625  0.00046552  0.24264407  1
  In  In80  1  0.49762078  0.16901193  -0.00524522  1
  In  In81  1  0.66791417  0.66552606  0.74793825  1
  In  In82  1  0.83825429  0.83269477  0.49889503  1
  In  In83  1  0.32968078  0.00366491  0.75675204  1
  In  In84  1  0.33534554  0.66081936  0.25325661  1
  In  In85  1  0.50096115  0.82472214  0.00370831  1
  Cu  Cu86  1  0.49733263  0.16981939  0.24780567  1
  Cu  Cu87  1  -0.00146518  0.33339407  -0.00034940  1
  Cu  Cu88  1  0.83179089  0.49946043  0.24706556  1
  Cu  Cu89  1  0.15982481  0.16422680  0.75287274  1
  Cu  Cu90  1  0.00088546  0.00443161  0.50158462  1
  Cu  Cu91  1  0.83147452  0.82230636  0.24427928  1
  Cu  Cu92  1  0.49477272  0.82947762  0.74639929  1
  Cu  Cu93  1  0.00573954  -0.00190252  0.00126058  1
  Cu  Cu94  1  0.33404290  0.33276760  0.50166251  1
  Cu  Cu95  1  0.16998992  0.16657003  0.25248525  1
  Cu  Cu96  1  0.32986437  0.66563840  0.50304390  1
  Cu  Cu97  1  0.33557139  0.33622847  -0.00140349  1
  Cu  Cu98  1  0.67056847  0.66248863  0.00006871  1
  Cu  Cu99  1  0.83552445  0.16923661  0.75020825  1
  Cu  Cu100  1  0.50225711  0.49625061  0.24761367  1
  Cu  Cu101  1  0.00211490  0.66961029  -0.00024082  1
  Cu  Cu102  1  0.16799432  0.82624527  0.74778186  1
  Cu  Cu103  1  0.66746272  0.33483878  0.50081540  1
  Cu  Cu104  1  0.16473365  0.49717505  0.24633292  1
  Cu  Cu105  1  0.17143693  0.83095408  0.25649630  1
  Cu  Cu106  1  0.00113181  0.32988658  0.50161606  1
  Cu  Cu107  1  0.66568964  0.00242938  0.50019644  1
  Cu  Cu108  1  0.16975679  0.50313188  0.75182094  1
  Cu  Cu109  1  0.32991253  0.65928337  0.00032522  1
  Cu  Cu110  1  0.49760399  0.83218620  0.25241491  1
  Cu  Cu111  1  0.32595212  0.00029469  -0.00066850  1
  Cu  Cu112  1  0.66638020  0.33710397  -0.00141074  1
  Cu  Cu113  1  0.67970983  0.00098214  -0.00096022  1
  Cu  Cu114  1  0.32519089  -0.00053952  0.50033882  1
  Se  Se115  1  0.08700241  0.08562888  0.05332862  1
  Se  Se116  1  0.08497490  0.08774157  0.55451749  1
  Se  Se117  1  0.08444802  0.41613060  0.05191883  1
  Se  Se118  1  0.08513246  0.41603456  0.55102136  1
  Se  Se119  1  0.08677586  0.75211064  0.05310386  1
  Se  Se120  1  0.07473925  0.74276629  0.54758063  1
  Se  Se121  1  0.41141721  0.07712027  0.05852737  1
  Se  Se122  1  0.40491324  0.07798028  0.56281949  1
  Se  Se123  1  0.41971695  0.41988595  0.05088636  1
  Se  Se124  1  0.41216188  0.41143559  0.56523522  1
  Se  Se125  1  0.40875165  0.73774028  0.06502876  1
  Se  Se126  1  0.41472890  0.74743372  0.55629888  1
  Se  Se127  1  0.75511083  0.08867642  0.05364067  1
  Se  Se128  1  0.74715689  0.08749692  0.55245367  1
  Se  Se129  1  0.75218509  0.41787899  0.05250638  1
  Se  Se130  1  0.75036224  0.42127884  0.55189577  1
  Se  Se131  1  0.75177386  0.74900406  0.05248133  1
  Se  Se132  1  0.74560661  0.74535079  0.55788871  1
  Se  Se133  1  0.25348239  0.24904692  0.05104301  1
  Se  Se134  1  0.24777758  0.24919185  0.55174211  1
  Se  Se135  1  0.24392332  0.57986410  0.05531727  1
  Se  Se136  1  0.25381189  0.57785847  0.55860343  1
  Se  Se137  1  0.24792758  0.91396482  0.05370426  1
  Se  Se138  1  0.24351704  0.91396977  0.55422619  1
  Se  Se139  1  0.58698126  0.25438969  0.05949885  1
  Se  Se140  1  0.58121157  0.26759369  0.56566898  1
  Se  Se141  1  0.58355398  0.58009667  0.05065805  1
  Se  Se142  1  0.59240989  0.59223732  0.56009539  1
  Se  Se143  1  0.59404181  0.92302318  0.05748758  1
  Se  Se144  1  0.57924954  0.91667398  0.54609245  1
  Se  Se145  1  0.91559467  0.25069596  0.05438493  1
  Se  Se146  1  0.91290506  0.24985819  0.55425373  1
  Se  Se147  1  0.91808569  0.58425231  0.05232331  1
  Se  Se148  1  0.92755993  0.59546531  0.54331092  1
  Se  Se149  1  0.91822298  0.91603843  0.05289962  1
  Se  Se150  1  0.92170091  0.92400838  0.56344370  1
  Se  Se151  1  0.08757203  0.24715791  0.45055544  1
  Se  Se152  1  0.08371029  0.25000802  0.94680670  1
  Se  Se153  1  0.09727911  0.56647704  0.44629769  1
  Se  Se154  1  0.08473041  0.58141323  0.94990980  1
  Se  Se155  1  0.08204467  0.91818694  0.44884254  1
  Se  Se156  1  0.08745244  0.91399311  0.94693894  1
  Se  Se157  1  0.41600423  0.25566413  0.44078294  1
  Se  Se158  1  0.41682153  0.26316780  0.93396157  1
  Se  Se159  1  0.40870537  0.58782154  0.43946050  1
  Se  Se160  1  0.41703304  0.58187703  0.94628696  1
  Se  Se161  1  0.41313737  0.91761297  0.45029266  1
  Se  Se162  1  0.41162520  0.91956522  0.94322911  1
  Se  Se163  1  0.74998066  0.25028677  0.44765741  1
  Se  Se164  1  0.75244451  0.25103475  0.95055854  1
  Se  Se165  1  0.74238383  0.59020259  0.44328734  1
  Se  Se166  1  0.75599732  0.58054089  0.94751326  1
  Se  Se167  1  0.74510577  0.92383996  0.43736579  1
  Se  Se168  1  0.75934363  0.91354850  0.94745507  1
  Se  Se169  1  0.24929374  0.08765978  0.44531664  1
  Se  Se170  1  0.25036458  0.08693296  0.94317929  1
  Se  Se171  1  0.25156676  0.41726542  0.44912992  1
  Se  Se172  1  0.24941282  0.42068625  0.94725610  1
  Se  Se173  1  0.24718855  0.75114690  0.45017232  1
  Se  Se174  1  0.25032181  0.74967098  0.95059165  1
  Se  Se175  1  0.58771565  0.08321429  0.43753795  1
  Se  Se176  1  0.59510321  0.07666320  0.93950020  1
  Se  Se177  1  0.58728472  0.41357677  0.43889565  1
  Se  Se178  1  0.58156876  0.41507006  0.94224385  1
  Se  Se179  1  0.57762187  0.75444380  0.45233757  1
  Se  Se180  1  0.58946838  0.74171925  0.93729487  1
  Se  Se181  1  0.91341618  0.08554683  0.45054456  1
  Se  Se182  1  0.92083227  0.08306159  0.94878751  1
  Se  Se183  1  0.91535329  0.41349141  0.44890010  1
  Se  Se184  1  0.91449489  0.41757248  0.94774724  1
  Se  Se185  1  0.91827830  0.74730046  0.43051514  1
  Se  Se186  1  0.91955352  0.75180090  0.94428891  1
  Se  Se187  1  0.24900886  0.25360143  0.30627373  1
  Se  Se188  1  0.24198447  0.25044704  0.80301005  1
  Se  Se189  1  0.23968022  0.57736148  0.31184151  1
  Se  Se190  1  0.25408424  0.58378317  0.80672267  1
  Se  Se191  1  0.25168040  0.91946066  0.30578117  1
  Se  Se192  1  0.24248723  0.90755609  0.81298297  1
  Se  Se193  1  0.58323523  0.25172750  0.29907086  1
  Se  Se194  1  0.58455515  0.24393108  0.79606139  1
  Se  Se195  1  0.58191063  0.58297964  0.30067195  1
  Se  Se196  1  0.58393207  0.58092162  0.81445903  1
  Se  Se197  1  0.57842173  0.91024372  0.31517950  1
  Se  Se198  1  0.57557441  0.90864476  0.80584779  1
  Se  Se199  1  0.90846213  0.24268603  0.31109007  1
  Se  Se200  1  0.91376176  0.24988650  0.81253414  1
  Se  Se201  1  0.91896034  0.57867600  0.30124123  1
  Se  Se202  1  0.90718384  0.57349460  0.80624449  1
  Se  Se203  1  0.91042952  0.90658956  0.30221303  1
  Se  Se204  1  0.92021617  0.91814008  0.79873671  1
  Se  Se205  1  0.08540640  0.08838358  0.31084969  1
  Se  Se206  1  0.07635877  0.07927056  0.80202139  1
  Se  Se207  1  0.08581633  0.42294977  0.31338386  1
  Se  Se208  1  0.08668194  0.42462982  0.81087917  1
  Se  Se209  1  0.08409969  0.74645923  0.30311104  1
  Se  Se210  1  0.08984356  0.75104104  0.81430595  1
  Se  Se211  1  0.41673934  0.08383396  0.30069983  1
  Se  Se212  1  0.42756105  0.09674973  0.80602099  1
  Se  Se213  1  0.41275063  0.41542862  0.29744394  1
  Se  Se214  1  0.40261621  0.40453420  0.80289349  1
  Se  Se215  1  0.42030095  0.75227656  0.31569593  1
  Se  Se216  1  0.40915576  0.74582062  0.79560349  1
  Se  Se217  1  0.75553852  0.08575456  0.30695987  1
  Se  Se218  1  0.75860457  0.08883246  0.81441685  1
  Se  Se219  1  0.75028928  0.41435018  0.30118658  1
  Se  Se220  1  0.74490759  0.41057631  0.80124592  1
  Se  Se221  1  0.74536500  0.74409257  0.29885036  1
  Se  Se222  1  0.75994679  0.75743732  0.80575500  1
  Se  Se223  1  0.24967047  0.07978812  0.19827804  1
  Se  Se224  1  0.24205365  0.08679992  0.69010355  1
  Se  Se225  1  0.24634263  0.41080788  0.19584797  1
  Se  Se226  1  0.24960495  0.41494851  0.69916502  1
  Se  Se227  1  0.24801817  0.75202286  0.19148519  1
  Se  Se228  1  0.24784935  0.74108128  0.69451904  1
  Se  Se229  1  0.57695775  0.09067432  0.18515358  1
  Se  Se230  1  0.57403002  0.09544249  0.68991035  1
  Se  Se231  1  0.58538488  0.41424161  0.19283154  1
  Se  Se232  1  0.59615412  0.42024277  0.70701619  1
  Se  Se233  1  0.58284045  0.74927642  0.20145210  1
  Se  Se234  1  0.58024204  0.75807581  0.68585322  1
  Se  Se235  1  0.90760234  0.09712787  0.19581262  1
  Se  Se236  1  0.91704898  0.08321112  0.69876953  1
  Se  Se237  1  0.91193329  0.42100790  0.18530053  1
  Se  Se238  1  0.91427071  0.42842684  0.68774689  1
  Se  Se239  1  0.91910832  0.74105431  0.19395516  1
  Se  Se240  1  0.90846500  0.75858306  0.69164426  1
  Se  Se241  1  0.08743248  0.24454856  0.19257378  1
  Se  Se242  1  0.08879201  0.24514165  0.68613004  1
  Se  Se243  1  0.07969318  0.58274191  0.19832650  1
  Se  Se244  1  0.08765531  0.57767237  0.68957474  1
  Se  Se245  1  0.09211285  0.90514348  0.18882415  1
  Se  Se246  1  0.08411680  0.91193295  0.69797272  1
  Se  Se247  1  0.41191869  0.25265828  0.19539935  1
  Se  Se248  1  0.41310153  0.24972296  0.70383161  1
  Se  Se249  1  0.41932125  0.57382044  0.18665890  1
  Se  Se250  1  0.43308746  0.57157716  0.70383580  1
  Se  Se251  1  0.41337527  0.91789909  0.20384975  1
  Se  Se252  1  0.41558128  0.91518402  0.68955525  1
  Se  Se253  1  0.74918415  0.25660831  0.20373298  1
  Se  Se254  1  0.75478242  0.25340512  0.69612784  1
  Se  Se255  1  0.74712913  0.58261065  0.19297595  1
  Se  Se256  1  0.76080238  0.57906569  0.68878848  1
  Se  Se257  1  0.75686042  0.91191470  0.18710897  1
  Se  Se258  1  0.75689985  0.91100168  0.69370319  1
