# generated using pymatgen
data_In86Cu29Se144
_symmetry_space_group_name_H-M   'P 1'
_cell_length_a   17.57386244
_cell_length_b   17.57812341
_cell_length_c   23.43764820
_cell_angle_alpha   90.00329168
_cell_angle_beta   89.99104704
_cell_angle_gamma   89.99629277
_symmetry_Int_Tables_number   1
_chemical_formula_structural   In86Cu29Se144
_chemical_formula_sum   'In86 Cu29 Se144'
_cell_volume   7240.25322928
_cell_formula_units_Z   1
loop_
 _symmetry_equiv_pos_site_id
 _symmetry_equiv_pos_as_xyz
  1  'x, y, z'
loop_
 _atom_site_type_symbol
 _atom_site_label
 _atom_site_symmetry_multiplicity
 _atom_site_fract_x
 _atom_site_fract_y
 _atom_site_fract_z
 _atom_site_occupancy
  In  In0  1  0.00020598  0.16047656  0.11424395  1
  In  In1  1  -0.01354747  0.16133301  0.63134774  1
  In  In2  1  0.00588191  0.48735719  0.12007638  1
  In  In3  1  0.01230350  0.51512060  0.61879241  1
  In  In4  1  0.00831556  0.84155874  0.11593422  1
  In  In5  1  0.00163345  0.82195356  0.63770925  1
  In  In6  1  0.33166629  0.16818552  0.13478572  1
  In  In7  1  0.35077083  0.15854204  0.62218425  1
  In  In8  1  0.33084020  0.50317548  0.13311805  1
  In  In9  1  0.32477982  0.50275503  0.62071039  1
  In  In10  1  0.33077521  0.83062170  0.12555276  1
  In  In11  1  0.32669944  0.83561073  0.60229228  1
  In  In12  1  0.67189217  0.14620049  0.15084606  1
  In  In13  1  0.66166759  0.16625912  0.62748024  1
  In  In14  1  0.66133740  0.50623845  0.13372660  1
  In  In15  1  0.65790411  0.48567301  0.61678640  1
  In  In16  1  0.66571577  0.83614014  0.12671727  1
  In  In17  1  0.66555593  0.84258300  0.62600032  1
  In  In18  1  0.18823203  -0.03230629  0.38474470  1
  In  In19  1  0.16103999  0.00716645  0.88307631  1
  In  In20  1  0.18218916  0.33826519  0.37452449  1
  In  In21  1  0.17470447  0.32587731  0.88083602  1
  In  In22  1  0.17436598  0.67054249  0.37788089  1
  In  In23  1  0.16231951  0.67530994  0.88126820  1
  In  In24  1  0.49511247  -0.00874149  0.37350678  1
  In  In25  1  0.49428936  -0.01303223  0.87753636  1
  In  In26  1  0.49560880  0.32388870  0.36525201  1
  In  In27  1  0.50207487  0.32803879  0.86655506  1
  In  In28  1  0.50590164  0.67919757  0.37487547  1
  In  In29  1  0.50364372  0.68125623  0.87394642  1
  In  In30  1  0.81938972  0.01115425  0.36894271  1
  In  In31  1  0.83242169  -0.00074658  0.87982633  1
  In  In32  1  0.83047432  0.34166158  0.37663885  1
  In  In33  1  0.81941894  0.33173609  0.87567008  1
  In  In34  1  0.81093559  0.66535484  0.38226712  1
  In  In35  1  0.84465817  0.66308961  0.87256103  1
  In  In36  1  -0.00514038  0.16809029  0.37114075  1
  In  In37  1  0.00779935  0.15269781  0.88230388  1
  In  In38  1  0.00092437  0.50671437  0.38479690  1
  In  In39  1  0.00175958  0.51406375  0.87122778  1
  In  In40  1  0.01443464  0.83796226  0.37460989  1
  In  In41  1  -0.00107363  0.83097692  0.87583723  1
  In  In42  1  0.34767769  0.17164226  0.35844703  1
  In  In43  1  0.32450722  0.16826224  0.87883175  1
  In  In44  1  0.33006777  0.49958534  0.37420485  1
  In  In45  1  0.33772716  0.48355604  0.87387667  1
  In  In46  1  0.33406512  0.83669080  0.36722078  1
  In  In47  1  0.32773356  0.84884060  0.89546103  1
  In  In48  1  0.64277982  0.14413931  0.34938202  1
  In  In49  1  0.67358714  0.17004469  0.87585442  1
  In  In50  1  0.67014129  0.50996991  0.37594541  1
  In  In51  1  0.67722257  0.49332566  0.87039823  1
  In  In52  1  0.65483623  0.82036323  0.36368905  1
  In  In53  1  0.65440767  0.84982725  0.88346069  1
  In  In54  1  0.17501212  -0.00160860  0.11905722  1
  In  In55  1  0.16446637  -0.01765393  0.62819165  1
  In  In56  1  0.17306681  0.33404569  0.11934221  1
  In  In57  1  0.16912976  0.34583499  0.62369620  1
  In  In58  1  0.18317827  0.67641341  0.11428368  1
  In  In59  1  0.16587953  0.66386022  0.61986855  1
  In  In60  1  0.50275258  -0.00253929  0.13332148  1
  In  In61  1  0.49829909  0.00796995  0.61380656  1
  In  In62  1  0.50296195  0.32020185  0.14416322  1
  In  In63  1  0.50722562  0.32120937  0.62655407  1
  In  In64  1  0.48568565  0.67938870  0.13895745  1
  In  In65  1  0.47822239  0.67839932  0.60797118  1
  In  In66  1  0.83274893  -0.00127155  0.12092302  1
  In  In67  1  0.82772039  -0.00099964  0.63874991  1
  In  In68  1  0.82688348  0.31797049  0.12355325  1
  In  In69  1  0.81938010  0.32694244  0.62362416  1
  In  In70  1  0.81898348  0.67343084  0.12762167  1
  In  In71  1  0.84531304  0.67195847  0.62454664  1
  In  In72  1  0.50013826  0.16088686  0.01473438  1
  In  In73  1  0.00462233  0.66639763  0.25000419  1
  In  In74  1  0.82776783  0.17064967  0.49976053  1
  In  In75  1  0.00567555  0.00184839  0.24360768  1
  In  In76  1  0.66874556  0.66558152  0.74532720  1
  In  In77  1  0.83773580  0.50298321  -0.00589416  1
  In  In78  1  0.33191765  0.66663105  0.74333046  1
  In  In79  1  0.83228260  0.83107817  0.50170178  1
  In  In80  1  0.17219406  0.16552264  0.49352634  1
  In  In81  1  0.49675726  0.50860271  0.49308717  1
  In  In82  1  -0.00741871  0.33094696  0.25006898  1
  In  In83  1  -0.00127174  0.33260887  0.74917900  1
  In  In84  1  0.33572107  0.00190156  0.74882984  1
  In  In85  1  0.49444794  0.50219651  0.00766367  1
  Cu  Cu86  1  0.82678297  0.50488645  0.25266296  1
  Cu  Cu87  1  0.33099354  0.32977844  0.00455670  1
  Cu  Cu88  1  0.50545463  0.49030743  0.74558482  1
  Cu  Cu89  1  0.33866951  0.33366019  0.49321708  1
  Cu  Cu90  1  0.82972574  0.83530854  0.75668011  1
  Cu  Cu91  1  0.00041713  -0.00270167  0.50514548  1
  Cu  Cu92  1  0.49541647  0.83604438  0.74909619  1
  Cu  Cu93  1  0.66392314  0.33382476  0.00207064  1
  Cu  Cu94  1  0.00033547  0.66718068  -0.00285168  1
  Cu  Cu95  1  0.50864457  0.16591113  0.74554240  1
  Cu  Cu96  1  0.00555198  0.34771719  0.50044368  1
  Cu  Cu97  1  0.16954586  0.50058350  0.24947907  1
  Cu  Cu98  1  0.16971592  0.50294946  0.74547700  1
  Cu  Cu99  1  0.16814406  0.16679989  0.75777417  1
  Cu  Cu100  1  0.50174351  0.83301688  0.24903319  1
  Cu  Cu101  1  0.00534606  0.67203594  0.50214763  1
  Cu  Cu102  1  0.33554198  0.66398915  0.00731481  1
  Cu  Cu103  1  0.16150649  0.83139555  0.75375649  1
  Cu  Cu104  1  0.00666610  0.32662797  -0.00203782  1
  Cu  Cu105  1  -0.00194311  -0.00358362  -0.00196803  1
  Cu  Cu106  1  0.66234230  0.68113518  0.00276022  1
  Cu  Cu107  1  0.83149593  0.83818511  0.24852918  1
  Cu  Cu108  1  0.16296099  0.16012722  0.25152747  1
  Cu  Cu109  1  0.83300970  0.15655834  0.75593500  1
  Cu  Cu110  1  0.65959193  0.32431719  0.49808985  1
  Cu  Cu111  1  0.66799700  0.00512222  0.00734378  1
  Cu  Cu112  1  0.49738637  0.50109954  0.25843328  1
  Cu  Cu113  1  0.83390116  0.49328742  0.74756328  1
  Cu  Cu114  1  0.65979619  -0.00206409  0.49373011  1
  Se  Se115  1  0.08610843  0.07766061  0.05053840  1
  Se  Se116  1  0.07755360  0.08511819  0.56073556  1
  Se  Se117  1  0.08863424  0.41370946  0.04826961  1
  Se  Se118  1  0.09284613  0.42728053  0.55192602  1
  Se  Se119  1  0.08465319  0.74843036  0.05143966  1
  Se  Se120  1  0.08254727  0.75733404  0.55882186  1
  Se  Se121  1  0.40369981  0.07074244  0.06441926  1
  Se  Se122  1  0.41219917  0.08111059  0.54305582  1
  Se  Se123  1  0.41501065  0.40327859  0.06676118  1
  Se  Se124  1  0.41697955  0.41095031  0.55844433  1
  Se  Se125  1  0.42029756  0.74955099  0.05565158  1
  Se  Se126  1  0.42932995  0.77692696  0.53546256  1
  Se  Se127  1  0.74436954  0.09204444  0.06277307  1
  Se  Se128  1  0.74495019  0.07055172  0.55755633  1
  Se  Se129  1  0.74399800  0.42125934  0.05800860  1
  Se  Se130  1  0.74620979  0.40746675  0.54874328  1
  Se  Se131  1  0.75218499  0.75899442  0.05356582  1
  Se  Se132  1  0.74152180  0.74247122  0.56147842  1
  Se  Se133  1  0.25155197  0.24073382  0.05611550  1
  Se  Se134  1  0.25786049  0.25608662  0.55780233  1
  Se  Se135  1  0.25366447  0.57249343  0.05334056  1
  Se  Se136  1  0.27195792  0.60740140  0.55626923  1
  Se  Se137  1  0.23796662  0.89712025  0.05464100  1
  Se  Se138  1  0.25926537  0.94646491  0.55070316  1
  Se  Se139  1  0.59315133  0.25401876  0.06748906  1
  Se  Se140  1  0.58010820  0.23868282  0.55183698  1
  Se  Se141  1  0.58477702  0.59711349  0.06209343  1
  Se  Se142  1  0.58551074  0.59321656  0.55924117  1
  Se  Se143  1  0.58321589  0.92178088  0.05910907  1
  Se  Se144  1  0.58332794  0.91554216  0.55294943  1
  Se  Se145  1  0.91709937  0.25145597  0.05174086  1
  Se  Se146  1  0.92724396  0.26012951  0.55659311  1
  Se  Se147  1  0.92091516  0.59083383  0.06217828  1
  Se  Se148  1  0.91861888  0.58775405  0.55179751  1
  Se  Se149  1  0.91308088  0.91499869  0.05173205  1
  Se  Se150  1  0.91794539  0.92080696  0.56604434  1
  Se  Se151  1  0.07599211  0.26099377  0.43838268  1
  Se  Se152  1  0.09057326  0.24166868  0.94635581  1
  Se  Se153  1  0.08947272  0.58932211  0.44747335  1
  Se  Se154  1  0.08459661  0.58131512  0.94698283  1
  Se  Se155  1  0.08427829  0.91425072  0.45356256  1
  Se  Se156  1  0.08248133  0.91266094  0.94527636  1
  Se  Se157  1  0.41695249  0.24746430  0.44000189  1
  Se  Se158  1  0.41890730  0.25446790  0.94613167  1
  Se  Se159  1  0.40480870  0.60009981  0.43897929  1
  Se  Se160  1  0.41235118  0.59042043  0.93764974  1
  Se  Se161  1  0.43358121  0.89135932  0.44188029  1
  Se  Se162  1  0.42887275  0.91321871  0.95729940  1
  Se  Se163  1  0.73782530  0.24724563  0.43359117  1
  Se  Se164  1  0.74951217  0.25020921  0.95127954  1
  Se  Se165  1  0.75480403  0.57153569  0.45392906  1
  Se  Se166  1  0.73740467  0.59530807  0.94189759  1
  Se  Se167  1  0.74437685  0.91851029  0.43732560  1
  Se  Se168  1  0.74764613  0.92000710  0.95107376  1
  Se  Se169  1  0.26238009  0.08376732  0.43087408  1
  Se  Se170  1  0.26890664  0.06605119  0.94315384  1
  Se  Se171  1  0.25080117  0.42127695  0.44992261  1
  Se  Se172  1  0.25320156  0.41543340  0.94847211  1
  Se  Se173  1  0.23244974  0.77962708  0.43749318  1
  Se  Se174  1  0.25217071  0.74613787  0.95107601  1
  Se  Se175  1  0.58134938  0.08188453  0.43773170  1
  Se  Se176  1  0.58562199  0.08038408  0.94312687  1
  Se  Se177  1  0.58275325  0.40957448  0.43876203  1
  Se  Se178  1  0.58561198  0.41399367  0.94203150  1
  Se  Se179  1  0.60199041  0.74002317  0.44573053  1
  Se  Se180  1  0.57490865  0.75953633  0.94967289  1
  Se  Se181  1  0.92088219  0.07415013  0.44354550  1
  Se  Se182  1  0.91263808  0.08459622  0.94994176  1
  Se  Se183  1  0.91376871  0.42058611  0.44713994  1
  Se  Se184  1  0.92762397  0.40800215  0.93562867  1
  Se  Se185  1  0.92418856  0.74568926  0.43708938  1
  Se  Se186  1  0.91337771  0.74834057  0.94579085  1
  Se  Se187  1  0.24509031  0.24891864  0.30155104  1
  Se  Se188  1  0.25398851  0.25257861  0.80424101  1
  Se  Se189  1  0.24768060  0.58431588  0.30585109  1
  Se  Se190  1  0.24878524  0.57920907  0.81093698  1
  Se  Se191  1  0.26358726  0.92885566  0.29684552  1
  Se  Se192  1  0.24680467  0.91120855  0.81050274  1
  Se  Se193  1  0.60077067  0.26780156  0.30031172  1
  Se  Se194  1  0.59103495  0.24792694  0.80261464  1
  Se  Se195  1  0.58225127  0.58655797  0.30771702  1
  Se  Se196  1  0.57597707  0.57590592  0.80858857  1
  Se  Se197  1  0.58540888  0.91887025  0.30090633  1
  Se  Se198  1  0.57921258  0.91800599  0.80224098  1
  Se  Se199  1  0.89838637  0.23995909  0.30506733  1
  Se  Se200  1  0.91303020  0.24276874  0.81292177  1
  Se  Se201  1  0.91057169  0.58203850  0.31110903  1
  Se  Se202  1  0.91534105  0.58120355  0.79694222  1
  Se  Se203  1  0.91287174  0.91458024  0.31044702  1
  Se  Se204  1  0.91508971  0.91686206  0.80982349  1
  Se  Se205  1  0.09094160  0.08065140  0.31668965  1
  Se  Se206  1  0.08431748  0.07948619  0.80462268  1
  Se  Se207  1  0.08333876  0.42360403  0.30865903  1
  Se  Se208  1  0.09151749  0.42153986  0.80811295  1
  Se  Se209  1  0.09661330  0.76059860  0.30138181  1
  Se  Se210  1  0.08036973  0.74501331  0.80550113  1
  Se  Se211  1  0.43709348  0.08655553  0.29740288  1
  Se  Se212  1  0.42638498  0.09202053  0.81021020  1
  Se  Se213  1  0.41030874  0.41576172  0.30536194  1
  Se  Se214  1  0.41832719  0.41123332  0.79894783  1
  Se  Se215  1  0.41845869  0.74880033  0.30183820  1
  Se  Se216  1  0.40968374  0.76233579  0.80955176  1
  Se  Se217  1  0.74975529  0.08138513  0.28972056  1
  Se  Se218  1  0.74583079  0.07682800  0.80855701  1
  Se  Se219  1  0.74700229  0.42069681  0.30688683  1
  Se  Se220  1  0.74895107  0.40970091  0.79716389  1
  Se  Se221  1  0.75466606  0.74785321  0.30093517  1
  Se  Se222  1  0.74685066  0.75355360  0.81518292  1
  Se  Se223  1  0.24548033  0.07777821  0.19675537  1
  Se  Se224  1  0.24282724  0.09075352  0.68882658  1
  Se  Se225  1  0.24673057  0.41208163  0.19579116  1
  Se  Se226  1  0.25470518  0.41873452  0.69618693  1
  Se  Se227  1  0.26393106  0.73222785  0.19404521  1
  Se  Se228  1  0.24680272  0.76530356  0.68710122  1
  Se  Se229  1  0.55104163  0.10195065  0.20435613  1
  Se  Se230  1  0.58148896  0.07441797  0.69162875  1
  Se  Se231  1  0.57994938  0.42214455  0.20061603  1
  Se  Se232  1  0.58999794  0.40661647  0.69486298  1
  Se  Se233  1  0.58975347  0.74928196  0.19806135  1
  Se  Se234  1  0.56778660  0.74943962  0.68809392  1
  Se  Se235  1  0.91169235  0.09374713  0.19100456  1
  Se  Se236  1  0.92002144  0.07514426  0.70490805  1
  Se  Se237  1  0.90375090  0.42549176  0.18985229  1
  Se  Se238  1  0.91535459  0.41994812  0.68238156  1
  Se  Se239  1  0.91609945  0.76042090  0.18953739  1
  Se  Se240  1  0.91080073  0.74728170  0.70553981  1
  Se  Se241  1  0.08445184  0.24189711  0.19029729  1
  Se  Se242  1  0.09171706  0.24306446  0.68981498  1
  Se  Se243  1  0.08961903  0.57624476  0.18618673  1
  Se  Se244  1  0.08683266  0.59005062  0.69656199  1
  Se  Se245  1  0.09602201  0.90564639  0.19299665  1
  Se  Se246  1  0.07749770  0.91712670  0.70262085  1
  Se  Se247  1  0.39798919  0.26060202  0.20490862  1
  Se  Se248  1  0.41774081  0.24581228  0.69605752  1
  Se  Se249  1  0.41402649  0.58254102  0.20259316  1
  Se  Se250  1  0.42977669  0.57747768  0.68722622  1
  Se  Se251  1  0.41489107  0.91193389  0.19566812  1
  Se  Se252  1  0.41494498  0.90925122  0.68366176  1
  Se  Se253  1  0.73513905  0.26386970  0.19735220  1
  Se  Se254  1  0.75422572  0.23842056  0.69666812  1
  Se  Se255  1  0.74560942  0.59060092  0.20012987  1
  Se  Se256  1  0.75409813  0.57208095  0.68423462  1
  Se  Se257  1  0.75074012  0.92157420  0.19388064  1
  Se  Se258  1  0.74256151  0.91408987  0.70356423  1
