# generated using pymatgen
data_In86Cu29Se144
_symmetry_space_group_name_H-M   'P 1'
_cell_length_a   17.57914803
_cell_length_b   17.57975294
_cell_length_c   23.44112739
_cell_angle_alpha   90.01828007
_cell_angle_beta   89.99439025
_cell_angle_gamma   90.02324246
_symmetry_Int_Tables_number   1
_chemical_formula_structural   In86Cu29Se144
_chemical_formula_sum   'In86 Cu29 Se144'
_cell_volume   7244.17654423
_cell_formula_units_Z   1
loop_
 _symmetry_equiv_pos_site_id
 _symmetry_equiv_pos_as_xyz
  1  'x, y, z'
loop_
 _atom_site_type_symbol
 _atom_site_label
 _atom_site_symmetry_multiplicity
 _atom_site_fract_x
 _atom_site_fract_y
 _atom_site_fract_z
 _atom_site_occupancy
  In  In0  1  0.01508220  0.15460179  0.14366563  1
  In  In1  1  -0.01022120  0.16544545  0.62585226  1
  In  In2  1  -0.01541730  0.51593089  0.13298499  1
  In  In3  1  -0.00270068  0.51019462  0.62339275  1
  In  In4  1  0.00930492  0.82523908  0.13006410  1
  In  In5  1  0.00370624  0.83153061  0.62278551  1
  In  In6  1  0.32880039  0.16334484  0.11393506  1
  In  In7  1  0.34923746  0.16017787  0.64142176  1
  In  In8  1  0.33680190  0.51275061  0.12259161  1
  In  In9  1  0.33918960  0.49065677  0.63977734  1
  In  In10  1  0.33428565  0.83528408  0.11424877  1
  In  In11  1  0.32957480  0.83323376  0.62663381  1
  In  In12  1  0.65677013  0.18082090  0.12148581  1
  In  In13  1  0.66026465  0.16481768  0.61519400  1
  In  In14  1  0.67972662  0.49364224  0.12859720  1
  In  In15  1  0.68088840  0.51085894  0.61356805  1
  In  In16  1  0.65306319  0.82985412  0.12736569  1
  In  In17  1  0.66046718  0.82387720  0.61998879  1
  In  In18  1  0.15037813  -0.00294143  0.37235259  1
  In  In19  1  0.16704193  0.00063486  0.87282014  1
  In  In20  1  0.16394499  0.33834759  0.36867237  1
  In  In21  1  0.16775760  0.31843425  0.88128554  1
  In  In22  1  0.16656741  0.68041695  0.37587799  1
  In  In23  1  0.17348644  0.67273755  0.86640813  1
  In  In24  1  0.49938768  -0.00045121  0.38460266  1
  In  In25  1  0.48142165  0.00939328  0.87469362  1
  In  In26  1  0.50466389  0.33695188  0.38948690  1
  In  In27  1  0.49053048  0.33115422  0.87101475  1
  In  In28  1  0.51673957  0.65415056  0.38766033  1
  In  In29  1  0.50176355  0.67152933  0.86749038  1
  In  In30  1  0.84045726  -0.00921224  0.38291303  1
  In  In31  1  0.83508679  -0.01455829  0.86929265  1
  In  In32  1  0.83786059  0.32576773  0.38756794  1
  In  In33  1  0.84734157  0.33847195  0.87804615  1
  In  In34  1  0.83485071  0.66820001  0.37486035  1
  In  In35  1  0.82843542  0.65872650  0.86654068  1
  In  In36  1  -0.00652083  0.15228535  0.36573304  1
  In  In37  1  0.01141987  0.16893967  0.87673270  1
  In  In38  1  -0.00846289  0.49323463  0.36834084  1
  In  In39  1  -0.01399837  0.50407310  0.87828609  1
  In  In40  1  0.00090351  0.83153081  0.37467143  1
  In  In41  1  0.00883731  0.83963168  0.86946122  1
  In  In42  1  0.33885069  0.17537815  0.37747588  1
  In  In43  1  0.33376224  0.16008215  0.86955084  1
  In  In44  1  0.34127719  0.50536059  0.38212940  1
  In  In45  1  0.33257171  0.50397856  0.85635100  1
  In  In46  1  0.33347310  0.83095105  0.38894330  1
  In  In47  1  0.33088213  0.83558067  0.87109561  1
  In  In48  1  0.66443405  0.17472319  0.39005849  1
  In  In49  1  0.65645931  0.16300396  0.87472498  1
  In  In50  1  0.65483978  0.51047707  0.38674818  1
  In  In51  1  0.66369825  0.51093313  0.87377265  1
  In  In52  1  0.67909862  0.82181659  0.38430878  1
  In  In53  1  0.66493763  0.81622659  0.87116105  1
  In  In54  1  0.16294958  -0.00408318  0.11764604  1
  In  In55  1  0.17868754  -0.00657659  0.63253220  1
  In  In56  1  0.16405442  0.32119866  0.12433145  1
  In  In57  1  0.18445007  0.34347308  0.63039346  1
  In  In58  1  0.14575702  0.67381217  0.11576672  1
  In  In59  1  0.15290258  0.66870326  0.63710270  1
  In  In60  1  0.49209284  -0.00463595  0.11679908  1
  In  In61  1  0.49363053  -0.00376441  0.62369375  1
  In  In62  1  0.51807626  0.32512023  0.12057957  1
  In  In63  1  0.49407311  0.32923853  0.61682729  1
  In  In64  1  0.49535554  0.67417621  0.12887461  1
  In  In65  1  0.50051789  0.67114824  0.62717440  1
  In  In66  1  0.83906147  0.01228380  0.12814152  1
  In  In67  1  0.84222933  0.00296125  0.61962870  1
  In  In68  1  0.83278234  0.34893669  0.12487404  1
  In  In69  1  0.81955474  0.32595249  0.60377563  1
  In  In70  1  0.84426350  0.65667793  0.13093077  1
  In  In71  1  0.83539750  0.66910667  0.62198242  1
  In  In72  1  0.33223712  0.66687587  0.24950246  1
  In  In73  1  0.16967334  0.50536075  0.50543046  1
  In  In74  1  0.33168576  0.33542749  0.25520139  1
  In  In75  1  0.16009504  0.49833499  -0.00927509  1
  In  In76  1  0.67166445  0.33786764  0.25492889  1
  In  In77  1  0.00575323  0.34277725  0.74626244  1
  In  In78  1  0.83517142  0.82831032  -0.00016143  1
  In  In79  1  0.32887713  -0.00337815  0.24096568  1
  In  In80  1  0.66264821  0.33597586  0.74742174  1
  In  In81  1  0.50185314  0.49522450  -0.00297700  1
  In  In82  1  0.16940806  0.16068999  0.49762757  1
  In  In83  1  0.82812832  0.17297195  0.00392693  1
  In  In84  1  0.66204215  -0.00699210  0.73938084  1
  In  In85  1  0.67414776  -0.00212387  0.25330446  1
  Cu  Cu86  1  0.16065249  0.83555017  0.24805294  1
  Cu  Cu87  1  0.33118999  0.67304557  -0.00786850  1
  Cu  Cu88  1  -0.00394103  0.33680378  0.00646438  1
  Cu  Cu89  1  0.66802955  0.67519298  0.50150207  1
  Cu  Cu90  1  0.00111607  -0.00646678  0.49858681  1
  Cu  Cu91  1  0.00134096  0.00658307  -0.00056339  1
  Cu  Cu92  1  0.33629712  0.32504974  -0.00336738  1
  Cu  Cu93  1  0.50701749  0.82130994  0.25775783  1
  Cu  Cu94  1  0.83464841  0.50248298  0.74216344  1
  Cu  Cu95  1  0.49410672  0.83444953  0.74767987  1
  Cu  Cu96  1  0.16599820  0.83613327  0.74945272  1
  Cu  Cu97  1  0.83905161  0.16861847  0.25758778  1
  Cu  Cu98  1  0.49910886  0.16658036  0.24693169  1
  Cu  Cu99  1  0.84486353  0.82564656  0.74751987  1
  Cu  Cu100  1  0.34134678  0.33095987  0.50645642  1
  Cu  Cu101  1  0.66649514  0.00040466  0.50318561  1
  Cu  Cu102  1  0.16821942  0.16548294  0.75485850  1
  Cu  Cu103  1  0.33631128  0.66865249  0.50715942  1
  Cu  Cu104  1  0.83166766  0.50488897  0.25541042  1
  Cu  Cu105  1  0.66603503  0.66331768  -0.00334827  1
  Cu  Cu106  1  -0.00141942  0.67027175  0.50043398  1
  Cu  Cu107  1  0.16001522  0.50124219  0.24666764  1
  Cu  Cu108  1  0.33079285  0.00146316  -0.00760282  1
  Cu  Cu109  1  0.83438388  0.16079454  0.74597805  1
  Cu  Cu110  1  0.83808868  0.83254425  0.25700581  1
  Cu  Cu111  1  0.33392333  -0.00207455  0.50829891  1
  Cu  Cu112  1  0.50978507  0.50778358  0.74611043  1
  Cu  Cu113  1  -0.00102148  0.33099287  0.49674995  1
  Cu  Cu114  1  0.65312633  -0.00509027  -0.00106470  1
  Se  Se115  1  0.08001066  0.09011308  0.05626634  1
  Se  Se116  1  0.07972938  0.07519793  0.56065186  1
  Se  Se117  1  0.07843501  0.41915974  0.06397890  1
  Se  Se118  1  0.08083480  0.40559280  0.55971286  1
  Se  Se119  1  0.08106425  0.76460392  0.04603377  1
  Se  Se120  1  0.08778415  0.74510264  0.55535563  1
  Se  Se121  1  0.41570720  0.08221883  0.04887499  1
  Se  Se122  1  0.41417877  0.08779850  0.55752845  1
  Se  Se123  1  0.40944985  0.40747641  0.06059005  1
  Se  Se124  1  0.41391577  0.42667844  0.55645654  1
  Se  Se125  1  0.41814006  0.74589639  0.05141813  1
  Se  Se126  1  0.41873549  0.75579158  0.55799784  1
  Se  Se127  1  0.73564434  0.07417580  0.05873658  1
  Se  Se128  1  0.75304552  0.08312344  0.55424638  1
  Se  Se129  1  0.73511082  0.40233415  0.05432043  1
  Se  Se130  1  0.75245203  0.42451631  0.54218947  1
  Se  Se131  1  0.74300586  0.74232605  0.06136565  1
  Se  Se132  1  0.75635223  0.75591418  0.55259482  1
  Se  Se133  1  0.24512590  0.24947594  0.04883251  1
  Se  Se134  1  0.25711875  0.24878715  0.56128068  1
  Se  Se135  1  0.25123848  0.59256879  0.05266833  1
  Se  Se136  1  0.25770606  0.58898420  0.56919897  1
  Se  Se137  1  0.24952195  0.91812189  0.04920262  1
  Se  Se138  1  0.24589281  0.91366677  0.55435328  1
  Se  Se139  1  0.57636149  0.24150422  0.04277743  1
  Se  Se140  1  0.58815998  0.25834487  0.55119437  1
  Se  Se141  1  0.58646343  0.58584748  0.06109647  1
  Se  Se142  1  0.58403288  0.59223127  0.55513724  1
  Se  Se143  1  0.57625819  0.90750252  0.05319086  1
  Se  Se144  1  0.58235801  0.91796880  0.55692822  1
  Se  Se145  1  0.92278983  0.25073451  0.06804317  1
  Se  Se146  1  0.91906165  0.24342361  0.54900260  1
  Se  Se147  1  0.91691771  0.58611533  0.05174288  1
  Se  Se148  1  0.91531866  0.58383832  0.55047028  1
  Se  Se149  1  0.92028726  0.92576223  0.05888350  1
  Se  Se150  1  0.91760880  0.91131503  0.55289094  1
  Se  Se151  1  0.08079319  0.25229831  0.43765487  1
  Se  Se152  1  0.07815682  0.25131373  0.95382852  1
  Se  Se153  1  0.07899033  0.58713506  0.43980140  1
  Se  Se154  1  0.07618645  0.59690671  0.93775130  1
  Se  Se155  1  0.08616111  0.91060874  0.44683845  1
  Se  Se156  1  0.08104470  0.92205724  0.94422425  1
  Se  Se157  1  0.42085729  0.24570607  0.45127982  1
  Se  Se158  1  0.41719210  0.24389353  0.94085173  1
  Se  Se159  1  0.41873306  0.58374004  0.45399120  1
  Se  Se160  1  0.40925105  0.58442111  0.93733526  1
  Se  Se161  1  0.41844926  0.91612421  0.45293825  1
  Se  Se162  1  0.41508170  0.91394837  0.94351278  1
  Se  Se163  1  0.75036626  0.25226052  0.45601690  1
  Se  Se164  1  0.74454705  0.25691974  0.93564833  1
  Se  Se165  1  0.75011147  0.59139673  0.44664531  1
  Se  Se166  1  0.75221612  0.58264981  0.94459157  1
  Se  Se167  1  0.75056843  0.91667303  0.45038367  1
  Se  Se168  1  0.73862739  0.91862475  0.94123450  1
  Se  Se169  1  0.25985798  0.06995369  0.43651734  1
  Se  Se170  1  0.24641233  0.08718627  0.94212331  1
  Se  Se171  1  0.25686907  0.40685870  0.44473147  1
  Se  Se172  1  0.26382603  0.41444508  0.93799609  1
  Se  Se173  1  0.24781397  0.74642916  0.45364676  1
  Se  Se174  1  0.24551630  0.75493891  0.94143912  1
  Se  Se175  1  0.58083222  0.08405874  0.45135089  1
  Se  Se176  1  0.57676189  0.08045580  0.94311869  1
  Se  Se177  1  0.58716396  0.41756528  0.45564039  1
  Se  Se178  1  0.59098432  0.40730952  0.93585632  1
  Se  Se179  1  0.57886059  0.75855463  0.45113785  1
  Se  Se180  1  0.58028384  0.74555358  0.94518675  1
  Se  Se181  1  0.92078771  0.08297973  0.44697942  1
  Se  Se182  1  0.91348803  0.07932299  0.93977827  1
  Se  Se183  1  0.91937761  0.42216584  0.44835963  1
  Se  Se184  1  0.91408620  0.42118200  0.95404092  1
  Se  Se185  1  0.91619174  0.75253251  0.44464583  1
  Se  Se186  1  0.91896510  0.74651673  0.93243326  1
  Se  Se187  1  0.24094563  0.23666148  0.30577546  1
  Se  Se188  1  0.25042049  0.25212265  0.80521442  1
  Se  Se189  1  0.24220929  0.57420469  0.31104889  1
  Se  Se190  1  0.24552093  0.58587936  0.79508433  1
  Se  Se191  1  0.24909093  0.90586059  0.30886255  1
  Se  Se192  1  0.24985579  0.92039845  0.80230689  1
  Se  Se193  1  0.57601963  0.24429991  0.31015998  1
  Se  Se194  1  0.57310205  0.24031673  0.80107256  1
  Se  Se195  1  0.58597901  0.58520306  0.30707587  1
  Se  Se196  1  0.59068938  0.59156675  0.80032652  1
  Se  Se197  1  0.58138656  0.91125956  0.31349020  1
  Se  Se198  1  0.57754509  0.91135193  0.80980092  1
  Se  Se199  1  0.91808859  0.25687956  0.30965480  1
  Se  Se200  1  0.91431023  0.24486818  0.80417946  1
  Se  Se201  1  0.92010087  0.58959627  0.30359928  1
  Se  Se202  1  0.91898905  0.58156727  0.79817285  1
  Se  Se203  1  0.92010757  0.91976036  0.30623162  1
  Se  Se204  1  0.92196101  0.91721551  0.79801637  1
  Se  Se205  1  0.08976979  0.08564934  0.29941764  1
  Se  Se206  1  0.07985073  0.08317337  0.80384266  1
  Se  Se207  1  0.08019063  0.41581361  0.29986429  1
  Se  Se208  1  0.08718174  0.41899052  0.81995601  1
  Se  Se209  1  0.08167085  0.74882829  0.30193006  1
  Se  Se210  1  0.08154731  0.75016764  0.79965058  1
  Se  Se211  1  0.42043778  0.08406231  0.30616710  1
  Se  Se212  1  0.41412193  0.08286753  0.79592039  1
  Se  Se213  1  0.42693621  0.42171162  0.31241060  1
  Se  Se214  1  0.42736802  0.42157229  0.79807123  1
  Se  Se215  1  0.41967961  0.74914383  0.31712560  1
  Se  Se216  1  0.41189366  0.74945269  0.80188604  1
  Se  Se217  1  0.75317381  0.09285007  0.31677936  1
  Se  Se218  1  0.75175402  0.08399540  0.80624867  1
  Se  Se219  1  0.75692781  0.42423720  0.31928444  1
  Se  Se220  1  0.75987196  0.42171322  0.80661508  1
  Se  Se221  1  0.74951506  0.74943919  0.30416288  1
  Se  Se222  1  0.75272204  0.74901083  0.79847405  1
  Se  Se223  1  0.24079780  0.09298315  0.18874613  1
  Se  Se224  1  0.25229284  0.08272436  0.70132022  1
  Se  Se225  1  0.24720791  0.42690922  0.18811897  1
  Se  Se226  1  0.24345608  0.42456425  0.70856765  1
  Se  Se227  1  0.24456104  0.75717133  0.18736549  1
  Se  Se228  1  0.24799584  0.75055595  0.69676645  1
  Se  Se229  1  0.57858783  0.08256945  0.18971878  1
  Se  Se230  1  0.57399729  0.09356365  0.69095419  1
  Se  Se231  1  0.57593783  0.42148683  0.19472625  1
  Se  Se232  1  0.58421778  0.42760566  0.68202643  1
  Se  Se233  1  0.58734074  0.74088670  0.20102885  1
  Se  Se234  1  0.58399983  0.75316122  0.69839514  1
  Se  Se235  1  0.91767444  0.07890200  0.20609954  1
  Se  Se236  1  0.92034370  0.07682423  0.69763451  1
  Se  Se237  1  0.91321422  0.42059262  0.20019529  1
  Se  Se238  1  0.90352173  0.41235425  0.68179173  1
  Se  Se239  1  0.91774219  0.75138232  0.19674504  1
  Se  Se240  1  0.92575718  0.74268021  0.69207177  1
  Se  Se241  1  0.07734661  0.26339380  0.20051701  1
  Se  Se242  1  0.09292922  0.24407000  0.68865281  1
  Se  Se243  1  0.08362596  0.59145309  0.19465336  1
  Se  Se244  1  0.08991943  0.56208752  0.69754567  1
  Se  Se245  1  0.08253422  0.92253000  0.19393345  1
  Se  Se246  1  0.08193327  0.91728456  0.69412878  1
  Se  Se247  1  0.41861671  0.24598310  0.18794649  1
  Se  Se248  1  0.40823534  0.27271559  0.69566100  1
  Se  Se249  1  0.42815061  0.57217104  0.19873965  1
  Se  Se250  1  0.41916638  0.58899803  0.69798489  1
  Se  Se251  1  0.42806673  0.90013824  0.19420247  1
  Se  Se252  1  0.41165547  0.91923218  0.69600151  1
  Se  Se253  1  0.75734161  0.24229082  0.19353452  1
  Se  Se254  1  0.75522868  0.24316358  0.68864564  1
  Se  Se255  1  0.74973258  0.58425985  0.19795599  1
  Se  Se256  1  0.75016224  0.58821610  0.69266339  1
  Se  Se257  1  0.76037936  0.90726954  0.18945829  1
  Se  Se258  1  0.76137605  0.90534703  0.68742159  1
