# generated using pymatgen
data_In86Cu29Se144
_symmetry_space_group_name_H-M   'P 1'
_cell_length_a   17.57855548
_cell_length_b   17.57699268
_cell_length_c   23.44240111
_cell_angle_alpha   89.98380280
_cell_angle_beta   90.00454146
_cell_angle_gamma   90.00894834
_symmetry_Int_Tables_number   1
_chemical_formula_structural   In86Cu29Se144
_chemical_formula_sum   'In86 Cu29 Se144'
_cell_volume   7243.18911353
_cell_formula_units_Z   1
loop_
 _symmetry_equiv_pos_site_id
 _symmetry_equiv_pos_as_xyz
  1  'x, y, z'
loop_
 _atom_site_type_symbol
 _atom_site_label
 _atom_site_symmetry_multiplicity
 _atom_site_fract_x
 _atom_site_fract_y
 _atom_site_fract_z
 _atom_site_occupancy
  In  In0  1  0.00405884  0.16853012  0.12096693  1
  In  In1  1  0.00499124  0.17012011  0.62913867  1
  In  In2  1  0.00532263  0.49018461  0.12810345  1
  In  In3  1  0.00553509  0.49814363  0.63268307  1
  In  In4  1  -0.00519614  0.84463355  0.13389394  1
  In  In5  1  -0.01456892  0.82648633  0.61903859  1
  In  In6  1  0.32872291  0.16290951  0.11482975  1
  In  In7  1  0.34026591  0.16482146  0.63187171  1
  In  In8  1  0.33241507  0.49824416  0.11196619  1
  In  In9  1  0.34282549  0.49582803  0.62848350  1
  In  In10  1  0.34208261  0.84235560  0.13140097  1
  In  In11  1  0.35244698  0.81487443  0.64627398  1
  In  In12  1  0.66816151  0.16765345  0.11490165  1
  In  In13  1  0.65800049  0.18336909  0.63382588  1
  In  In14  1  0.66604132  0.52000307  0.11914808  1
  In  In15  1  0.65147137  0.51543428  0.63375968  1
  In  In16  1  0.67238228  0.81067590  0.12621905  1
  In  In17  1  0.64246619  0.80131975  0.59950211  1
  In  In18  1  0.16696945  -0.01183711  0.35535614  1
  In  In19  1  0.18283557  -0.00028297  0.87357169  1
  In  In20  1  0.15979581  0.34108056  0.37513271  1
  In  In21  1  0.16769419  0.33522828  0.87488272  1
  In  In22  1  0.16040913  0.67800073  0.37368444  1
  In  In23  1  0.15493980  0.66414994  0.86820603  1
  In  In24  1  0.49318245  0.00565614  0.38141252  1
  In  In25  1  0.49316781  0.00979688  0.87538260  1
  In  In26  1  0.49149353  0.33497741  0.39402584  1
  In  In27  1  0.49802220  0.33572990  0.86983332  1
  In  In28  1  0.51138920  0.65479939  0.39326970  1
  In  In29  1  0.49298853  0.66252970  0.86896668  1
  In  In30  1  0.83465378  -0.01300130  0.37196536  1
  In  In31  1  0.83955468  -0.00294148  0.88643054  1
  In  In32  1  0.84086654  0.32652421  0.37327835  1
  In  In33  1  0.82326105  0.32858995  0.86926530  1
  In  In34  1  0.83707992  0.67056881  0.37013645  1
  In  In35  1  0.83354068  0.66729695  0.87165840  1
  In  In36  1  0.00916445  0.16808366  0.36350860  1
  In  In37  1  -0.00840257  0.17716135  0.88351065  1
  In  In38  1  -0.00464489  0.49895287  0.36765558  1
  In  In39  1  0.00696218  0.50675904  0.87064465  1
  In  In40  1  -0.00106526  0.82107945  0.36001644  1
  In  In41  1  -0.00427451  0.82078348  0.87420989  1
  In  In42  1  0.34082552  0.15944035  0.37827026  1
  In  In43  1  0.33119360  0.17070297  0.87371520  1
  In  In44  1  0.33770751  0.50473854  0.38457153  1
  In  In45  1  0.33300089  0.50037497  0.87233765  1
  In  In46  1  0.33042492  0.84102807  0.37714622  1
  In  In47  1  0.32015540  0.83115146  0.85377023  1
  In  In48  1  0.66259927  0.16384126  0.37701506  1
  In  In49  1  0.65233486  0.17420364  0.88494144  1
  In  In50  1  0.65607155  0.50757068  0.37833276  1
  In  In51  1  0.66014972  0.49661290  0.86781202  1
  In  In52  1  0.67587814  0.81867966  0.39089512  1
  In  In53  1  0.67955230  0.82855573  0.87898355  1
  In  In54  1  0.15954563  0.00706557  0.13246730  1
  In  In55  1  0.17093686  0.00745936  0.62708382  1
  In  In56  1  0.16493278  0.32731064  0.11509228  1
  In  In57  1  0.16700976  0.33512649  0.63449751  1
  In  In58  1  0.16738043  0.65187052  0.12076918  1
  In  In59  1  0.17564175  0.66229520  0.63975125  1
  In  In60  1  0.49075300  0.00189251  0.12669804  1
  In  In61  1  0.49044952  -0.01062801  0.61976587  1
  In  In62  1  0.50167607  0.33532380  0.11637802  1
  In  In63  1  0.49327545  0.34012078  0.62452391  1
  In  In64  1  0.50874863  0.66525999  0.12330086  1
  In  In65  1  0.49892074  0.66087100  0.62181234  1
  In  In66  1  0.84197354  0.00663329  0.11740966  1
  In  In67  1  0.83600934  -0.01461260  0.62129679  1
  In  In68  1  0.84707993  0.33578033  0.12269648  1
  In  In69  1  0.83525640  0.33110920  0.63660429  1
  In  In70  1  0.82414734  0.67826945  0.12595593  1
  In  In71  1  0.82547302  0.67023641  0.62899095  1
  In  In72  1  0.66887669  -0.00522569  0.75210515  1
  In  In73  1  0.17474637  0.49695569  0.51048992  1
  In  In74  1  0.50117073  0.83789952  0.00056690  1
  In  In75  1  0.66731846  -0.00266693  0.25576074  1
  In  In76  1  0.16213097  0.83500311  -0.00071069  1
  In  In77  1  0.33034071  0.67160192  0.25420312  1
  In  In78  1  0.83129588  0.49759059  -0.00143847  1
  In  In79  1  0.82838831  0.16232994  0.50684336  1
  In  In80  1  0.00336601  -0.00077211  0.74995966  1
  In  In81  1  0.66973937  0.34007684  0.25552570  1
  In  In82  1  0.17008770  0.16798617  0.50240535  1
  In  In83  1  0.17273565  0.83146991  0.49858711  1
  In  In84  1  0.83029624  0.50122676  0.49869565  1
  In  In85  1  0.33041039  0.33236609  0.25682467  1
  Cu  Cu86  1  0.16897618  0.50091888  0.75350775  1
  Cu  Cu87  1  0.33917511  0.33469045  -0.00934264  1
  Cu  Cu88  1  0.00411164  0.00297573  0.00693721  1
  Cu  Cu89  1  0.00021190  0.66742705  0.49541214  1
  Cu  Cu90  1  0.49759919  0.17044536  0.75429807  1
  Cu  Cu91  1  0.66112288  0.00318563  0.49655654  1
  Cu  Cu92  1  0.83718016  0.50134310  0.75243593  1
  Cu  Cu93  1  0.66278101  0.33845430  0.51076276  1
  Cu  Cu94  1  0.33349303  0.66307546  -0.00668318  1
  Cu  Cu95  1  0.49789091  0.50009773  0.74880700  1
  Cu  Cu96  1  -0.00305596  0.66381033  -0.00377309  1
  Cu  Cu97  1  0.33597815  0.00440449  -0.00248557  1
  Cu  Cu98  1  0.83545578  0.51078524  0.24443054  1
  Cu  Cu99  1  0.33375912  -0.00038885  0.50196859  1
  Cu  Cu100  1  0.16664709  0.16420108  0.23930546  1
  Cu  Cu101  1  0.16113577  0.49711815  0.24774377  1
  Cu  Cu102  1  0.82748542  0.82352374  0.74546090  1
  Cu  Cu103  1  0.66370310  0.33108950  -0.00787362  1
  Cu  Cu104  1  0.16679774  0.17208664  0.75204957  1
  Cu  Cu105  1  -0.00528882  -0.00670668  0.49220787  1
  Cu  Cu106  1  0.50415201  0.50894467  0.25208198  1
  Cu  Cu107  1  0.50631477  0.83006348  0.74435139  1
  Cu  Cu108  1  0.49401127  0.16673192  0.25272910  1
  Cu  Cu109  1  0.00481611  0.33320406  -0.00007011  1
  Cu  Cu110  1  0.84507522  0.16793717  0.24227315  1
  Cu  Cu111  1  0.50230903  0.83212571  0.25467524  1
  Cu  Cu112  1  0.83020884  0.16552377  0.75784758  1
  Cu  Cu113  1  0.67129243  -0.00249702  0.00000445  1
  Cu  Cu114  1  0.83268335  0.83285439  0.25009748  1
  Se  Se115  1  0.09215383  0.08637089  0.05408830  1
  Se  Se116  1  0.07057829  0.07316726  0.55491323  1
  Se  Se117  1  0.08605001  0.42074138  0.05122369  1
  Se  Se118  1  0.07550769  0.40565183  0.55881408  1
  Se  Se119  1  0.07444699  0.74426285  0.05999205  1
  Se  Se120  1  0.08438929  0.73893815  0.55946560  1
  Se  Se121  1  0.42292645  0.08451466  0.05066973  1
  Se  Se122  1  0.41457416  0.08499295  0.55581980  1
  Se  Se123  1  0.42048838  0.41763365  0.04765503  1
  Se  Se124  1  0.42387837  0.42845761  0.55169065  1
  Se  Se125  1  0.40618920  0.74500427  0.05789291  1
  Se  Se126  1  0.41783776  0.75706164  0.56046475  1
  Se  Se127  1  0.75420864  0.08538379  0.05013899  1
  Se  Se128  1  0.73488645  0.07659225  0.56722318  1
  Se  Se129  1  0.73944496  0.40782062  0.06049209  1
  Se  Se130  1  0.74732360  0.41539338  0.56768837  1
  Se  Se131  1  0.74523882  0.74321576  0.04677407  1
  Se  Se132  1  0.76742615  0.75834818  0.55268205  1
  Se  Se133  1  0.25557905  0.25365004  0.04759206  1
  Se  Se134  1  0.25651211  0.25720139  0.56320300  1
  Se  Se135  1  0.24727142  0.58047131  0.04496656  1
  Se  Se136  1  0.26096407  0.59554113  0.56217630  1
  Se  Se137  1  0.25679730  0.92315234  0.05859723  1
  Se  Se138  1  0.25724544  0.91909142  0.56357642  1
  Se  Se139  1  0.58135815  0.24845734  0.04938555  1
  Se  Se140  1  0.57771782  0.25096941  0.55729591  1
  Se  Se141  1  0.57053001  0.57783173  0.04921130  1
  Se  Se142  1  0.59315695  0.59227440  0.55250223  1
  Se  Se143  1  0.59327983  0.92129228  0.06602466  1
  Se  Se144  1  0.58001250  0.91810408  0.54987029  1
  Se  Se145  1  0.91841566  0.25000512  0.05131858  1
  Se  Se146  1  0.92112782  0.25598944  0.55915799  1
  Se  Se147  1  0.91975391  0.58548788  0.06147441  1
  Se  Se148  1  0.92572375  0.58620262  0.55935271  1
  Se  Se149  1  0.92007499  0.91304490  0.05313449  1
  Se  Se150  1  0.91241673  0.91027697  0.54523630  1
  Se  Se151  1  0.07442150  0.25366281  0.44387430  1
  Se  Se152  1  0.08893692  0.25007357  0.94673386  1
  Se  Se153  1  0.08213637  0.58187941  0.44166190  1
  Se  Se154  1  0.08496623  0.58394704  0.94587829  1
  Se  Se155  1  0.08069439  0.91712329  0.43472195  1
  Se  Se156  1  0.07529286  0.92643323  0.93685187  1
  Se  Se157  1  0.40741793  0.24413855  0.45089786  1
  Se  Se158  1  0.42210893  0.24791540  0.94086962  1
  Se  Se159  1  0.42342684  0.57132943  0.45625742  1
  Se  Se160  1  0.41897802  0.58055916  0.94280434  1
  Se  Se161  1  0.41584142  0.91544410  0.44843293  1
  Se  Se162  1  0.40319704  0.91409289  0.93615652  1
  Se  Se163  1  0.74170764  0.26050400  0.44603049  1
  Se  Se164  1  0.75340582  0.24747780  0.94620119  1
  Se  Se165  1  0.74386347  0.59675159  0.44332718  1
  Se  Se166  1  0.74176559  0.58535062  0.93946473  1
  Se  Se167  1  0.75074068  0.92272665  0.44777462  1
  Se  Se168  1  0.75470978  0.91130073  0.95099439  1
  Se  Se169  1  0.24561354  0.06740116  0.43912803  1
  Se  Se170  1  0.25019728  0.08737079  0.94633573  1
  Se  Se171  1  0.25763431  0.40325169  0.44548121  1
  Se  Se172  1  0.25069774  0.41908628  0.94331706  1
  Se  Se173  1  0.26280557  0.73526655  0.44313681  1
  Se  Se174  1  0.25430918  0.74914111  0.93759201  1
  Se  Se175  1  0.57851137  0.09086183  0.44806889  1
  Se  Se176  1  0.58116016  0.07610560  0.94914978  1
  Se  Se177  1  0.58667172  0.41933993  0.44986007  1
  Se  Se178  1  0.58193905  0.41682910  0.94111504  1
  Se  Se179  1  0.57393932  0.75880913  0.45499865  1
  Se  Se180  1  0.58374898  0.74446363  0.94056183  1
  Se  Se181  1  0.91980733  0.08382838  0.43675339  1
  Se  Se182  1  0.91913836  0.08490636  0.95189901  1
  Se  Se183  1  0.92502674  0.40916131  0.44423081  1
  Se  Se184  1  0.92224976  0.41038564  0.93761226  1
  Se  Se185  1  0.92207069  0.75144123  0.43946121  1
  Se  Se186  1  0.91178523  0.74769803  0.94641837  1
  Se  Se187  1  0.23842343  0.23777015  0.31159255  1
  Se  Se188  1  0.25186961  0.25550233  0.80379594  1
  Se  Se189  1  0.24252685  0.57168783  0.31135257  1
  Se  Se190  1  0.25058015  0.58761109  0.80531360  1
  Se  Se191  1  0.25715387  0.90537738  0.29588441  1
  Se  Se192  1  0.24644792  0.92700909  0.79229157  1
  Se  Se193  1  0.57223161  0.25019233  0.31134836  1
  Se  Se194  1  0.58700518  0.25070217  0.80430702  1
  Se  Se195  1  0.58353353  0.59308611  0.30638515  1
  Se  Se196  1  0.58182930  0.58530228  0.80041350  1
  Se  Se197  1  0.58131546  0.90962498  0.31837823  1
  Se  Se198  1  0.57656353  0.90775086  0.81452939  1
  Se  Se199  1  0.92190170  0.25360248  0.29953975  1
  Se  Se200  1  0.91794252  0.25070452  0.80482368  1
  Se  Se201  1  0.92083019  0.58980731  0.30101313  1
  Se  Se202  1  0.91975795  0.58744060  0.80423547  1
  Se  Se203  1  0.91905727  0.91811855  0.29876011  1
  Se  Se204  1  0.90391167  0.91068614  0.80451033  1
  Se  Se205  1  0.08348623  0.08019439  0.29492424  1
  Se  Se206  1  0.08558911  0.09193554  0.81328595  1
  Se  Se207  1  0.07846006  0.41270357  0.30090229  1
  Se  Se208  1  0.08361344  0.41610679  0.80430587  1
  Se  Se209  1  0.09345274  0.75038562  0.29459170  1
  Se  Se210  1  0.09169286  0.76634350  0.80393553  1
  Se  Se211  1  0.41427053  0.07884908  0.30350739  1
  Se  Se212  1  0.41181187  0.08468261  0.80293510  1
  Se  Se213  1  0.42697564  0.42453593  0.31086848  1
  Se  Se214  1  0.41328612  0.41693788  0.80155769  1
  Se  Se215  1  0.42647881  0.74924576  0.31681402  1
  Se  Se216  1  0.41826594  0.74981357  0.79828538  1
  Se  Se217  1  0.76236168  0.09591252  0.30745505  1
  Se  Se218  1  0.75249440  0.08449419  0.81765358  1
  Se  Se219  1  0.76172192  0.43222530  0.31307673  1
  Se  Se220  1  0.74874531  0.41727028  0.80103817  1
  Se  Se221  1  0.74730430  0.75447766  0.30606897  1
  Se  Se222  1  0.74405140  0.74459239  0.80220605  1
  Se  Se223  1  0.25941649  0.08440356  0.19283368  1
  Se  Se224  1  0.24832226  0.08750042  0.69839203  1
  Se  Se225  1  0.24766981  0.42130309  0.18964286  1
  Se  Se226  1  0.25249923  0.42077446  0.69727793  1
  Se  Se227  1  0.24505095  0.75236073  0.18501997  1
  Se  Se228  1  0.24140693  0.76016178  0.70432574  1
  Se  Se229  1  0.58226552  0.09278494  0.19381233  1
  Se  Se230  1  0.57529464  0.08453439  0.69428078  1
  Se  Se231  1  0.57932252  0.42424283  0.19121487  1
  Se  Se232  1  0.58172120  0.41521415  0.69585942  1
  Se  Se233  1  0.57974501  0.74760825  0.19854480  1
  Se  Se234  1  0.58679766  0.74416459  0.69172186  1
  Se  Se235  1  0.92426104  0.08104401  0.19061182  1
  Se  Se236  1  0.90441488  0.08717281  0.69156879  1
  Se  Se237  1  0.91503328  0.41761672  0.19863526  1
  Se  Se238  1  0.92083600  0.41632639  0.70053632  1
  Se  Se239  1  0.91489441  0.74951678  0.19530617  1
  Se  Se240  1  0.91960627  0.74450216  0.69670188  1
  Se  Se241  1  0.08547065  0.25394623  0.19078485  1
  Se  Se242  1  0.07928144  0.25285093  0.70061638  1
  Se  Se243  1  0.08129549  0.58342182  0.19480499  1
  Se  Se244  1  0.08193077  0.58425291  0.70197896  1
  Se  Se245  1  0.09387495  0.91046601  0.19758814  1
  Se  Se246  1  0.08186027  0.91023918  0.68292908  1
  Se  Se247  1  0.42003044  0.24956529  0.19031524  1
  Se  Se248  1  0.41738124  0.25490954  0.69813348  1
  Se  Se249  1  0.41483440  0.57728725  0.19079858  1
  Se  Se250  1  0.41579533  0.58723790  0.69722958  1
  Se  Se251  1  0.42257236  0.92010215  0.20366717  1
  Se  Se252  1  0.42093279  0.92272802  0.70335042  1
  Se  Se253  1  0.75398304  0.24704393  0.19094366  1
  Se  Se254  1  0.74881807  0.25069094  0.70407917  1
  Se  Se255  1  0.74556537  0.58992842  0.19552158  1
  Se  Se256  1  0.75159811  0.58255169  0.69877625  1
  Se  Se257  1  0.75368241  0.91397832  0.18812505  1
  Se  Se258  1  0.74614808  0.90274057  0.68593401  1
