# generated using pymatgen
data_In86Cu29Se144
_symmetry_space_group_name_H-M   'P 1'
_cell_length_a   17.55564658
_cell_length_b   17.55573011
_cell_length_c   23.41524250
_cell_angle_alpha   89.99545448
_cell_angle_beta   89.98647713
_cell_angle_gamma   90.02738151
_symmetry_Int_Tables_number   1
_chemical_formula_structural   In86Cu29Se144
_chemical_formula_sum   'In86 Cu29 Se144'
_cell_volume   7216.62804525
_cell_formula_units_Z   1
loop_
 _symmetry_equiv_pos_site_id
 _symmetry_equiv_pos_as_xyz
  1  'x, y, z'
loop_
 _atom_site_type_symbol
 _atom_site_label
 _atom_site_symmetry_multiplicity
 _atom_site_fract_x
 _atom_site_fract_y
 _atom_site_fract_z
 _atom_site_occupancy
  In  In0  1  0.01872160  0.17525617  0.13453094  1
  In  In1  1  0.00229558  0.16656438  0.61317115  1
  In  In2  1  0.00453110  0.50555992  0.13106494  1
  In  In3  1  -0.02007102  0.51067986  0.62117648  1
  In  In4  1  0.00404171  0.80338061  0.13219273  1
  In  In5  1  -0.00113961  0.83894606  0.62116742  1
  In  In6  1  0.34268874  0.16839336  0.13029373  1
  In  In7  1  0.33379965  0.16508300  0.62350626  1
  In  In8  1  0.33449360  0.50606471  0.13415713  1
  In  In9  1  0.34018370  0.49441264  0.63786015  1
  In  In10  1  0.32738654  0.83339025  0.11745339  1
  In  In11  1  0.34223099  0.82416807  0.63384592  1
  In  In12  1  0.64102971  0.17624760  0.12180094  1
  In  In13  1  0.66057705  0.17040341  0.62651701  1
  In  In14  1  0.65130228  0.48219065  0.08527084  1
  In  In15  1  0.66437764  0.49724995  0.62971681  1
  In  In16  1  0.65632341  0.83325382  0.11716527  1
  In  In17  1  0.67169106  0.82586925  0.63558562  1
  In  In18  1  0.18425800  -0.00358664  0.37289782  1
  In  In19  1  0.18125539  -0.02146577  0.88862759  1
  In  In20  1  0.16181606  0.33427431  0.36595014  1
  In  In21  1  0.18369167  0.33261649  0.87808009  1
  In  In22  1  0.16102772  0.65030308  0.35039160  1
  In  In23  1  0.18062630  0.65323852  0.88919946  1
  In  In24  1  0.50312051  0.00456992  0.37472163  1
  In  In25  1  0.49226862  -0.00058996  0.87637551  1
  In  In26  1  0.49225473  0.32506543  0.37181246  1
  In  In27  1  0.50297371  0.34230390  0.88158096  1
  In  In28  1  0.49633213  0.66609982  0.36891374  1
  In  In29  1  0.50487955  0.67159367  0.88310682  1
  In  In30  1  0.83243731  0.00431972  0.38461582  1
  In  In31  1  0.83005483  0.01238267  0.86750755  1
  In  In32  1  0.83871743  0.32943039  0.38015284  1
  In  In33  1  0.82200951  0.35705477  0.88181047  1
  In  In34  1  0.84813698  0.64718004  0.40256080  1
  In  In35  1  0.80978411  0.65905547  0.87888930  1
  In  In36  1  -0.00439300  0.17973298  0.38134229  1
  In  In37  1  -0.00209981  0.16496315  0.87119675  1
  In  In38  1  -0.00245968  0.49638202  0.36759619  1
  In  In39  1  -0.00459222  0.50667978  0.88761113  1
  In  In40  1  -0.00394212  0.81502652  0.37594400  1
  In  In41  1  0.01136948  0.83483526  0.87947660  1
  In  In42  1  0.33582964  0.16222698  0.37624898  1
  In  In43  1  0.34599536  0.17875689  0.87085332  1
  In  In44  1  0.32254938  0.48263721  0.34280935  1
  In  In45  1  0.33543776  0.49995743  0.88047419  1
  In  In46  1  0.32144503  0.82822457  0.36286044  1
  In  In47  1  0.34125740  0.83127903  0.88075003  1
  In  In48  1  0.66725597  0.16740142  0.38943880  1
  In  In49  1  0.64927305  0.15749586  0.86192166  1
  In  In50  1  0.68234508  0.51048615  0.37775465  1
  In  In51  1  0.66215795  0.50210148  0.88190034  1
  In  In52  1  0.66648385  0.83212903  0.38013549  1
  In  In53  1  0.64572445  0.81617353  0.86482966  1
  In  In54  1  0.19430856  0.00475190  0.12158344  1
  In  In55  1  0.16372311  0.00373079  0.62373430  1
  In  In56  1  0.16378450  0.35379285  0.14495617  1
  In  In57  1  0.18161277  0.33220770  0.62550721  1
  In  In58  1  0.16593387  0.66206968  0.12731324  1
  In  In59  1  0.16850771  0.67102608  0.62397105  1
  In  In60  1  0.46212802  -0.02175245  0.08964936  1
  In  In61  1  0.48816413  0.00849941  0.63491317  1
  In  In62  1  0.49747068  0.32801401  0.11610023  1
  In  In63  1  0.50747558  0.32877570  0.63409936  1
  In  In64  1  0.47940439  0.63936721  0.10239492  1
  In  In65  1  0.49757210  0.66450384  0.63537594  1
  In  In66  1  0.82511054  -0.00164870  0.12620224  1
  In  In67  1  0.82335464  -0.00497563  0.62189509  1
  In  In68  1  0.83307312  0.35441734  0.12795745  1
  In  In69  1  0.82506155  0.32673603  0.61774716  1
  In  In70  1  0.84270254  0.65618504  0.13084271  1
  In  In71  1  0.81123537  0.64872166  0.59775608  1
  In  In72  1  -0.00002208  0.33046769  0.75014154  1
  In  In73  1  0.83416616  0.82971632  -0.00626027  1
  In  In74  1  0.50415213  0.83350542  0.49951136  1
  In  In75  1  -0.00156019  0.66898593  0.74094146  1
  In  In76  1  0.66241701  0.66208827  0.24502481  1
  In  In77  1  0.16325783  0.83467772  0.49815777  1
  In  In78  1  0.00220362  0.00087080  0.74661897  1
  In  In79  1  0.83076431  0.16977579  -0.00299648  1
  In  In80  1  0.17735075  0.17328929  -0.00094211  1
  In  In81  1  0.16345477  0.49527659  0.48849963  1
  In  In82  1  0.65933176  0.00194847  0.24963578  1
  In  In83  1  0.65905599  0.33384200  0.23690721  1
  In  In84  1  0.50078670  0.49597052  0.49637904  1
  In  In85  1  0.01048645  -0.00047007  0.25499973  1
  Cu  Cu86  1  0.50118395  0.83639396  0.75536761  1
  Cu  Cu87  1  0.33062565  0.66975191  0.00245747  1
  Cu  Cu88  1  0.17807527  0.15740257  0.75083501  1
  Cu  Cu89  1  0.00212392  0.00818426  0.49794241  1
  Cu  Cu90  1  0.83126244  0.50463132  0.25051466  1
  Cu  Cu91  1  0.66122281  0.00340695  -0.01250996  1
  Cu  Cu92  1  0.66724217  0.33601615  0.50567759  1
  Cu  Cu93  1  0.49617151  0.50614420  0.76130217  1
  Cu  Cu94  1  0.83063670  0.82223282  0.25713927  1
  Cu  Cu95  1  0.66167019  0.00581642  0.50805243  1
  Cu  Cu96  1  0.49476528  0.15975281  0.24846711  1
  Cu  Cu97  1  0.33538928  0.32208271  0.49787515  1
  Cu  Cu98  1  0.17525295  0.17612360  0.25073208  1
  Cu  Cu99  1  0.81937066  0.17365754  0.74536295  1
  Cu  Cu100  1  0.48666036  0.83132188  0.23755324  1
  Cu  Cu101  1  0.82152474  0.50647761  0.75068295  1
  Cu  Cu102  1  0.00441161  0.66039823  0.00732856  1
  Cu  Cu103  1  0.82648950  0.83214238  0.74708165  1
  Cu  Cu104  1  0.00442545  0.33754907  0.01005607  1
  Cu  Cu105  1  0.00858067  -0.01243533  0.00723046  1
  Cu  Cu106  1  0.00509352  0.34124621  0.49647810  1
  Cu  Cu107  1  0.83884134  0.17404392  0.25448317  1
  Cu  Cu108  1  0.18158233  0.82264777  0.75843591  1
  Cu  Cu109  1  0.17007198  0.83773288  0.24330435  1
  Cu  Cu110  1  0.49619059  0.17165172  0.75077801  1
  Cu  Cu111  1  0.32943870  0.34230458  0.00341282  1
  Cu  Cu112  1  0.17285740  0.49745125  0.75745084  1
  Cu  Cu113  1  0.33738597  0.00155273  0.50060889  1
  Cu  Cu114  1  0.32833299  0.65685334  0.49326807  1
  Se  Se115  1  0.08357716  0.08022739  0.05974203  1
  Se  Se116  1  0.09248521  0.08566351  0.54883705  1
  Se  Se117  1  0.08789118  0.41886542  0.06332611  1
  Se  Se118  1  0.07970815  0.41691820  0.56467780  1
  Se  Se119  1  0.08926724  0.74848393  0.05301774  1
  Se  Se120  1  0.07305569  0.73937833  0.55411268  1
  Se  Se121  1  0.42743285  0.11043937  0.05148375  1
  Se  Se122  1  0.42018511  0.08414392  0.55422926  1
  Se  Se123  1  0.41259518  0.42331448  0.05928908  1
  Se  Se124  1  0.40999483  0.40849486  0.55933044  1
  Se  Se125  1  0.41875842  0.75484459  0.05007327  1
  Se  Se126  1  0.40889403  0.73719102  0.55384093  1
  Se  Se127  1  0.73688704  0.07777513  0.05650319  1
  Se  Se128  1  0.74872211  0.09025635  0.55772193  1
  Se  Se129  1  0.74938376  0.38963913  0.04309401  1
  Se  Se130  1  0.74898751  0.42382638  0.55580843  1
  Se  Se131  1  0.75369583  0.74319835  0.06197321  1
  Se  Se132  1  0.75473864  0.77045223  0.55507207  1
  Se  Se133  1  0.25058743  0.26468165  0.06858867  1
  Se  Se134  1  0.24749594  0.24459987  0.55198246  1
  Se  Se135  1  0.25319418  0.58331774  0.05897109  1
  Se  Se136  1  0.25451600  0.57735276  0.55889645  1
  Se  Se137  1  0.26201028  0.92743432  0.04515340  1
  Se  Se138  1  0.26075743  0.91480024  0.56013955  1
  Se  Se139  1  0.59423060  0.26729999  0.04484527  1
  Se  Se140  1  0.57908489  0.25346791  0.55507136  1
  Se  Se141  1  0.60035680  0.60695350  0.04349793  1
  Se  Se142  1  0.58105758  0.58945105  0.56010829  1
  Se  Se143  1  0.58409115  0.91753251  0.04491997  1
  Se  Se144  1  0.58327667  0.92198096  0.56736827  1
  Se  Se145  1  0.92525736  0.25034546  0.06542158  1
  Se  Se146  1  0.92065503  0.25683492  0.55072865  1
  Se  Se147  1  0.91757698  0.57690176  0.05612972  1
  Se  Se148  1  0.92581380  0.59428028  0.54230011  1
  Se  Se149  1  0.92068553  0.91273152  0.06564259  1
  Se  Se150  1  0.92127925  0.92702901  0.55517230  1
  Se  Se151  1  0.09000599  0.25813535  0.44472131  1
  Se  Se152  1  0.07425557  0.25720383  0.94192725  1
  Se  Se153  1  0.07858320  0.59548676  0.43569249  1
  Se  Se154  1  0.08997639  0.57576914  0.95503345  1
  Se  Se155  1  0.07546509  0.92457616  0.43451521  1
  Se  Se156  1  0.09176211  0.90307454  0.95695502  1
  Se  Se157  1  0.42296644  0.24143489  0.44650572  1
  Se  Se158  1  0.41213291  0.26067485  0.94823291  1
  Se  Se159  1  0.40677219  0.57797729  0.43325173  1
  Se  Se160  1  0.41528660  0.58788376  0.94770453  1
  Se  Se161  1  0.40589356  0.91413395  0.43803495  1
  Se  Se162  1  0.42395961  0.91298165  0.95008018  1
  Se  Se163  1  0.75335991  0.25315219  0.45139449  1
  Se  Se164  1  0.74101812  0.24707462  0.93021999  1
  Se  Se165  1  0.74078870  0.58443130  0.46062151  1
  Se  Se166  1  0.76830372  0.55822425  0.94999691  1
  Se  Se167  1  0.73911783  0.92495419  0.44700318  1
  Se  Se168  1  0.74649708  0.92274061  0.93274080  1
  Se  Se169  1  0.25058580  0.08213109  0.44766524  1
  Se  Se170  1  0.26561436  0.08262360  0.94112589  1
  Se  Se171  1  0.26589887  0.41088320  0.43572956  1
  Se  Se172  1  0.24435055  0.42428326  0.95094784  1
  Se  Se173  1  0.24629404  0.73920030  0.43625122  1
  Se  Se174  1  0.24917025  0.75582158  0.94946117  1
  Se  Se175  1  0.57673583  0.08239968  0.45032814  1
  Se  Se176  1  0.57422795  0.09037876  0.94280729  1
  Se  Se177  1  0.59369982  0.40748773  0.43503903  1
  Se  Se178  1  0.57096331  0.43323572  0.95312758  1
  Se  Se179  1  0.58852649  0.73386526  0.44438637  1
  Se  Se180  1  0.59660045  0.74532413  0.95276096  1
  Se  Se181  1  0.91528323  0.09257187  0.44822311  1
  Se  Se182  1  0.92872774  0.06949023  0.94575866  1
  Se  Se183  1  0.91904249  0.42171121  0.44377680  1
  Se  Se184  1  0.91851362  0.41542014  0.95363981  1
  Se  Se185  1  0.89408671  0.77358343  0.44683446  1
  Se  Se186  1  0.92655288  0.73383836  0.93731198  1
  Se  Se187  1  0.25988898  0.25333450  0.30828658  1
  Se  Se188  1  0.25213106  0.25124478  0.80190872  1
  Se  Se189  1  0.27311785  0.60153448  0.29184041  1
  Se  Se190  1  0.25339878  0.58426672  0.80853217  1
  Se  Se191  1  0.25441643  0.92317406  0.29314933  1
  Se  Se192  1  0.25828607  0.91440860  0.80816245  1
  Se  Se193  1  0.58608151  0.23451935  0.30520810  1
  Se  Se194  1  0.57575878  0.25993054  0.80427045  1
  Se  Se195  1  0.57856776  0.56718621  0.30854206  1
  Se  Se196  1  0.58457011  0.58792129  0.81110952  1
  Se  Se197  1  0.57097204  0.90147557  0.30463973  1
  Se  Se198  1  0.58287449  0.92403974  0.80614179  1
  Se  Se199  1  0.92181380  0.25836120  0.30447956  1
  Se  Se200  1  0.90122126  0.24773540  0.81025907  1
  Se  Se201  1  0.90637766  0.58828922  0.31104193  1
  Se  Se202  1  0.91219294  0.58062790  0.80825179  1
  Se  Se203  1  0.90861042  0.91460864  0.30963755  1
  Se  Se204  1  0.91311497  0.90649733  0.80818649  1
  Se  Se205  1  0.09476202  0.09582108  0.31378831  1
  Se  Se206  1  0.09710013  0.07973297  0.81418164  1
  Se  Se207  1  0.10542411  0.44286788  0.30525812  1
  Se  Se208  1  0.08426159  0.42243181  0.81467177  1
  Se  Se209  1  0.08463682  0.75815646  0.29902612  1
  Se  Se210  1  0.09117000  0.74453247  0.81152069  1
  Se  Se211  1  0.41494831  0.07636954  0.30450783  1
  Se  Se212  1  0.41514743  0.08380155  0.80314600  1
  Se  Se213  1  0.43499108  0.41315640  0.29691575  1
  Se  Se214  1  0.41407656  0.41613599  0.80962303  1
  Se  Se215  1  0.41488289  0.74908228  0.30062497  1
  Se  Se216  1  0.42139916  0.74913836  0.80981204  1
  Se  Se217  1  0.75402949  0.09188009  0.30910826  1
  Se  Se218  1  0.74300399  0.08147063  0.79583565  1
  Se  Se219  1  0.75221472  0.41492276  0.30543390  1
  Se  Se220  1  0.74030075  0.42159521  0.80427107  1
  Se  Se221  1  0.74973496  0.74215807  0.31499475  1
  Se  Se222  1  0.74829523  0.74655485  0.80286015  1
  Se  Se223  1  0.25540115  0.08906333  0.19923245  1
  Se  Se224  1  0.25477324  0.07460496  0.69225066  1
  Se  Se225  1  0.26526597  0.41738778  0.20767629  1
  Se  Se226  1  0.25189799  0.41116876  0.70265283  1
  Se  Se227  1  0.25143586  0.75187711  0.19079352  1
  Se  Se228  1  0.25496427  0.73812531  0.69747986  1
  Se  Se229  1  0.56610463  0.07728418  0.18437566  1
  Se  Se230  1  0.58138744  0.08773482  0.69800837  1
  Se  Se231  1  0.57960477  0.43170189  0.17861861  1
  Se  Se232  1  0.57599787  0.42556066  0.70023029  1
  Se  Se233  1  0.57029429  0.74869203  0.18304355  1
  Se  Se234  1  0.58106627  0.74887614  0.70141178  1
  Se  Se235  1  0.91366223  0.08691249  0.19376361  1
  Se  Se236  1  0.91193967  0.09560933  0.69020348  1
  Se  Se237  1  0.92024291  0.42056684  0.20120813  1
  Se  Se238  1  0.90562066  0.42352418  0.69416372  1
  Se  Se239  1  0.91518046  0.73879595  0.20608158  1
  Se  Se240  1  0.90531474  0.75598681  0.68391294  1
  Se  Se241  1  0.08269156  0.26101285  0.20949145  1
  Se  Se242  1  0.09140179  0.23660693  0.69267532  1
  Se  Se243  1  0.07308138  0.59883754  0.19947030  1
  Se  Se244  1  0.09125967  0.56785275  0.68964461  1
  Se  Se245  1  0.08869769  0.91673289  0.18160324  1
  Se  Se246  1  0.09789199  0.90116628  0.69620774  1
  Se  Se247  1  0.42375378  0.25619748  0.19715632  1
  Se  Se248  1  0.41063136  0.25095565  0.69470162  1
  Se  Se249  1  0.42582260  0.59071460  0.19645211  1
  Se  Se250  1  0.41185611  0.58726098  0.70490877  1
  Se  Se251  1  0.41162353  0.92236063  0.18518158  1
  Se  Se252  1  0.41387794  0.91546384  0.70128331  1
  Se  Se253  1  0.75593750  0.23909824  0.18500191  1
  Se  Se254  1  0.74019793  0.26187516  0.69400897  1
  Se  Se255  1  0.74466568  0.56544879  0.18388793  1
  Se  Se256  1  0.75000549  0.59178924  0.68913697  1
  Se  Se257  1  0.75145334  0.90168656  0.19549071  1
  Se  Se258  1  0.74558839  0.92388470  0.69968294  1
