# generated using pymatgen
data_In86Cu29Se144
_symmetry_space_group_name_H-M   'P 1'
_cell_length_a   17.56616459
_cell_length_b   17.57169823
_cell_length_c   23.43020216
_cell_angle_alpha   89.98650677
_cell_angle_beta   89.99165590
_cell_angle_gamma   89.98547693
_symmetry_Int_Tables_number   1
_chemical_formula_structural   In86Cu29Se144
_chemical_formula_sum   'In86 Cu29 Se144'
_cell_volume   7232.13774418
_cell_formula_units_Z   1
loop_
 _symmetry_equiv_pos_site_id
 _symmetry_equiv_pos_as_xyz
  1  'x, y, z'
loop_
 _atom_site_type_symbol
 _atom_site_label
 _atom_site_symmetry_multiplicity
 _atom_site_fract_x
 _atom_site_fract_y
 _atom_site_fract_z
 _atom_site_occupancy
  In  In0  1  -0.01989103  0.17062088  0.12771955  1
  In  In1  1  -0.00592237  0.15878227  0.62362667  1
  In  In2  1  0.01067470  0.51385995  0.12417384  1
  In  In3  1  -0.00468213  0.49479269  0.61170320  1
  In  In4  1  -0.00434986  0.83007513  0.13280665  1
  In  In5  1  -0.00048424  0.84509176  0.62732206  1
  In  In6  1  0.34588007  0.17605165  0.13179513  1
  In  In7  1  0.33427712  0.15235096  0.61058550  1
  In  In8  1  0.33708265  0.49596215  0.12932994  1
  In  In9  1  0.32396143  0.48952340  0.60337924  1
  In  In10  1  0.31836079  0.83196120  0.12342946  1
  In  In11  1  0.34233191  0.84988280  0.62093061  1
  In  In12  1  0.66866113  0.15582415  0.14210918  1
  In  In13  1  0.65385767  0.14467415  0.60334527  1
  In  In14  1  0.66654866  0.49938786  0.12631870  1
  In  In15  1  0.66036980  0.49172697  0.60553706  1
  In  In16  1  0.69530636  0.81501623  0.15185086  1
  In  In17  1  0.68331803  0.83679237  0.61723686  1
  In  In18  1  0.15258820  0.00601439  0.37650291  1
  In  In19  1  0.15116999  -0.00389487  0.86858884  1
  In  In20  1  0.18780379  0.33540929  0.37282943  1
  In  In21  1  0.17194089  0.34243045  0.87971374  1
  In  In22  1  0.15954647  0.65562341  0.36858263  1
  In  In23  1  0.17152122  0.66500066  0.88967102  1
  In  In24  1  0.51238561  0.00116502  0.38589012  1
  In  In25  1  0.50777470  0.00702016  0.86738119  1
  In  In26  1  0.50125043  0.32896086  0.37634585  1
  In  In27  1  0.49982852  0.33406412  0.88109707  1
  In  In28  1  0.49594541  0.66427027  0.36214310  1
  In  In29  1  0.48950029  0.66088471  0.88062524  1
  In  In30  1  0.82757111  -0.00051790  0.38423977  1
  In  In31  1  0.83449096  -0.00349147  0.87811975  1
  In  In32  1  0.82338555  0.34218510  0.37537352  1
  In  In33  1  0.82836055  0.33263784  0.88793303  1
  In  In34  1  0.82692339  0.66612844  0.36377735  1
  In  In35  1  0.83762709  0.66555510  0.88809834  1
  In  In36  1  -0.00452586  0.14558205  0.36812886  1
  In  In37  1  -0.00581478  0.15041008  0.87556257  1
  In  In38  1  -0.01127776  0.50661518  0.37585635  1
  In  In39  1  -0.00171242  0.50248446  0.88633139  1
  In  In40  1  -0.03146083  0.81669598  0.34959466  1
  In  In41  1  -0.00748994  0.84183758  0.88479165  1
  In  In42  1  0.33609217  0.18140135  0.37827496  1
  In  In43  1  0.34136900  0.16795878  0.87158325  1
  In  In44  1  0.33623844  0.49492894  0.37801774  1
  In  In45  1  0.32979048  0.49420072  0.89538440  1
  In  In46  1  0.34481958  0.83047113  0.37266773  1
  In  In47  1  0.32420559  0.83355653  0.87968883  1
  In  In48  1  0.65825214  0.17037358  0.37988994  1
  In  In49  1  0.67589514  0.16196408  0.87786285  1
  In  In50  1  0.66656318  0.49844630  0.36631908  1
  In  In51  1  0.66307946  0.50155031  0.88961389  1
  In  In52  1  0.69184907  0.85318975  0.35295593  1
  In  In53  1  0.66807590  0.84884662  0.87858652  1
  In  In54  1  0.16748685  -0.01826289  0.12052084  1
  In  In55  1  0.17094165  0.00661358  0.63352587  1
  In  In56  1  0.17410353  0.34566344  0.12177163  1
  In  In57  1  0.15726818  0.33220365  0.62022973  1
  In  In58  1  0.16645389  0.66750741  0.13323831  1
  In  In59  1  0.17391822  0.66328850  0.62272859  1
  In  In60  1  0.51980982  0.01078040  0.12862430  1
  In  In61  1  0.49237706  0.01106577  0.62416063  1
  In  In62  1  0.48718024  0.34213333  0.14356350  1
  In  In63  1  0.49177559  0.33085132  0.60368896  1
  In  In64  1  0.51460381  0.65043078  0.13679641  1
  In  In65  1  0.50575034  0.65898724  0.61524545  1
  In  In66  1  0.83251049  -0.00191452  0.13205311  1
  In  In67  1  0.83506588  -0.00153943  0.62493533  1
  In  In68  1  0.82118855  0.32304825  0.12172184  1
  In  In69  1  0.82593461  0.31873006  0.60907325  1
  In  In70  1  0.84117515  0.67090061  0.12947281  1
  In  In71  1  0.82698562  0.66234536  0.61172031  1
  In  In72  1  0.15899626  0.83326604  0.50554361  1
  In  In73  1  0.16709798  0.17228162  0.49895547  1
  In  In74  1  0.66501076  0.32588088  0.74396786  1
  In  In75  1  0.33411241  0.67296926  0.74979172  1
  In  In76  1  0.00162555  0.67057738  0.75660693  1
  In  In77  1  -0.00193328  0.32314746  0.74155108  1
  In  In78  1  0.33413368  -0.00094437  0.24976752  1
  In  In79  1  0.50755002  0.82645167  0.49145647  1
  In  In80  1  0.16009107  0.16694730  -0.00372455  1
  In  In81  1  0.66702388  0.67519329  0.74529261  1
  In  In82  1  0.00252946  0.33565183  0.24519459  1
  In  In83  1  0.50121524  0.17531580  0.00288174  1
  In  In84  1  0.50544452  0.82804548  0.00570433  1
  In  In85  1  0.33344495  0.32761827  0.75206489  1
  Cu  Cu86  1  0.83403116  0.50278953  0.24584704  1
  Cu  Cu87  1  0.50047852  0.49614359  0.25374021  1
  Cu  Cu88  1  0.67839475  -0.00465780  0.00893541  1
  Cu  Cu89  1  0.49623730  0.83406800  0.24930747  1
  Cu  Cu90  1  0.16213726  0.83193683  0.25056282  1
  Cu  Cu91  1  0.66738413  0.66485725  0.48483848  1
  Cu  Cu92  1  0.49862889  0.50172346  0.74524318  1
  Cu  Cu93  1  0.16795173  0.84501276  0.75553031  1
  Cu  Cu94  1  0.00308558  0.67088420  0.00816126  1
  Cu  Cu95  1  0.32739006  0.66170689  0.49203055  1
  Cu  Cu96  1  -0.00810357  0.66547976  0.48772983  1
  Cu  Cu97  1  0.16715412  0.50023885  0.75314960  1
  Cu  Cu98  1  0.65830430  0.33551536  0.00767603  1
  Cu  Cu99  1  0.33414198  0.00042479  -0.00142207  1
  Cu  Cu100  1  0.82889726  0.16164128  0.25659510  1
  Cu  Cu101  1  0.33539888  0.65844078  0.00998319  1
  Cu  Cu102  1  0.17007587  0.16723436  0.25069091  1
  Cu  Cu103  1  0.83777727  0.84033008  0.75085272  1
  Cu  Cu104  1  0.83407406  0.15428277  0.74989336  1
  Cu  Cu105  1  -0.00803919  -0.01151712  0.49585889  1
  Cu  Cu106  1  0.49940030  0.16053121  0.74192696  1
  Cu  Cu107  1  0.67647327  0.33915292  0.48850615  1
  Cu  Cu108  1  0.67238101  0.66700822  0.01171839  1
  Cu  Cu109  1  0.00895006  0.33515670  0.49146663  1
  Cu  Cu110  1  0.17495045  0.49788090  0.25009497  1
  Cu  Cu111  1  0.82559809  0.49405539  0.74763533  1
  Cu  Cu112  1  -0.00544793  -0.00277715  0.00400538  1
  Cu  Cu113  1  -0.00804784  0.33748512  0.00699589  1
  Cu  Cu114  1  0.50379550  0.84899878  0.74639744  1
  Se  Se115  1  0.07497595  0.08061462  0.06308772  1
  Se  Se116  1  0.07886604  0.06900688  0.55294591  1
  Se  Se117  1  0.07995790  0.41764037  0.05666229  1
  Se  Se118  1  0.08872471  0.41876775  0.54715674  1
  Se  Se119  1  0.08523866  0.75290689  0.06384426  1
  Se  Se120  1  0.06678156  0.73576216  0.56084224  1
  Se  Se121  1  0.41277037  0.07549765  0.05996495  1
  Se  Se122  1  0.43402208  0.09370853  0.54353758  1
  Se  Se123  1  0.41559773  0.40679518  0.06192781  1
  Se  Se124  1  0.43719393  0.44217189  0.54616705  1
  Se  Se125  1  0.41694950  0.74044529  0.06832512  1
  Se  Se126  1  0.40546198  0.74274488  0.55479514  1
  Se  Se127  1  0.74951367  0.08712563  0.06409533  1
  Se  Se128  1  0.77525288  0.09721769  0.55552108  1
  Se  Se129  1  0.74905391  0.41739160  0.05513289  1
  Se  Se130  1  0.76071704  0.42033845  0.54502353  1
  Se  Se131  1  0.75340713  0.75445332  0.06095890  1
  Se  Se132  1  0.74700840  0.74701670  0.54367088  1
  Se  Se133  1  0.25520228  0.24797908  0.05853386  1
  Se  Se134  1  0.26033981  0.26397706  0.55549592  1
  Se  Se135  1  0.24817384  0.58136521  0.06501742  1
  Se  Se136  1  0.23950158  0.58309360  0.54519581  1
  Se  Se137  1  0.24958326  0.91182961  0.04509294  1
  Se  Se138  1  0.25328342  0.93034212  0.55369494  1
  Se  Se139  1  0.58715216  0.25341224  0.07152023  1
  Se  Se140  1  0.59539342  0.25844179  0.54762551  1
  Se  Se141  1  0.58290905  0.58088683  0.05408962  1
  Se  Se142  1  0.58299847  0.58391686  0.54017778  1
  Se  Se143  1  0.59668957  0.91388963  0.06580932  1
  Se  Se144  1  0.58352273  0.91811882  0.55932396  1
  Se  Se145  1  0.90842132  0.24703809  0.05062494  1
  Se  Se146  1  0.93319540  0.25183198  0.55132637  1
  Se  Se147  1  0.91680435  0.58562294  0.05701193  1
  Se  Se148  1  0.91233768  0.57953543  0.54625365  1
  Se  Se149  1  0.91500189  0.91596702  0.06222910  1
  Se  Se150  1  0.91096525  0.90768937  0.55364959  1
  Se  Se151  1  0.07900221  0.25159659  0.42820332  1
  Se  Se152  1  0.06710649  0.25997920  0.93876257  1
  Se  Se153  1  0.08133974  0.58090490  0.44410256  1
  Se  Se154  1  0.08338813  0.58387060  0.95334109  1
  Se  Se155  1  0.07012867  0.90794494  0.43562280  1
  Se  Se156  1  0.08464692  0.92067157  0.94965951  1
  Se  Se157  1  0.41652734  0.25569650  0.45031520  1
  Se  Se158  1  0.40017526  0.26114340  0.94762212  1
  Se  Se159  1  0.41985963  0.58972079  0.43948326  1
  Se  Se160  1  0.42134687  0.57872057  0.95573463  1
  Se  Se161  1  0.40711179  0.92300238  0.44661974  1
  Se  Se162  1  0.42246170  0.92334287  0.94154610  1
  Se  Se163  1  0.75798840  0.24586602  0.44358069  1
  Se  Se164  1  0.73962607  0.25007586  0.95193447  1
  Se  Se165  1  0.75333762  0.57942243  0.43588036  1
  Se  Se166  1  0.75232500  0.58175025  0.95340016  1
  Se  Se167  1  0.74261565  0.90978266  0.44594728  1
  Se  Se168  1  0.75705085  0.91191309  0.95165890  1
  Se  Se169  1  0.25346711  0.07862267  0.43950344  1
  Se  Se170  1  0.25485549  0.07910152  0.93838713  1
  Se  Se171  1  0.25089139  0.41780044  0.44903437  1
  Se  Se172  1  0.23558438  0.42077038  0.95776570  1
  Se  Se173  1  0.24848005  0.74905170  0.43810651  1
  Se  Se174  1  0.25832497  0.74740744  0.95478524  1
  Se  Se175  1  0.58231278  0.08967346  0.45548126  1
  Se  Se176  1  0.59153913  0.07312121  0.94926351  1
  Se  Se177  1  0.58704902  0.42007983  0.43990080  1
  Se  Se178  1  0.57495808  0.41727238  0.95238483  1
  Se  Se179  1  0.59524616  0.74957585  0.42265985  1
  Se  Se180  1  0.59521790  0.73946931  0.94102995  1
  Se  Se181  1  0.91700585  0.08594054  0.44992296  1
  Se  Se182  1  0.91183225  0.08174970  0.95067984  1
  Se  Se183  1  0.91698514  0.41437074  0.44339433  1
  Se  Se184  1  0.90982920  0.42163141  0.95152164  1
  Se  Se185  1  0.90854897  0.74860463  0.43671585  1
  Se  Se186  1  0.91777767  0.75282894  0.95336069  1
  Se  Se187  1  0.25620862  0.24931326  0.29879874  1
  Se  Se188  1  0.23672446  0.24329656  0.81017990  1
  Se  Se189  1  0.25608041  0.58044950  0.30654578  1
  Se  Se190  1  0.24914196  0.57830954  0.81308844  1
  Se  Se191  1  0.24170600  0.91186973  0.31206194  1
  Se  Se192  1  0.25565652  0.92309504  0.80910062  1
  Se  Se193  1  0.59497125  0.26170934  0.30659796  1
  Se  Se194  1  0.57226753  0.24089668  0.80919900  1
  Se  Se195  1  0.58763049  0.58584136  0.29751863  1
  Se  Se196  1  0.57816404  0.58072309  0.80756968  1
  Se  Se197  1  0.57359273  0.91724824  0.30664647  1
  Se  Se198  1  0.59287108  0.92273314  0.80142509  1
  Se  Se199  1  0.91428700  0.24861350  0.30909777  1
  Se  Se200  1  0.90261658  0.24693072  0.80918197  1
  Se  Se201  1  0.91902939  0.58414070  0.29848319  1
  Se  Se202  1  0.90591769  0.57353488  0.80869302  1
  Se  Se203  1  0.92902948  0.94589155  0.31144624  1
  Se  Se204  1  0.92227832  0.91931254  0.80655476  1
  Se  Se205  1  0.08509929  0.07986410  0.29500272  1
  Se  Se206  1  0.08160698  0.08957472  0.80195100  1
  Se  Se207  1  0.08914062  0.42112095  0.31077176  1
  Se  Se208  1  0.07989041  0.42105848  0.80730818  1
  Se  Se209  1  0.08073033  0.74461539  0.30172451  1
  Se  Se210  1  0.09566818  0.75646607  0.81627617  1
  Se  Se211  1  0.41817293  0.08175149  0.31709477  1
  Se  Se212  1  0.41656466  0.08342984  0.80126391  1
  Se  Se213  1  0.41677012  0.41320350  0.30664076  1
  Se  Se214  1  0.41905557  0.42743327  0.81070689  1
  Se  Se215  1  0.40937527  0.74829769  0.29543140  1
  Se  Se216  1  0.42866724  0.76392931  0.80842608  1
  Se  Se217  1  0.74611608  0.08422798  0.31423800  1
  Se  Se218  1  0.74861125  0.07679280  0.80707031  1
  Se  Se219  1  0.75207231  0.41683333  0.29692740  1
  Se  Se220  1  0.74674288  0.41879239  0.81165834  1
  Se  Se221  1  0.76395491  0.75786235  0.28921965  1
  Se  Se222  1  0.75993097  0.75480455  0.81192593  1
  Se  Se223  1  0.24365988  0.08549460  0.18497541  1
  Se  Se224  1  0.26171881  0.09024237  0.69273327  1
  Se  Se225  1  0.25516040  0.41005697  0.19986345  1
  Se  Se226  1  0.24519290  0.42295148  0.68964431  1
  Se  Se227  1  0.25180056  0.75135700  0.20108628  1
  Se  Se228  1  0.24349206  0.76602211  0.68960976  1
  Se  Se229  1  0.56942710  0.09325556  0.20966709  1
  Se  Se230  1  0.58954308  0.08213272  0.69117994  1
  Se  Se231  1  0.58929094  0.41760826  0.19997169  1
  Se  Se232  1  0.57518152  0.41909805  0.68489828  1
  Se  Se233  1  0.58293668  0.74807036  0.20279684  1
  Se  Se234  1  0.57256680  0.76130707  0.68394282  1
  Se  Se235  1  0.91625130  0.08365217  0.20187857  1
  Se  Se236  1  0.92224034  0.07501993  0.69730202  1
  Se  Se237  1  0.91220649  0.42085848  0.18346846  1
  Se  Se238  1  0.90504070  0.41713516  0.68492279  1
  Se  Se239  1  0.90267208  0.76356379  0.20394092  1
  Se  Se240  1  0.90753696  0.74941784  0.68985992  1
  Se  Se241  1  0.09213173  0.24361374  0.18478749  1
  Se  Se242  1  0.09603763  0.23315003  0.69072839  1
  Se  Se243  1  0.08561155  0.58248424  0.20369281  1
  Se  Se244  1  0.08533529  0.57733211  0.69104142  1
  Se  Se245  1  0.08351930  0.91843919  0.19688476  1
  Se  Se246  1  0.08363111  0.92105963  0.69744637  1
  Se  Se247  1  0.43246198  0.23373113  0.20706295  1
  Se  Se248  1  0.42411457  0.24783920  0.68501841  1
  Se  Se249  1  0.41592322  0.58053600  0.20060543  1
  Se  Se250  1  0.41440570  0.57836557  0.68507373  1
  Se  Se251  1  0.42211065  0.91301970  0.18379486  1
  Se  Se252  1  0.41311664  0.92811583  0.69672362  1
  Se  Se253  1  0.75208786  0.25034106  0.20245081  1
  Se  Se254  1  0.75571137  0.23540918  0.68760790  1
  Se  Se255  1  0.75039484  0.58568663  0.19234317  1
  Se  Se256  1  0.74698018  0.57303213  0.68534050  1
  Se  Se257  1  0.72859172  0.94151327  0.19943494  1
  Se  Se258  1  0.75013771  0.91650179  0.69544881  1
