# generated using pymatgen
data_In86Cu29Se144
_symmetry_space_group_name_H-M   'P 1'
_cell_length_a   17.54196669
_cell_length_b   17.54118632
_cell_length_c   23.39318128
_cell_angle_alpha   90.01225275
_cell_angle_beta   89.99705035
_cell_angle_gamma   90.00438599
_symmetry_Int_Tables_number   1
_chemical_formula_structural   In86Cu29Se144
_chemical_formula_sum   'In86 Cu29 Se144'
_cell_volume   7198.24323789
_cell_formula_units_Z   1
loop_
 _symmetry_equiv_pos_site_id
 _symmetry_equiv_pos_as_xyz
  1  'x, y, z'
loop_
 _atom_site_type_symbol
 _atom_site_label
 _atom_site_symmetry_multiplicity
 _atom_site_fract_x
 _atom_site_fract_y
 _atom_site_fract_z
 _atom_site_occupancy
  In  In0  1  -0.01834993  0.16845324  0.14063180  1
  In  In1  1  0.00172745  0.15703514  0.62518917  1
  In  In2  1  -0.00668367  0.50601378  0.12835484  1
  In  In3  1  -0.00462756  0.49921481  0.62098403  1
  In  In4  1  -0.00482498  0.83263448  0.13316658  1
  In  In5  1  -0.01005640  0.84314524  0.62816364  1
  In  In6  1  0.34009656  0.15148129  0.12358151  1
  In  In7  1  0.33238571  0.17991568  0.62106561  1
  In  In8  1  0.35164158  0.51118310  0.11979835  1
  In  In9  1  0.32928965  0.51915441  0.62013341  1
  In  In10  1  0.33195633  0.82195132  0.12193090  1
  In  In11  1  0.33430898  0.81918653  0.61831637  1
  In  In12  1  0.67692896  0.16637395  0.13121193  1
  In  In13  1  0.65669453  0.15840532  0.62496112  1
  In  In14  1  0.66103922  0.51136390  0.13589167  1
  In  In15  1  0.67357329  0.49316361  0.61713416  1
  In  In16  1  0.66257695  0.83431565  0.13022041  1
  In  In17  1  0.67805091  0.84105259  0.61554878  1
  In  In18  1  0.16857072  0.01083627  0.38304292  1
  In  In19  1  0.14747736  -0.00297787  0.87943295  1
  In  In20  1  0.15304747  0.33789609  0.38102231  1
  In  In21  1  0.15609764  0.34378885  0.87554894  1
  In  In22  1  0.15400187  0.66330555  0.36021171  1
  In  In23  1  0.15579953  0.67502066  0.88178267  1
  In  In24  1  0.50479502  -0.03263475  0.36544948  1
  In  In25  1  0.51374247  -0.01165613  0.88715266  1
  In  In26  1  0.50910272  0.32377287  0.37104045  1
  In  In27  1  0.51136763  0.32896153  0.89095549  1
  In  In28  1  0.51632056  0.69788801  0.34941381  1
  In  In29  1  0.49481773  0.66804766  0.89763092  1
  In  In30  1  0.81483101  -0.02137111  0.34411284  1
  In  In31  1  0.83456367  0.00261730  0.88000266  1
  In  In32  1  0.84817034  0.34025638  0.36099637  1
  In  In33  1  0.82992231  0.32760994  0.87591348  1
  In  In34  1  0.83105590  0.66952021  0.37198034  1
  In  In35  1  0.85039272  0.66769534  0.87709047  1
  In  In36  1  -0.00905258  0.17383876  0.36863057  1
  In  In37  1  -0.01191547  0.15197672  0.86901143  1
  In  In38  1  0.00527721  0.49949940  0.37752920  1
  In  In39  1  -0.00743480  0.50537341  0.86139751  1
  In  In40  1  -0.01765849  0.81727670  0.34987212  1
  In  In41  1  -0.00313137  0.83722270  0.88233771  1
  In  In42  1  0.32370989  0.14321154  0.37925168  1
  In  In43  1  0.33871637  0.17697495  0.87971331  1
  In  In44  1  0.32013496  0.50854885  0.37769589  1
  In  In45  1  0.33709585  0.51699687  0.88145031  1
  In  In46  1  0.34804155  0.84297186  0.36939048  1
  In  In47  1  0.33199908  0.82142295  0.89095209  1
  In  In48  1  0.67419272  0.15871498  0.35221109  1
  In  In49  1  0.68359712  0.16015394  0.88914135  1
  In  In50  1  0.68241505  0.51585396  0.36880155  1
  In  In51  1  0.66670992  0.49175985  0.88126418  1
  In  In52  1  0.67385188  0.82958690  0.36505297  1
  In  In53  1  0.65989660  0.84171546  0.88489228  1
  In  In54  1  0.16408152  -0.02246862  0.13013576  1
  In  In55  1  0.14600612  -0.00876847  0.61780350  1
  In  In56  1  0.15223620  0.32541870  0.12981456  1
  In  In57  1  0.14921242  0.32353907  0.61456518  1
  In  In58  1  0.15893665  0.68978945  0.14313655  1
  In  In59  1  0.16621689  0.65414095  0.61502382  1
  In  In60  1  0.50863606  0.00413034  0.11909417  1
  In  In61  1  0.51972441  -0.00293887  0.62449376  1
  In  In62  1  0.51665934  0.33718178  0.12348792  1
  In  In63  1  0.50584284  0.32799101  0.62553436  1
  In  In64  1  0.50406943  0.67142703  0.12757240  1
  In  In65  1  0.48526834  0.67454852  0.62059844  1
  In  In66  1  0.82428964  -0.01217732  0.13453127  1
  In  In67  1  0.83548219  -0.00552380  0.62662714  1
  In  In68  1  0.84129510  0.32257212  0.13646358  1
  In  In69  1  0.83867442  0.35182752  0.61834111  1
  In  In70  1  0.81558662  0.69959671  0.15632654  1
  In  In71  1  0.83799276  0.67151536  0.61796634  1
  In  In72  1  0.32777383  0.33507147  0.74891826  1
  In  In73  1  0.83470967  0.16261439  0.48829530  1
  In  In74  1  0.67202969  0.66943892  0.74663592  1
  In  In75  1  0.16596065  0.83463705  0.49246432  1
  In  In76  1  0.49772654  0.50871399  0.50229922  1
  In  In77  1  0.17177853  0.50635068  -0.00016950  1
  In  In78  1  0.33249439  -0.00589459  0.24483136  1
  In  In79  1  0.16656824  0.15678362  0.00470689  1
  In  In80  1  0.32463805  -0.00352225  0.74957483  1
  In  In81  1  0.82920006  0.50583130  0.00470859  1
  In  In82  1  0.32560033  0.67051146  0.75516708  1
  In  In83  1  0.49657322  0.15724886  0.49249340  1
  In  In84  1  0.33021434  0.34173048  0.25159647  1
  In  In85  1  0.68377004  0.32764671  0.75694083  1
  Cu  Cu86  1  0.15394503  0.49385792  0.74286614  1
  Cu  Cu87  1  -0.00705347  0.32535759  0.00189563  1
  Cu  Cu88  1  -0.00137424  0.66988588  0.49015213  1
  Cu  Cu89  1  0.00105476  0.33455154  0.49482446  1
  Cu  Cu90  1  0.67606864  0.33888864  0.48905930  1
  Cu  Cu91  1  0.32123771  0.33596207  0.49718677  1
  Cu  Cu92  1  0.66844543  0.67757292  0.48840842  1
  Cu  Cu93  1  0.49952069  0.50552926  0.24800459  1
  Cu  Cu94  1  -0.00456353  0.67712760  0.00986273  1
  Cu  Cu95  1  -0.00863854  -0.00504711  0.49279448  1
  Cu  Cu96  1  0.66865945  0.33207414  0.00959326  1
  Cu  Cu97  1  0.83356800  0.16583809  0.75266566  1
  Cu  Cu98  1  0.50711618  0.49607763  0.76124266  1
  Cu  Cu99  1  0.83235589  0.83996681  0.75346761  1
  Cu  Cu100  1  0.84131597  0.49300288  0.25423237  1
  Cu  Cu101  1  0.15636313  0.16311817  0.74375416  1
  Cu  Cu102  1  0.15331715  0.83382927  0.75647240  1
  Cu  Cu103  1  0.34026355  0.67230107  0.48647661  1
  Cu  Cu104  1  0.67681483  0.00197002  0.00734365  1
  Cu  Cu105  1  0.67064271  0.67382879  0.01421228  1
  Cu  Cu106  1  0.33900781  -0.00549597  0.00575155  1
  Cu  Cu107  1  0.50730035  0.83926006  0.75442476  1
  Cu  Cu108  1  -0.00649835  -0.00487175  0.00737765  1
  Cu  Cu109  1  0.16443991  0.49868745  0.25159698  1
  Cu  Cu110  1  0.34525665  0.32886649  0.00575189  1
  Cu  Cu111  1  0.66879811  -0.00762429  0.48926501  1
  Cu  Cu112  1  0.15955624  0.17388627  0.25487225  1
  Cu  Cu113  1  0.50978087  0.15098546  0.75888959  1
  Cu  Cu114  1  0.50214043  0.16618820  0.24545200  1
  Se  Se115  1  0.07440326  0.07663921  0.06914460  1
  Se  Se116  1  0.07373095  0.07887198  0.54664666  1
  Se  Se117  1  0.07589779  0.41139204  0.05479745  1
  Se  Se118  1  0.08201709  0.42167626  0.54862108  1
  Se  Se119  1  0.08356735  0.75675287  0.06123409  1
  Se  Se120  1  0.07556839  0.74859218  0.55629440  1
  Se  Se121  1  0.42403506  0.08535124  0.04851840  1
  Se  Se122  1  0.41435906  0.07619749  0.56459370  1
  Se  Se123  1  0.42604466  0.41543268  0.05678590  1
  Se  Se124  1  0.40784840  0.40865359  0.55967117  1
  Se  Se125  1  0.42465199  0.75021851  0.05470187  1
  Se  Se126  1  0.42127899  0.75561116  0.54157218  1
  Se  Se127  1  0.75982761  0.08276463  0.06233784  1
  Se  Se128  1  0.74110922  0.07714326  0.55173679  1
  Se  Se129  1  0.74827736  0.41378510  0.06926758  1
  Se  Se130  1  0.75667803  0.42235044  0.54255726  1
  Se  Se131  1  0.75776112  0.75644243  0.06378974  1
  Se  Se132  1  0.75542696  0.75377711  0.54776440  1
  Se  Se133  1  0.25589284  0.25490986  0.06251637  1
  Se  Se134  1  0.24307726  0.24647054  0.54941511  1
  Se  Se135  1  0.24419728  0.59412684  0.07056198  1
  Se  Se136  1  0.25485230  0.58859559  0.54016992  1
  Se  Se137  1  0.25001381  0.91262913  0.05481290  1
  Se  Se138  1  0.25430905  0.91974454  0.55851368  1
  Se  Se139  1  0.58761537  0.24100944  0.05812106  1
  Se  Se140  1  0.59398254  0.25591795  0.54828786  1
  Se  Se141  1  0.58622821  0.58302637  0.05751532  1
  Se  Se142  1  0.59370829  0.60060321  0.55862887  1
  Se  Se143  1  0.58954746  0.91520586  0.05363882  1
  Se  Se144  1  0.58424174  0.91421373  0.54704277  1
  Se  Se145  1  0.91332624  0.24376495  0.05879770  1
  Se  Se146  1  0.91907477  0.25195871  0.55425879  1
  Se  Se147  1  0.90903661  0.60069891  0.06782780  1
  Se  Se148  1  0.91941767  0.58662740  0.54966303  1
  Se  Se149  1  0.91127603  0.91174984  0.06240896  1
  Se  Se150  1  0.90963803  0.91377610  0.55109095  1
  Se  Se151  1  0.07740996  0.24222033  0.44472755  1
  Se  Se152  1  0.07788012  0.24798625  0.94266862  1
  Se  Se153  1  0.08926403  0.58831408  0.44287935  1
  Se  Se154  1  0.06232217  0.58574100  0.94720713  1
  Se  Se155  1  0.06796968  0.91170042  0.43028155  1
  Se  Se156  1  0.08273966  0.91376052  0.95600179  1
  Se  Se157  1  0.40522659  0.25667040  0.43786933  1
  Se  Se158  1  0.42578868  0.24150826  0.95410879  1
  Se  Se159  1  0.42657296  0.59555958  0.42839784  1
  Se  Se160  1  0.41707482  0.57621331  0.96035617  1
  Se  Se161  1  0.40559188  0.93735878  0.44246663  1
  Se  Se162  1  0.42050767  0.90981480  0.95076488  1
  Se  Se163  1  0.74442262  0.25190719  0.42764560  1
  Se  Se164  1  0.75764940  0.25436925  0.95509782  1
  Se  Se165  1  0.75563351  0.58674505  0.44810956  1
  Se  Se166  1  0.74119582  0.59816557  0.94229141  1
  Se  Se167  1  0.75661906  0.91453765  0.43428762  1
  Se  Se168  1  0.75471910  0.91691813  0.94927493  1
  Se  Se169  1  0.24969456  0.07953760  0.45997689  1
  Se  Se170  1  0.25860624  0.07142447  0.94032504  1
  Se  Se171  1  0.24143634  0.42249205  0.44533020  1
  Se  Se172  1  0.26174918  0.40583752  0.94350978  1
  Se  Se173  1  0.25325264  0.74710381  0.42800898  1
  Se  Se174  1  0.25303050  0.72841574  0.95215633  1
  Se  Se175  1  0.59144515  0.07602506  0.42905127  1
  Se  Se176  1  0.58958270  0.08236385  0.95219320  1
  Se  Se177  1  0.58685762  0.41974301  0.43785823  1
  Se  Se178  1  0.58722986  0.42030174  0.95718151  1
  Se  Se179  1  0.58163782  0.75930116  0.43754679  1
  Se  Se180  1  0.58628774  0.75331527  0.95542888  1
  Se  Se181  1  0.91029565  0.06532090  0.42604139  1
  Se  Se182  1  0.91743591  0.08501053  0.95186135  1
  Se  Se183  1  0.91500446  0.41608379  0.44220808  1
  Se  Se184  1  0.92109001  0.41666162  0.94339577  1
  Se  Se185  1  0.91695779  0.75606715  0.43836908  1
  Se  Se186  1  0.91183203  0.75610688  0.95212094  1
  Se  Se187  1  0.24816074  0.24547818  0.31351463  1
  Se  Se188  1  0.23619019  0.24046317  0.80835233  1
  Se  Se189  1  0.25134003  0.58395691  0.29831839  1
  Se  Se190  1  0.23389218  0.57244394  0.80856964  1
  Se  Se191  1  0.23937679  0.91631166  0.31061347  1
  Se  Se192  1  0.24341602  0.90388691  0.81615812  1
  Se  Se193  1  0.58643850  0.25266709  0.29505683  1
  Se  Se194  1  0.58486547  0.24218675  0.81394576  1
  Se  Se195  1  0.58725161  0.58576509  0.30109444  1
  Se  Se196  1  0.58122056  0.58630251  0.81614651  1
  Se  Se197  1  0.60595298  0.92544558  0.29249122  1
  Se  Se198  1  0.59060786  0.92175419  0.80622420  1
  Se  Se199  1  0.90678287  0.24113694  0.29333381  1
  Se  Se200  1  0.91526997  0.25062459  0.80562748  1
  Se  Se201  1  0.91976313  0.58063114  0.30943731  1
  Se  Se202  1  0.91637661  0.59512206  0.79669160  1
  Se  Se203  1  0.93598087  0.93306381  0.28763979  1
  Se  Se204  1  0.91678768  0.91951281  0.81024957  1
  Se  Se205  1  0.08589884  0.08733982  0.31145102  1
  Se  Se206  1  0.08048419  0.07705866  0.80140267  1
  Se  Se207  1  0.08109507  0.41400831  0.30350214  1
  Se  Se208  1  0.07388737  0.41104734  0.79974282  1
  Se  Se209  1  0.08100842  0.74636374  0.28688919  1
  Se  Se210  1  0.07246860  0.74842809  0.80961211  1
  Se  Se211  1  0.42490075  0.08445467  0.30758978  1
  Se  Se212  1  0.41806371  0.07938069  0.81474591  1
  Se  Se213  1  0.42323973  0.42638052  0.31337841  1
  Se  Se214  1  0.42124284  0.41716625  0.81685987  1
  Se  Se215  1  0.40459597  0.75420695  0.29176020  1
  Se  Se216  1  0.42727205  0.75399935  0.81234198  1
  Se  Se217  1  0.76463845  0.09177154  0.28264625  1
  Se  Se218  1  0.75045948  0.08470370  0.80845681  1
  Se  Se219  1  0.74630225  0.41600943  0.30260877  1
  Se  Se220  1  0.76560496  0.43329967  0.80760431  1
  Se  Se221  1  0.75386550  0.74483247  0.29575235  1
  Se  Se222  1  0.75364814  0.75837888  0.81397954  1
  Se  Se223  1  0.23610561  0.09203671  0.19203358  1
  Se  Se224  1  0.24137099  0.08788057  0.68400164  1
  Se  Se225  1  0.24338191  0.42419889  0.18410411  1
  Se  Se226  1  0.24296917  0.42337306  0.68299677  1
  Se  Se227  1  0.25978219  0.75833972  0.20625579  1
  Se  Se228  1  0.23389589  0.75795046  0.69101908  1
  Se  Se229  1  0.58475908  0.08217902  0.19376412  1
  Se  Se230  1  0.59275272  0.07369196  0.70212942  1
  Se  Se231  1  0.58402656  0.41707086  0.20135250  1
  Se  Se232  1  0.58427720  0.41891384  0.69682455  1
  Se  Se233  1  0.60132223  0.73250087  0.19688109  1
  Se  Se234  1  0.57664794  0.75724039  0.68827593  1
  Se  Se235  1  0.92257169  0.06037112  0.20175170  1
  Se  Se236  1  0.91364161  0.08156735  0.69473219  1
  Se  Se237  1  0.92528697  0.41360154  0.19854124  1
  Se  Se238  1  0.92122101  0.41389860  0.69398898  1
  Se  Se239  1  0.94018588  0.73559482  0.20867053  1
  Se  Se240  1  0.90880144  0.75558972  0.69416705  1
  Se  Se241  1  0.07148001  0.25442644  0.20414735  1
  Se  Se242  1  0.07494877  0.25113766  0.69343066  1
  Se  Se243  1  0.08384557  0.58154495  0.19554895  1
  Se  Se244  1  0.08129591  0.58587843  0.68878835  1
  Se  Se245  1  0.07209487  0.92216989  0.20407333  1
  Se  Se246  1  0.07776192  0.91910689  0.69857576  1
  Se  Se247  1  0.41688934  0.24720888  0.19062308  1
  Se  Se248  1  0.43040294  0.23725709  0.70022428  1
  Se  Se249  1  0.41577352  0.59027814  0.19877629  1
  Se  Se250  1  0.42549973  0.57672185  0.69914187  1
  Se  Se251  1  0.42753930  0.91107571  0.18600029  1
  Se  Se252  1  0.41852838  0.90729835  0.69013299  1
  Se  Se253  1  0.74285646  0.25905246  0.20248424  1
  Se  Se254  1  0.75980947  0.24161636  0.68250502  1
  Se  Se255  1  0.75786834  0.57862489  0.20273704  1
  Se  Se256  1  0.75753733  0.57484819  0.68782730  1
  Se  Se257  1  0.73327954  0.91882502  0.20805225  1
  Se  Se258  1  0.74629920  0.91713601  0.69580729  1
