# generated using pymatgen
data_In86Cu29Se144
_symmetry_space_group_name_H-M   'P 1'
_cell_length_a   17.58707922
_cell_length_b   17.58361212
_cell_length_c   23.44502741
_cell_angle_alpha   89.99221139
_cell_angle_beta   89.97993647
_cell_angle_gamma   89.98828162
_symmetry_Int_Tables_number   1
_chemical_formula_structural   In86Cu29Se144
_chemical_formula_sum   'In86 Cu29 Se144'
_cell_volume   7250.24228600
_cell_formula_units_Z   1
loop_
 _symmetry_equiv_pos_site_id
 _symmetry_equiv_pos_as_xyz
  1  'x, y, z'
loop_
 _atom_site_type_symbol
 _atom_site_label
 _atom_site_symmetry_multiplicity
 _atom_site_fract_x
 _atom_site_fract_y
 _atom_site_fract_z
 _atom_site_occupancy
  In  In0  1  0.00824180  0.15567322  0.12534870  1
  In  In1  1  -0.01003986  0.16715925  0.63082831  1
  In  In2  1  -0.01009330  0.51108894  0.13001903  1
  In  In3  1  0.01159821  0.51471469  0.62987243  1
  In  In4  1  0.00393233  0.83236686  0.12400664  1
  In  In5  1  0.00375317  0.82405536  0.63255013  1
  In  In6  1  0.33839471  0.17006977  0.12106069  1
  In  In7  1  0.34772180  0.16716005  0.61981205  1
  In  In8  1  0.33771324  0.50816752  0.14020320  1
  In  In9  1  0.32975942  0.48190950  0.62823354  1
  In  In10  1  0.32312733  0.82529929  0.12589982  1
  In  In11  1  0.33149324  0.83626539  0.60929360  1
  In  In12  1  0.65625395  0.17702884  0.12783605  1
  In  In13  1  0.65940787  0.17458018  0.62496973  1
  In  In14  1  0.65308853  0.51001258  0.13815383  1
  In  In15  1  0.65773526  0.51091643  0.63067783  1
  In  In16  1  0.66877637  0.83277638  0.12303077  1
  In  In17  1  0.65555340  0.82751831  0.62598600  1
  In  In18  1  0.15800826  -0.00504431  0.36988199  1
  In  In19  1  0.16394452  0.00075769  0.87892350  1
  In  In20  1  0.17996333  0.33855117  0.36327768  1
  In  In21  1  0.16910043  0.32004236  0.87755012  1
  In  In22  1  0.18065474  0.67729476  0.36047459  1
  In  In23  1  0.16627386  0.68190868  0.88192258  1
  In  In24  1  0.50383122  -0.01324886  0.38222277  1
  In  In25  1  0.50634147  -0.00172732  0.88483390  1
  In  In26  1  0.49730427  0.33010745  0.37605853  1
  In  In27  1  0.49950951  0.32988361  0.86859588  1
  In  In28  1  0.50269325  0.67065919  0.37556063  1
  In  In29  1  0.50875387  0.66252577  0.88055362  1
  In  In30  1  0.83544780  0.00075246  0.36319220  1
  In  In31  1  0.83491598  -0.01881641  0.87766207  1
  In  In32  1  0.83227266  0.33570641  0.36691614  1
  In  In33  1  0.82845927  0.35421060  0.87290504  1
  In  In34  1  0.83131388  0.66577824  0.36884635  1
  In  In35  1  0.83424394  0.66937671  0.86945151  1
  In  In36  1  -0.00002270  0.16567429  0.36389349  1
  In  In37  1  0.01766255  0.16656034  0.87840414  1
  In  In38  1  0.00979359  0.50384556  0.36569144  1
  In  In39  1  -0.00448126  0.51610950  0.87512827  1
  In  In40  1  0.01255428  0.83929015  0.36277355  1
  In  In41  1  -0.00225098  0.82893679  0.87619198  1
  In  In42  1  0.33539768  0.17825336  0.37360057  1
  In  In43  1  0.33284677  0.16897462  0.87912023  1
  In  In44  1  0.36012503  0.51554572  0.35584353  1
  In  In45  1  0.34784479  0.49635016  0.87333130  1
  In  In46  1  0.33614898  0.83280451  0.37919002  1
  In  In47  1  0.33549261  0.83296116  0.88763038  1
  In  In48  1  0.65872006  0.15539795  0.36665077  1
  In  In49  1  0.65462412  0.17109245  0.87781952  1
  In  In50  1  0.64136586  0.48511870  0.35480631  1
  In  In51  1  0.67697201  0.50071735  0.85720036  1
  In  In52  1  0.65386422  0.81998044  0.36236156  1
  In  In53  1  0.68493339  0.81043904  0.90009874  1
  In  In54  1  0.15190773  -0.01541455  0.11799449  1
  In  In55  1  0.16787600  -0.01546024  0.62379779  1
  In  In56  1  0.17816400  0.32444586  0.12787628  1
  In  In57  1  0.17899601  0.35050634  0.62974620  1
  In  In58  1  0.14794750  0.69852378  0.15212288  1
  In  In59  1  0.15534962  0.66883666  0.62658262  1
  In  In60  1  0.50328463  0.00900740  0.12338603  1
  In  In61  1  0.49060723  -0.00486243  0.60908166  1
  In  In62  1  0.50648229  0.33308788  0.13341047  1
  In  In63  1  0.49762087  0.33198633  0.62071059  1
  In  In64  1  0.49455332  0.67130180  0.13467239  1
  In  In65  1  0.50623995  0.67442189  0.61970298  1
  In  In66  1  0.84827596  -0.01436131  0.13030443  1
  In  In67  1  0.83938996  0.01141476  0.63188160  1
  In  In68  1  0.82430301  0.34507285  0.13142750  1
  In  In69  1  0.82802328  0.32515168  0.62817499  1
  In  In70  1  0.82492976  0.68266675  0.12184617  1
  In  In71  1  0.83280899  0.66145234  0.63620046  1
  In  In72  1  0.32789441  -0.00268294  0.25389279  1
  In  In73  1  -0.00153014  0.33938607  0.75377038  1
  In  In74  1  0.82709592  0.83373674  0.49901205  1
  In  In75  1  0.82520111  0.50516498  0.50371327  1
  In  In76  1  0.17364861  0.50570480  0.50047282  1
  In  In77  1  0.66826452  -0.00600011  0.75158882  1
  In  In78  1  0.50451616  0.50165826  0.01065600  1
  In  In79  1  0.32689088  0.65982580  0.75125515  1
  In  In80  1  0.83026826  0.51183411  -0.00126021  1
  In  In81  1  0.82295688  0.16400970  0.50203965  1
  In  In82  1  0.17004183  0.15997187  0.49651355  1
  In  In83  1  0.33489567  -0.00007256  0.74075438  1
  In  In84  1  0.16943057  0.50607353  0.00356915  1
  In  In85  1  0.83213262  0.16486324  0.00440216  1
  Cu  Cu86  1  0.49892878  0.16817825  0.74743762  1
  Cu  Cu87  1  0.65771437  -0.00785344  0.49248793  1
  Cu  Cu88  1  0.65797252  0.33806766  0.00125199  1
  Cu  Cu89  1  0.33699659  0.66451105  0.49214464  1
  Cu  Cu90  1  0.00756592  0.67918575  0.49825477  1
  Cu  Cu91  1  0.50211892  0.16835287  0.24876744  1
  Cu  Cu92  1  0.65943869  0.66130439  0.49485765  1
  Cu  Cu93  1  0.50099317  0.49326787  0.74691027  1
  Cu  Cu94  1  0.83684588  0.50241014  0.24829944  1
  Cu  Cu95  1  0.32902991  0.67054236  0.01286365  1
  Cu  Cu96  1  0.16403632  0.49211701  0.24569136  1
  Cu  Cu97  1  0.16261950  0.83437852  0.75265353  1
  Cu  Cu98  1  0.83594040  0.16456800  0.75423108  1
  Cu  Cu99  1  0.65472697  0.33303543  0.49694608  1
  Cu  Cu100  1  0.66362231  0.00184537  0.00579871  1
  Cu  Cu101  1  0.16953807  0.16840552  0.75565995  1
  Cu  Cu102  1  0.00593291  0.33167945  0.00626893  1
  Cu  Cu103  1  0.83594748  0.83363116  0.24589010  1
  Cu  Cu104  1  0.33933194  0.33764891  0.49590880  1
  Cu  Cu105  1  0.00355015  -0.00668547  0.00135684  1
  Cu  Cu106  1  0.50226643  0.83719827  0.25238106  1
  Cu  Cu107  1  0.83722615  0.82661825  0.75745445  1
  Cu  Cu108  1  0.83076478  0.17178405  0.24268791  1
  Cu  Cu109  1  0.16414446  0.16080809  0.24531358  1
  Cu  Cu110  1  0.00377127  0.33696910  0.49097078  1
  Cu  Cu111  1  0.33778352  0.32533265  0.00076789  1
  Cu  Cu112  1  0.50654915  0.82617422  0.75278948  1
  Cu  Cu113  1  0.00107672  -0.00595236  0.49583916  1
  Cu  Cu114  1  0.33366605  0.00322973  0.00478185  1
  Se  Se115  1  0.08646438  0.08271291  0.04890415  1
  Se  Se116  1  0.07153563  0.08026344  0.55924753  1
  Se  Se117  1  0.08006072  0.41674982  0.06548956  1
  Se  Se118  1  0.07703714  0.41378296  0.55716875  1
  Se  Se119  1  0.09609590  0.75309316  0.05928770  1
  Se  Se120  1  0.08836172  0.75970845  0.55461674  1
  Se  Se121  1  0.42054990  0.08790489  0.05202848  1
  Se  Se122  1  0.40972173  0.08166628  0.54562051  1
  Se  Se123  1  0.40717404  0.41148570  0.06299613  1
  Se  Se124  1  0.41793590  0.42120076  0.55264298  1
  Se  Se125  1  0.41913403  0.75207692  0.06029552  1
  Se  Se126  1  0.41845515  0.74810762  0.54927809  1
  Se  Se127  1  0.74604104  0.07844809  0.06783554  1
  Se  Se128  1  0.73485001  0.06741739  0.55992955  1
  Se  Se129  1  0.73658995  0.42193198  0.05863418  1
  Se  Se130  1  0.73944150  0.40589643  0.55906448  1
  Se  Se131  1  0.74834693  0.75775294  0.04730250  1
  Se  Se132  1  0.74387307  0.73565274  0.55799047  1
  Se  Se133  1  0.24837883  0.24472232  0.05068738  1
  Se  Se134  1  0.25189612  0.26168927  0.55534890  1
  Se  Se135  1  0.25056915  0.59050324  0.07228063  1
  Se  Se136  1  0.26182711  0.59378236  0.56421698  1
  Se  Se137  1  0.25177534  0.91505907  0.05489228  1
  Se  Se138  1  0.25187920  0.92646755  0.54696773  1
  Se  Se139  1  0.57619971  0.25442769  0.05395980  1
  Se  Se140  1  0.57719002  0.24448177  0.55052872  1
  Se  Se141  1  0.59309384  0.60045515  0.05988982  1
  Se  Se142  1  0.57932862  0.57939014  0.55232605  1
  Se  Se143  1  0.58020737  0.91751343  0.05748685  1
  Se  Se144  1  0.58279053  0.90793159  0.55143783  1
  Se  Se145  1  0.91751216  0.25902990  0.06425004  1
  Se  Se146  1  0.92385109  0.25811645  0.55245318  1
  Se  Se147  1  0.92370669  0.60001363  0.05501947  1
  Se  Se148  1  0.92620197  0.59585229  0.55588401  1
  Se  Se149  1  0.91798904  0.91039517  0.05140118  1
  Se  Se150  1  0.91808437  0.92272400  0.56049132  1
  Se  Se151  1  0.08380229  0.25477418  0.43502264  1
  Se  Se152  1  0.08848501  0.24857069  0.95347922  1
  Se  Se153  1  0.08335500  0.59319446  0.43963188  1
  Se  Se154  1  0.07436216  0.59680539  0.94879022  1
  Se  Se155  1  0.08402899  0.91177630  0.44392764  1
  Se  Se156  1  0.08485701  0.91139826  0.94390580  1
  Se  Se157  1  0.41918486  0.24594493  0.44916815  1
  Se  Se158  1  0.42364459  0.25001778  0.94333175  1
  Se  Se159  1  0.42225869  0.58048881  0.44306071  1
  Se  Se160  1  0.40698101  0.58961859  0.95067775  1
  Se  Se161  1  0.41475064  0.91413402  0.44946397  1
  Se  Se162  1  0.41793806  0.91997827  0.95149266  1
  Se  Se163  1  0.74166001  0.25641681  0.43852404  1
  Se  Se164  1  0.74700557  0.26246307  0.94354913  1
  Se  Se165  1  0.73862257  0.58231805  0.43412984  1
  Se  Se166  1  0.73380438  0.58990190  0.93748532  1
  Se  Se167  1  0.74356901  0.92030489  0.43256725  1
  Se  Se168  1  0.75097666  0.92039443  0.95516471  1
  Se  Se169  1  0.25667935  0.07413993  0.43320540  1
  Se  Se170  1  0.25157899  0.08195198  0.94465906  1
  Se  Se171  1  0.26069792  0.41991221  0.43644689  1
  Se  Se172  1  0.25974979  0.41191105  0.94354308  1
  Se  Se173  1  0.24787008  0.74621481  0.44403192  1
  Se  Se174  1  0.24929134  0.75349940  0.95544200  1
  Se  Se175  1  0.58056481  0.08541585  0.44438369  1
  Se  Se176  1  0.58425760  0.08825504  0.95182676  1
  Se  Se177  1  0.57858914  0.42070620  0.44249389  1
  Se  Se178  1  0.58699197  0.42054829  0.93632010  1
  Se  Se179  1  0.58324810  0.75575056  0.44655811  1
  Se  Se180  1  0.56158019  0.76441454  0.94742524  1
  Se  Se181  1  0.92030871  0.07961758  0.44119711  1
  Se  Se182  1  0.92317374  0.07779400  0.94173854  1
  Se  Se183  1  0.91927086  0.42002329  0.43926778  1
  Se  Se184  1  0.92698604  0.41334075  0.94680856  1
  Se  Se185  1  0.92074222  0.75022203  0.43805336  1
  Se  Se186  1  0.90504273  0.75379786  0.94137673  1
  Se  Se187  1  0.25052832  0.24267492  0.29701899  1
  Se  Se188  1  0.25641804  0.25032926  0.80471793  1
  Se  Se189  1  0.24890327  0.57574770  0.29883342  1
  Se  Se190  1  0.24243202  0.57749433  0.81976657  1
  Se  Se191  1  0.23845027  0.89968478  0.30487385  1
  Se  Se192  1  0.25195855  0.91095647  0.80845685  1
  Se  Se193  1  0.58370273  0.25194260  0.30470853  1
  Se  Se194  1  0.58595035  0.24893852  0.79965167  1
  Se  Se195  1  0.59532428  0.60502296  0.30385568  1
  Se  Se196  1  0.57576851  0.58148047  0.80294306  1
  Se  Se197  1  0.58544307  0.92471106  0.30200550  1
  Se  Se198  1  0.58267397  0.90662032  0.81470095  1
  Se  Se199  1  0.91513970  0.25119631  0.30042159  1
  Se  Se200  1  0.91267651  0.24551447  0.81712630  1
  Se  Se201  1  0.91886217  0.58467978  0.30304142  1
  Se  Se202  1  0.89276807  0.56235854  0.80672769  1
  Se  Se203  1  0.92048193  0.91781668  0.29844908  1
  Se  Se204  1  0.92089756  0.91592136  0.80331962  1
  Se  Se205  1  0.08095160  0.07821100  0.29885792  1
  Se  Se206  1  0.08677284  0.08160351  0.80417392  1
  Se  Se207  1  0.08067754  0.40827989  0.30010712  1
  Se  Se208  1  0.08864159  0.42221695  0.81781552  1
  Se  Se209  1  0.07043498  0.73287289  0.30142361  1
  Se  Se210  1  0.08282576  0.74769741  0.80515831  1
  Se  Se211  1  0.42400445  0.08593959  0.31001793  1
  Se  Se212  1  0.42479000  0.08227469  0.80744522  1
  Se  Se213  1  0.39826738  0.39111860  0.30746442  1
  Se  Se214  1  0.41559590  0.41174199  0.79922869  1
  Se  Se215  1  0.41840693  0.75509555  0.30715212  1
  Se  Se216  1  0.41685945  0.75256106  0.81038996  1
  Se  Se217  1  0.75172449  0.08548068  0.29828258  1
  Se  Se218  1  0.75470325  0.08609331  0.81566310  1
  Se  Se219  1  0.75093857  0.41863070  0.29897598  1
  Se  Se220  1  0.74245135  0.40109104  0.79321741  1
  Se  Se221  1  0.75260500  0.75014220  0.29941568  1
  Se  Se222  1  0.74161740  0.75373131  0.80741971  1
  Se  Se223  1  0.24451166  0.08131620  0.18442574  1
  Se  Se224  1  0.24194513  0.09330554  0.68569927  1
  Se  Se225  1  0.25377002  0.41187911  0.19687171  1
  Se  Se226  1  0.24379266  0.42811422  0.70754191  1
  Se  Se227  1  0.27202655  0.73420785  0.20363308  1
  Se  Se228  1  0.24926151  0.76197894  0.69061323  1
  Se  Se229  1  0.58526515  0.08393575  0.19717045  1
  Se  Se230  1  0.57375886  0.07900656  0.68904231  1
  Se  Se231  1  0.58193485  0.41742052  0.20335693  1
  Se  Se232  1  0.58253483  0.41107610  0.69075434  1
  Se  Se233  1  0.58522434  0.75563152  0.19653231  1
  Se  Se234  1  0.58722681  0.74109789  0.69942963  1
  Se  Se235  1  0.91672881  0.08532981  0.19458494  1
  Se  Se236  1  0.92325405  0.08155461  0.70603268  1
  Se  Se237  1  0.91983888  0.41570402  0.19693540  1
  Se  Se238  1  0.91314890  0.42298279  0.68565442  1
  Se  Se239  1  0.91776930  0.74933069  0.19240460  1
  Se  Se240  1  0.91937511  0.74426570  0.70090373  1
  Se  Se241  1  0.08346926  0.24772631  0.19218990  1
  Se  Se242  1  0.09091143  0.24940507  0.69112228  1
  Se  Se243  1  0.08131496  0.58199857  0.19941372  1
  Se  Se244  1  0.09187007  0.58601821  0.70288438  1
  Se  Se245  1  0.07897733  0.91727976  0.19700613  1
  Se  Se246  1  0.08108056  0.91794197  0.69754905  1
  Se  Se247  1  0.41578131  0.24770181  0.19527083  1
  Se  Se248  1  0.41527249  0.25136879  0.69404728  1
  Se  Se249  1  0.44502802  0.56441788  0.20161796  1
  Se  Se250  1  0.42199230  0.57883843  0.68817875  1
  Se  Se251  1  0.42040981  0.91418472  0.19076614  1
  Se  Se252  1  0.42719050  0.90263305  0.68907297  1
  Se  Se253  1  0.74337862  0.25646845  0.19583065  1
  Se  Se254  1  0.75064775  0.24000352  0.69736214  1
  Se  Se255  1  0.75788303  0.58546722  0.19112880  1
  Se  Se256  1  0.74958726  0.57805905  0.69955844  1
  Se  Se257  1  0.74938107  0.91678667  0.19450294  1
  Se  Se258  1  0.76080813  0.90439581  0.68976304  1
