# generated using pymatgen
data_In86Cu29Se144
_symmetry_space_group_name_H-M   'P 1'
_cell_length_a   17.56573937
_cell_length_b   17.56827081
_cell_length_c   23.42322388
_cell_angle_alpha   90.00275058
_cell_angle_beta   90.01455452
_cell_angle_gamma   89.97738698
_symmetry_Int_Tables_number   1
_chemical_formula_structural   In86Cu29Se144
_chemical_formula_sum   'In86 Cu29 Se144'
_cell_volume   7228.39827037
_cell_formula_units_Z   1
loop_
 _symmetry_equiv_pos_site_id
 _symmetry_equiv_pos_as_xyz
  1  'x, y, z'
loop_
 _atom_site_type_symbol
 _atom_site_label
 _atom_site_symmetry_multiplicity
 _atom_site_fract_x
 _atom_site_fract_y
 _atom_site_fract_z
 _atom_site_occupancy
  In  In0  1  0.00091787  0.17468738  0.12568970  1
  In  In1  1  0.01280343  0.15642732  0.63502949  1
  In  In2  1  -0.00025909  0.51114135  0.11500032  1
  In  In3  1  -0.00127582  0.50478778  0.62912578  1
  In  In4  1  -0.00958986  0.83951857  0.12346253  1
  In  In5  1  -0.00289857  0.82717042  0.63025705  1
  In  In6  1  0.34093381  0.15456688  0.12540315  1
  In  In7  1  0.32016855  0.17942646  0.63783382  1
  In  In8  1  0.33838548  0.50363555  0.11838215  1
  In  In9  1  0.31976054  0.50257815  0.62753282  1
  In  In10  1  0.33380876  0.82533398  0.12909772  1
  In  In11  1  0.34086393  0.84168590  0.62181747  1
  In  In12  1  0.65816262  0.18053708  0.12960495  1
  In  In13  1  0.67363788  0.16581899  0.63099716  1
  In  In14  1  0.66194209  0.49978577  0.12161568  1
  In  In15  1  0.66970518  0.48896635  0.62699222  1
  In  In16  1  0.66501697  0.82801325  0.12365618  1
  In  In17  1  0.66588562  0.83382637  0.61806422  1
  In  In18  1  0.16100892  0.00439676  0.38868234  1
  In  In19  1  0.17245803  -0.00686183  0.85886383  1
  In  In20  1  0.16639729  0.33895008  0.38694463  1
  In  In21  1  0.17704543  0.33682608  0.86750031  1
  In  In22  1  0.17741554  0.65817685  0.38120614  1
  In  In23  1  0.14745758  0.66959444  0.86896080  1
  In  In24  1  0.49851366  -0.01287307  0.37241161  1
  In  In25  1  0.50030056  -0.00061931  0.88663474  1
  In  In26  1  0.50652043  0.32529138  0.37080873  1
  In  In27  1  0.50433684  0.33197594  0.87266996  1
  In  In28  1  0.50835851  0.67438433  0.36309105  1
  In  In29  1  0.51588192  0.66463838  0.90072249  1
  In  In30  1  0.81860123  -0.00473561  0.37200880  1
  In  In31  1  0.84084581  -0.02229448  0.86512554  1
  In  In32  1  0.83340095  0.34227943  0.37444324  1
  In  In33  1  0.83968837  0.34632624  0.86810013  1
  In  In34  1  0.82802340  0.67051925  0.37944486  1
  In  In35  1  0.83654801  0.66301365  0.88272268  1
  In  In36  1  0.00366730  0.17432199  0.38437847  1
  In  In37  1  0.00316382  0.17475873  0.86292853  1
  In  In38  1  0.00091996  0.49740951  0.38486770  1
  In  In39  1  0.00115840  0.50224722  0.87555650  1
  In  In40  1  -0.00543654  0.83668165  0.38703451  1
  In  In41  1  -0.01295320  0.81020021  0.83804430  1
  In  In42  1  0.33069004  0.16094426  0.37992008  1
  In  In43  1  0.35395945  0.16972298  0.85944970  1
  In  In44  1  0.31917747  0.50837831  0.37474279  1
  In  In45  1  0.34321333  0.49195135  0.88333162  1
  In  In46  1  0.34256584  0.82622894  0.38264696  1
  In  In47  1  0.33310498  0.84323042  0.86686144  1
  In  In48  1  0.66984545  0.16400976  0.36241514  1
  In  In49  1  0.64252983  0.16185920  0.87666831  1
  In  In50  1  0.67265391  0.50864540  0.36467625  1
  In  In51  1  0.67833489  0.49925510  0.88776489  1
  In  In52  1  0.66585819  0.82808285  0.37199806  1
  In  In53  1  0.67788193  0.83236243  0.89624052  1
  In  In54  1  0.17458451  0.00310598  0.12981087  1
  In  In55  1  0.15978934  -0.00686474  0.62690775  1
  In  In56  1  0.15673244  0.34114570  0.12602334  1
  In  In57  1  0.16374153  0.33710583  0.62955692  1
  In  In58  1  0.17910781  0.66453528  0.13209602  1
  In  In59  1  0.15894556  0.65359430  0.62003902  1
  In  In60  1  0.52042173  0.01109886  0.09983774  1
  In  In61  1  0.50464859  -0.01081168  0.62853169  1
  In  In62  1  0.51115935  0.34854476  0.11162200  1
  In  In63  1  0.50395918  0.32226170  0.64312534  1
  In  In64  1  0.49991129  0.66479976  0.12059708  1
  In  In65  1  0.49049587  0.67401994  0.62341401  1
  In  In66  1  0.82300854  -0.02752387  0.11283904  1
  In  In67  1  0.84157863  -0.00933184  0.63100155  1
  In  In68  1  0.81876797  0.33430634  0.12203182  1
  In  In69  1  0.82913576  0.34408804  0.63234380  1
  In  In70  1  0.80537308  0.64938233  0.09942382  1
  In  In71  1  0.84762634  0.68112750  0.61957961  1
  In  In72  1  0.66617662  0.00145257  0.75501319  1
  In  In73  1  0.67317247  0.66294178  0.76434611  1
  In  In74  1  0.33163572  0.66960747  0.75456064  1
  In  In75  1  0.49823573  0.50154964  0.50152016  1
  In  In76  1  0.82679495  0.16262179  -0.00730841  1
  In  In77  1  0.17360528  0.16730771  -0.00225195  1
  In  In78  1  0.16404478  0.82909583  -0.00666056  1
  In  In79  1  0.33829636  -0.00483205  0.24955199  1
  In  In80  1  -0.00624320  0.00247067  0.25931840  1
  In  In81  1  0.33649799  0.33852968  0.25173351  1
  In  In82  1  -0.00405659  0.66873506  0.25015205  1
  In  In83  1  -0.00089845  0.33507038  0.25714330  1
  In  In84  1  0.49521593  0.16191669  0.50330372  1
  In  In85  1  0.83936602  0.16139899  0.50961324  1
  Cu  Cu86  1  0.16707637  0.83255287  0.25715712  1
  Cu  Cu87  1  0.33169219  0.67402733  0.50196862  1
  Cu  Cu88  1  0.81938047  0.82023989  0.24429709  1
  Cu  Cu89  1  0.00055343  0.67227717  -0.00776389  1
  Cu  Cu90  1  0.83120751  0.15520113  0.24260004  1
  Cu  Cu91  1  0.33641044  -0.00065155  -0.00656687  1
  Cu  Cu92  1  0.33331283  0.32980018  -0.00728947  1
  Cu  Cu93  1  0.66882125  0.66537917  0.49250640  1
  Cu  Cu94  1  0.66348684  0.33435888  -0.00225680  1
  Cu  Cu95  1  0.50479506  0.82942866  0.75489752  1
  Cu  Cu96  1  0.67373023  0.33346117  0.50024088  1
  Cu  Cu97  1  0.32847497  0.33967726  0.51009254  1
  Cu  Cu98  1  0.50003168  0.50259272  0.24011185  1
  Cu  Cu99  1  0.32777603  0.66260620  0.00170602  1
  Cu  Cu100  1  0.82906852  0.49970233  0.24437634  1
  Cu  Cu101  1  0.00442486  0.33730093  0.50737361  1
  Cu  Cu102  1  0.16331642  0.49759176  0.75078463  1
  Cu  Cu103  1  0.16960801  0.16488138  0.74504902  1
  Cu  Cu104  1  0.00620696  -0.00242575  -0.00983387  1
  Cu  Cu105  1  -0.00249586  0.66539416  0.50362638  1
  Cu  Cu106  1  -0.00302382  0.34448875  -0.00477934  1
  Cu  Cu107  1  0.50736772  0.17042364  0.24220140  1
  Cu  Cu108  1  0.83551330  0.50762186  0.75348772  1
  Cu  Cu109  1  -0.00075813  -0.00634738  0.51043361  1
  Cu  Cu110  1  0.49820529  0.49190280  0.75658586  1
  Cu  Cu111  1  0.82485087  0.17867532  0.75283147  1
  Cu  Cu112  1  0.66227792  -0.01314349  0.49616217  1
  Cu  Cu113  1  0.50598964  0.83478944  0.24510350  1
  Cu  Cu114  1  0.32471504  0.00164503  0.50482902  1
  Se  Se115  1  0.07869612  0.07532900  0.05716228  1
  Se  Se116  1  0.08384775  0.08361810  0.55514845  1
  Se  Se117  1  0.08318618  0.42067350  0.05191270  1
  Se  Se118  1  0.08564812  0.42368292  0.55997507  1
  Se  Se119  1  0.07822516  0.74342553  0.06264575  1
  Se  Se120  1  0.08006834  0.74841367  0.55799665  1
  Se  Se121  1  0.41589915  0.08852418  0.04528002  1
  Se  Se122  1  0.40717066  0.07774408  0.56712971  1
  Se  Se123  1  0.41299312  0.41681470  0.04760036  1
  Se  Se124  1  0.41847738  0.40949161  0.56854828  1
  Se  Se125  1  0.40876809  0.74805287  0.05485754  1
  Se  Se126  1  0.42022696  0.75670148  0.54990017  1
  Se  Se127  1  0.74493725  0.08459585  0.06436165  1
  Se  Se128  1  0.73963341  0.06751809  0.55937980  1
  Se  Se129  1  0.74804925  0.41850865  0.04980101  1
  Se  Se130  1  0.75455500  0.41843561  0.55275939  1
  Se  Se131  1  0.77548456  0.78024735  0.05736045  1
  Se  Se132  1  0.74792754  0.74749032  0.55266637  1
  Se  Se133  1  0.25839073  0.25723682  0.06335283  1
  Se  Se134  1  0.24606390  0.25195806  0.55930687  1
  Se  Se135  1  0.24230862  0.58143387  0.05419798  1
  Se  Se136  1  0.25195801  0.58233632  0.55026084  1
  Se  Se137  1  0.25381417  0.92282664  0.05577002  1
  Se  Se138  1  0.24471505  0.91317802  0.55609084  1
  Se  Se139  1  0.58109037  0.24750983  0.04895024  1
  Se  Se140  1  0.59043248  0.25482636  0.55882659  1
  Se  Se141  1  0.57895989  0.57934476  0.05255650  1
  Se  Se142  1  0.59096853  0.59161189  0.56095203  1
  Se  Se143  1  0.57333728  0.89354989  0.04861128  1
  Se  Se144  1  0.57501963  0.91010468  0.55087215  1
  Se  Se145  1  0.91976409  0.25749536  0.05308701  1
  Se  Se146  1  0.92470154  0.25583606  0.56773441  1
  Se  Se147  1  0.91613527  0.58587097  0.04345052  1
  Se  Se148  1  0.91400286  0.57992805  0.55544700  1
  Se  Se149  1  0.92289024  0.91463836  0.04319421  1
  Se  Se150  1  0.91208157  0.90823727  0.55684875  1
  Se  Se151  1  0.08606140  0.25154745  0.45424181  1
  Se  Se152  1  0.07876633  0.25733730  0.94160871  1
  Se  Se153  1  0.08322664  0.58565463  0.44821519  1
  Se  Se154  1  0.08613010  0.58403222  0.94600876  1
  Se  Se155  1  0.08363956  0.91365052  0.45364625  1
  Se  Se156  1  0.08070986  0.91621856  0.92897610  1
  Se  Se157  1  0.40876839  0.26299197  0.44586201  1
  Se  Se158  1  0.41777590  0.24726567  0.94079763  1
  Se  Se159  1  0.41363402  0.59360118  0.43975142  1
  Se  Se160  1  0.41750759  0.57958620  0.95362174  1
  Se  Se161  1  0.41243204  0.92455486  0.44836275  1
  Se  Se162  1  0.41413348  0.90607225  0.94618237  1
  Se  Se163  1  0.74820683  0.24551082  0.44194435  1
  Se  Se164  1  0.74380050  0.25869743  0.93333265  1
  Se  Se165  1  0.75046909  0.57578138  0.44438814  1
  Se  Se166  1  0.73505960  0.60638095  0.94991900  1
  Se  Se167  1  0.75063709  0.90791932  0.44420543  1
  Se  Se168  1  0.74954436  0.94379208  0.94523940  1
  Se  Se169  1  0.24663717  0.09096252  0.45298622  1
  Se  Se170  1  0.25559388  0.07804813  0.93295376  1
  Se  Se171  1  0.25277301  0.42381987  0.45112238  1
  Se  Se172  1  0.24572463  0.41503933  0.94631796  1
  Se  Se173  1  0.24592507  0.75534760  0.44805356  1
  Se  Se174  1  0.25607393  0.74045962  0.93412837  1
  Se  Se175  1  0.59032899  0.07941242  0.43929404  1
  Se  Se176  1  0.58835957  0.07543091  0.95455304  1
  Se  Se177  1  0.58992120  0.41154118  0.44066536  1
  Se  Se178  1  0.57965352  0.41815664  0.94473801  1
  Se  Se179  1  0.58076246  0.74795980  0.44277841  1
  Se  Se180  1  0.58177079  0.76614632  0.96375847  1
  Se  Se181  1  0.92123270  0.06962261  0.44185150  1
  Se  Se182  1  0.92672381  0.08199517  0.93397747  1
  Se  Se183  1  0.91675926  0.41092678  0.44951534  1
  Se  Se184  1  0.90987598  0.42626284  0.94521536  1
  Se  Se185  1  0.91214835  0.74794224  0.44983482  1
  Se  Se186  1  0.92971610  0.75991711  0.93307482  1
  Se  Se187  1  0.24663539  0.25036296  0.31392693  1
  Se  Se188  1  0.25265493  0.24578749  0.80136086  1
  Se  Se189  1  0.25260526  0.59265293  0.30075238  1
  Se  Se190  1  0.24638375  0.57410276  0.81373455  1
  Se  Se191  1  0.24452629  0.91704509  0.31593220  1
  Se  Se192  1  0.24665545  0.90269305  0.79129537  1
  Se  Se193  1  0.58931648  0.25374543  0.29747021  1
  Se  Se194  1  0.58219694  0.24823000  0.80153088  1
  Se  Se195  1  0.58414800  0.58390891  0.29658271  1
  Se  Se196  1  0.57337622  0.57580780  0.81683217  1
  Se  Se197  1  0.58666072  0.91660612  0.30240135  1
  Se  Se198  1  0.58673537  0.90434269  0.81727836  1
  Se  Se199  1  0.90594433  0.23464212  0.30877694  1
  Se  Se200  1  0.91695750  0.25978581  0.79930584  1
  Se  Se201  1  0.91024076  0.57194490  0.30950713  1
  Se  Se202  1  0.91864765  0.58944807  0.80796810  1
  Se  Se203  1  0.90318051  0.89879605  0.30524928  1
  Se  Se204  1  0.93847665  0.93417784  0.78946294  1
  Se  Se205  1  0.08987624  0.09337409  0.31142390  1
  Se  Se206  1  0.08535724  0.08534896  0.80033976  1
  Se  Se207  1  0.09301152  0.42669304  0.31036605  1
  Se  Se208  1  0.08054165  0.41514355  0.80635948  1
  Se  Se209  1  0.08205175  0.75654795  0.31509060  1
  Se  Se210  1  0.10882109  0.76179945  0.78984275  1
  Se  Se211  1  0.42782528  0.09479790  0.30703541  1
  Se  Se212  1  0.41557675  0.05704200  0.80735253  1
  Se  Se213  1  0.42717158  0.42985037  0.31238999  1
  Se  Se214  1  0.41045343  0.41064907  0.80598765  1
  Se  Se215  1  0.41723926  0.75894893  0.30118166  1
  Se  Se216  1  0.43369996  0.74341144  0.81760780  1
  Se  Se217  1  0.74610391  0.07342193  0.29569999  1
  Se  Se218  1  0.75695702  0.09242941  0.81557671  1
  Se  Se219  1  0.75019428  0.41338563  0.30048107  1
  Se  Se220  1  0.74633626  0.42711801  0.80505551  1
  Se  Se221  1  0.74313791  0.73745571  0.30346096  1
  Se  Se222  1  0.75903042  0.76376343  0.81473859  1
  Se  Se223  1  0.24364676  0.09615501  0.20125475  1
  Se  Se224  1  0.24852245  0.07416059  0.69448081  1
  Se  Se225  1  0.24490226  0.42539848  0.19172148  1
  Se  Se226  1  0.25128611  0.41603974  0.70017246  1
  Se  Se227  1  0.25136628  0.75270013  0.20305105  1
  Se  Se228  1  0.25151130  0.74650427  0.68132849  1
  Se  Se229  1  0.58098091  0.07891508  0.18819941  1
  Se  Se230  1  0.57464578  0.09040418  0.69496111  1
  Se  Se231  1  0.58451371  0.41395792  0.19400565  1
  Se  Se232  1  0.58688333  0.41766868  0.70102153  1
  Se  Se233  1  0.58339415  0.74460021  0.19275397  1
  Se  Se234  1  0.58382999  0.74877660  0.69498839  1
  Se  Se235  1  0.91179129  0.07862927  0.18178394  1
  Se  Se236  1  0.90123795  0.09663100  0.69277837  1
  Se  Se237  1  0.91464794  0.42098839  0.18721633  1
  Se  Se238  1  0.91728927  0.42157430  0.69987670  1
  Se  Se239  1  0.90469006  0.74652149  0.18384666  1
  Se  Se240  1  0.91569550  0.74739773  0.70248718  1
  Se  Se241  1  0.09238085  0.24215993  0.19869660  1
  Se  Se242  1  0.08260105  0.25410609  0.69986955  1
  Se  Se243  1  0.08658146  0.57514882  0.19450063  1
  Se  Se244  1  0.08237616  0.58589869  0.70027837  1
  Se  Se245  1  0.08806668  0.91208506  0.19601187  1
  Se  Se246  1  0.05519597  0.93582686  0.69403629  1
  Se  Se247  1  0.42425226  0.25148126  0.18604815  1
  Se  Se248  1  0.41780181  0.24106105  0.70576404  1
  Se  Se249  1  0.41297859  0.58588309  0.19179895  1
  Se  Se250  1  0.42406826  0.57555793  0.69455425  1
  Se  Se251  1  0.43028893  0.91882292  0.18301410  1
  Se  Se252  1  0.42244109  0.91030565  0.69993229  1
  Se  Se253  1  0.75213617  0.25114041  0.19801459  1
  Se  Se254  1  0.74193450  0.26001863  0.69803803  1
  Se  Se255  1  0.74905368  0.58394292  0.18901401  1
  Se  Se256  1  0.75481464  0.58423420  0.69015022  1
  Se  Se257  1  0.74402583  0.91527659  0.19560417  1
  Se  Se258  1  0.75124049  0.90490071  0.69608927  1
