# generated using pymatgen
data_In86Cu29Se144
_symmetry_space_group_name_H-M   'P 1'
_cell_length_a   17.59909286
_cell_length_b   17.59570327
_cell_length_c   23.45937412
_cell_angle_alpha   90.00064252
_cell_angle_beta   90.00440479
_cell_angle_gamma   90.03447466
_symmetry_Int_Tables_number   1
_chemical_formula_structural   In86Cu29Se144
_chemical_formula_sum   'In86 Cu29 Se144'
_cell_volume   7264.62588296
_cell_formula_units_Z   1
loop_
 _symmetry_equiv_pos_site_id
 _symmetry_equiv_pos_as_xyz
  1  'x, y, z'
loop_
 _atom_site_type_symbol
 _atom_site_label
 _atom_site_symmetry_multiplicity
 _atom_site_fract_x
 _atom_site_fract_y
 _atom_site_fract_z
 _atom_site_occupancy
  In  In0  1  -0.00694570  0.15907091  0.12102366  1
  In  In1  1  -0.00600010  0.15384712  0.61816303  1
  In  In2  1  -0.00892602  0.49347995  0.11554820  1
  In  In3  1  -0.00519918  0.50534443  0.62528897  1
  In  In4  1  0.00667386  0.84458427  0.12314062  1
  In  In5  1  -0.01073117  0.84893257  0.62594628  1
  In  In6  1  0.34277202  0.17694390  0.10954514  1
  In  In7  1  0.33157199  0.18143240  0.62807779  1
  In  In8  1  0.32886604  0.50774542  0.13046428  1
  In  In9  1  0.33985397  0.49170824  0.63040260  1
  In  In10  1  0.32148839  0.83969201  0.12604064  1
  In  In11  1  0.33500938  0.81671620  0.62740973  1
  In  In12  1  0.66477946  0.16710617  0.11471548  1
  In  In13  1  0.68035374  0.16598291  0.62900381  1
  In  In14  1  0.67955127  0.49943322  0.12496984  1
  In  In15  1  0.66251974  0.50081687  0.62777464  1
  In  In16  1  0.66400208  0.81832512  0.12593426  1
  In  In17  1  0.65572734  0.81780980  0.60826151  1
  In  In18  1  0.16952017  0.01363567  0.37321740  1
  In  In19  1  0.15119593  0.01828717  0.88359522  1
  In  In20  1  0.16663299  0.32170594  0.37121818  1
  In  In21  1  0.17536090  0.32476961  0.87898441  1
  In  In22  1  0.17591440  0.65571438  0.37016626  1
  In  In23  1  0.17250310  0.65876900  0.88299444  1
  In  In24  1  0.48675096  -0.00885879  0.37948913  1
  In  In25  1  0.51285888  0.00547708  0.87734271  1
  In  In26  1  0.50749591  0.34380297  0.37265895  1
  In  In27  1  0.49847081  0.33390554  0.86983178  1
  In  In28  1  0.50462470  0.66483284  0.37534016  1
  In  In29  1  0.49857289  0.66295010  0.86681919  1
  In  In30  1  0.84611298  -0.00296353  0.37845100  1
  In  In31  1  0.84054803  -0.00417469  0.87728728  1
  In  In32  1  0.83343111  0.33475328  0.38965185  1
  In  In33  1  0.82435966  0.34058758  0.88203128  1
  In  In34  1  0.82234212  0.66887456  0.38518305  1
  In  In35  1  0.83114595  0.67565816  0.87521349  1
  In  In36  1  0.01440398  0.15693953  0.38873172  1
  In  In37  1  0.00908587  0.15508814  0.87698755  1
  In  In38  1  -0.01271562  0.48728727  0.37937265  1
  In  In39  1  -0.00236890  0.50595074  0.88467223  1
  In  In40  1  -0.01219650  0.83661038  0.37694929  1
  In  In41  1  -0.00903166  0.84534394  0.87554350  1
  In  In42  1  0.32241081  0.16001504  0.37199781  1
  In  In43  1  0.31473212  0.18554149  0.88443998  1
  In  In44  1  0.34281672  0.50838035  0.36504666  1
  In  In45  1  0.33003122  0.49261645  0.87074423  1
  In  In46  1  0.34746471  0.82542831  0.37916165  1
  In  In47  1  0.33361857  0.82070246  0.87603126  1
  In  In48  1  0.67348379  0.17990409  0.37391353  1
  In  In49  1  0.65817088  0.18344444  0.89035348  1
  In  In50  1  0.65607668  0.50868026  0.38992873  1
  In  In51  1  0.66973466  0.50622317  0.86816829  1
  In  In52  1  0.67590301  0.81920291  0.38356925  1
  In  In53  1  0.68075773  0.83366616  0.87301400  1
  In  In54  1  0.16424383  -0.00956081  0.11641305  1
  In  In55  1  0.14709739  0.00500217  0.63442789  1
  In  In56  1  0.17281362  0.34262212  0.11711977  1
  In  In57  1  0.17811328  0.32887560  0.62931417  1
  In  In58  1  0.17211948  0.67670945  0.12105832  1
  In  In59  1  0.17882573  0.66930855  0.63083885  1
  In  In60  1  0.48809406  0.01347963  0.12136977  1
  In  In61  1  0.51229856  -0.00256827  0.62168893  1
  In  In62  1  0.49044374  0.31334721  0.12393323  1
  In  In63  1  0.49300378  0.34746127  0.63149445  1
  In  In64  1  0.50519616  0.66565887  0.13616902  1
  In  In65  1  0.50607734  0.65865374  0.62055879  1
  In  In66  1  0.84369874  0.00771660  0.12217255  1
  In  In67  1  0.84305321  0.00249713  0.61363255  1
  In  In68  1  0.82631763  0.33407505  0.11089228  1
  In  In69  1  0.82847299  0.31628427  0.62247363  1
  In  In70  1  0.82524546  0.66108218  0.12173931  1
  In  In71  1  0.80668546  0.64619006  0.60357990  1
  In  In72  1  0.67688484  -0.00184668  0.74870750  1
  In  In73  1  0.00586948  0.66915232  0.25003294  1
  In  In74  1  0.33160539  0.00118291  0.75823271  1
  In  In75  1  -0.00231734  0.33322816  0.25230088  1
  In  In76  1  0.49923704  0.83988890  0.00394027  1
  In  In77  1  0.16214203  0.83829677  0.50666309  1
  In  In78  1  -0.00394623  0.67483238  0.74337950  1
  In  In79  1  0.66411051  0.33654100  0.24790073  1
  In  In80  1  0.66475380  -0.00264520  0.24235791  1
  In  In81  1  0.50153414  0.16516982  0.49805975  1
  In  In82  1  0.33057074  0.00380187  0.24499173  1
  In  In83  1  0.00372281  0.32673547  0.75195580  1
  In  In84  1  0.15962720  0.48937423  0.49842442  1
  In  In85  1  0.50285078  0.49744308  -0.00569162  1
  Cu  Cu86  1  0.17297236  0.50034136  0.24242734  1
  Cu  Cu87  1  0.67166431  0.66810271  -0.00381241  1
  Cu  Cu88  1  0.32526467  -0.00067367  0.50083753  1
  Cu  Cu89  1  0.82452333  0.50388949  0.25254844  1
  Cu  Cu90  1  -0.00130970  0.67388357  0.00196503  1
  Cu  Cu91  1  0.50037987  0.82506406  0.74399350  1
  Cu  Cu92  1  0.67048403  -0.00548972  0.49793931  1
  Cu  Cu93  1  0.34063125  0.66079983  0.50013435  1
  Cu  Cu94  1  0.50387641  0.82642061  0.25580554  1
  Cu  Cu95  1  0.83866360  0.16544241  0.24874650  1
  Cu  Cu96  1  0.33518536  0.33520840  0.50244285  1
  Cu  Cu97  1  -0.00467028  0.66904391  0.50165200  1
  Cu  Cu98  1  0.83339355  0.16510764  0.75054667  1
  Cu  Cu99  1  0.17085368  0.83646089  0.24509396  1
  Cu  Cu100  1  0.33001434  0.33780673  -0.00425773  1
  Cu  Cu101  1  -0.00159666  -0.00338429  0.00054211  1
  Cu  Cu102  1  0.82681593  0.82892779  0.74363987  1
  Cu  Cu103  1  0.49922874  0.17716246  0.75426938  1
  Cu  Cu104  1  0.66387966  0.33766538  0.50653298  1
  Cu  Cu105  1  0.83521808  0.83132407  0.25719488  1
  Cu  Cu106  1  0.82745086  0.49967208  0.74793111  1
  Cu  Cu107  1  0.50440252  0.50522226  0.74809280  1
  Cu  Cu108  1  0.49904602  0.49779742  0.25353651  1
  Cu  Cu109  1  0.00115948  0.33052592  -0.00555590  1
  Cu  Cu110  1  0.17615754  0.49742992  0.75760756  1
  Cu  Cu111  1  0.67494045  0.00230613  -0.00186031  1
  Cu  Cu112  1  0.16437759  0.16675720  0.24801077  1
  Cu  Cu113  1  0.16561680  0.83202719  0.75101308  1
  Cu  Cu114  1  0.32503747  0.66806344  0.00480693  1
  Se  Se115  1  0.08142538  0.08119812  0.05349135  1
  Se  Se116  1  0.08627906  0.07750244  0.55246611  1
  Se  Se117  1  0.08104626  0.41670092  0.04994767  1
  Se  Se118  1  0.07650069  0.40571541  0.56603149  1
  Se  Se119  1  0.08367057  0.75553446  0.05558438  1
  Se  Se120  1  0.07673263  0.74084557  0.56572168  1
  Se  Se121  1  0.41059159  0.07900261  0.04435185  1
  Se  Se122  1  0.40952132  0.07878357  0.56166752  1
  Se  Se123  1  0.41055622  0.41543250  0.05861537  1
  Se  Se124  1  0.41821718  0.42030346  0.55266478  1
  Se  Se125  1  0.41426440  0.74203379  0.06291751  1
  Se  Se126  1  0.41903095  0.74662432  0.55479664  1
  Se  Se127  1  0.75646747  0.08533340  0.05374432  1
  Se  Se128  1  0.74555105  0.08194065  0.55358520  1
  Se  Se129  1  0.75084072  0.42634636  0.04791807  1
  Se  Se130  1  0.74963891  0.41347805  0.56295171  1
  Se  Se131  1  0.75104172  0.75242972  0.05184831  1
  Se  Se132  1  0.76200310  0.76180569  0.54579687  1
  Se  Se133  1  0.24598537  0.25250418  0.04782263  1
  Se  Se134  1  0.25037781  0.25043565  0.55124928  1
  Se  Se135  1  0.24542549  0.57980773  0.05652370  1
  Se  Se136  1  0.25248226  0.58259923  0.55654201  1
  Se  Se137  1  0.25751390  0.91876250  0.04957108  1
  Se  Se138  1  0.25434666  0.92239653  0.57002047  1
  Se  Se139  1  0.58958042  0.26256147  0.05410335  1
  Se  Se140  1  0.58428735  0.25210316  0.56521052  1
  Se  Se141  1  0.58780502  0.59213042  0.05684508  1
  Se  Se142  1  0.59636252  0.58670387  0.55235153  1
  Se  Se143  1  0.59387641  0.92782818  0.06401778  1
  Se  Se144  1  0.57922602  0.91569778  0.54644461  1
  Se  Se145  1  0.91975620  0.25035498  0.05296976  1
  Se  Se146  1  0.91323708  0.24215636  0.55385380  1
  Se  Se147  1  0.91420207  0.58724792  0.05254523  1
  Se  Se148  1  0.91660107  0.57691713  0.54988063  1
  Se  Se149  1  0.91362758  0.91383532  0.05386849  1
  Se  Se150  1  0.92440543  0.92013144  0.54491287  1
  Se  Se151  1  0.07791668  0.26539313  0.44533393  1
  Se  Se152  1  0.08539243  0.24608574  0.94442280  1
  Se  Se153  1  0.07539378  0.59083298  0.43976033  1
  Se  Se154  1  0.08216425  0.58664730  0.95211984  1
  Se  Se155  1  0.08093657  0.92403805  0.43900239  1
  Se  Se156  1  0.08234515  0.91561606  0.94520482  1
  Se  Se157  1  0.41110622  0.25396219  0.43771887  1
  Se  Se158  1  0.41802286  0.25728229  0.94373630  1
  Se  Se159  1  0.41924831  0.57883967  0.44296231  1
  Se  Se160  1  0.40804143  0.59261032  0.94285771  1
  Se  Se161  1  0.41140679  0.91352203  0.45435908  1
  Se  Se162  1  0.41395445  0.92197728  0.93695636  1
  Se  Se163  1  0.74392266  0.25125033  0.45336617  1
  Se  Se164  1  0.76555227  0.24099495  0.95032288  1
  Se  Se165  1  0.76573108  0.56446794  0.44864966  1
  Se  Se166  1  0.75140527  0.58509099  0.94028553  1
  Se  Se167  1  0.75538144  0.91641534  0.44231046  1
  Se  Se168  1  0.75384361  0.91473409  0.94634946  1
  Se  Se169  1  0.24703619  0.08720687  0.44991097  1
  Se  Se170  1  0.25643887  0.07914126  0.94498432  1
  Se  Se171  1  0.25859558  0.41304872  0.43622876  1
  Se  Se172  1  0.24577732  0.42305453  0.94515463  1
  Se  Se173  1  0.25147354  0.74180034  0.44655418  1
  Se  Se174  1  0.24639970  0.75302679  0.95007852  1
  Se  Se175  1  0.59167687  0.07582630  0.43577337  1
  Se  Se176  1  0.58422686  0.08476868  0.95268681  1
  Se  Se177  1  0.57657066  0.41531746  0.45304091  1
  Se  Se178  1  0.59522566  0.41028688  0.93830332  1
  Se  Se179  1  0.57128249  0.75843334  0.44447574  1
  Se  Se180  1  0.58496625  0.74749675  0.93983618  1
  Se  Se181  1  0.89861180  0.10416854  0.44201823  1
  Se  Se182  1  0.91790238  0.08237018  0.94634895  1
  Se  Se183  1  0.92332645  0.40951948  0.45675147  1
  Se  Se184  1  0.91549665  0.41843607  0.94825686  1
  Se  Se185  1  0.91451338  0.75157272  0.44702422  1
  Se  Se186  1  0.91671719  0.75396686  0.94371649  1
  Se  Se187  1  0.25112550  0.24728635  0.29963226  1
  Se  Se188  1  0.25060934  0.25433401  0.80121737  1
  Se  Se189  1  0.25531416  0.58551214  0.29493433  1
  Se  Se190  1  0.25448477  0.58906050  0.80684170  1
  Se  Se191  1  0.25072371  0.91049314  0.31259695  1
  Se  Se192  1  0.24111850  0.91063232  0.81539943  1
  Se  Se193  1  0.57398048  0.24136585  0.30388039  1
  Se  Se194  1  0.59067339  0.25233098  0.80623722  1
  Se  Se195  1  0.58580877  0.57707699  0.30727363  1
  Se  Se196  1  0.58853046  0.58959038  0.79932054  1
  Se  Se197  1  0.58123389  0.91262854  0.31211117  1
  Se  Se198  1  0.57886262  0.90714828  0.80465680  1
  Se  Se199  1  0.90849115  0.24751550  0.31382522  1
  Se  Se200  1  0.91066782  0.24429014  0.81409292  1
  Se  Se201  1  0.91362620  0.57954929  0.30884287  1
  Se  Se202  1  0.91338498  0.57847553  0.80540216  1
  Se  Se203  1  0.92034728  0.91991435  0.30087694  1
  Se  Se204  1  0.90742294  0.91310579  0.79888626  1
  Se  Se205  1  0.08088850  0.08750433  0.30387915  1
  Se  Se206  1  0.08146177  0.08003473  0.79975601  1
  Se  Se207  1  0.09095391  0.42878793  0.30732882  1
  Se  Se208  1  0.08610275  0.42414073  0.81357455  1
  Se  Se209  1  0.09420547  0.76029877  0.31237639  1
  Se  Se210  1  0.08550627  0.75109485  0.81265536  1
  Se  Se211  1  0.42527110  0.08745750  0.30705883  1
  Se  Se212  1  0.42494806  0.09230363  0.81362731  1
  Se  Se213  1  0.41575992  0.41016220  0.30171453  1
  Se  Se214  1  0.42057824  0.42134035  0.80207899  1
  Se  Se215  1  0.41589034  0.74313327  0.30428155  1
  Se  Se216  1  0.41551270  0.74883189  0.80118583  1
  Se  Se217  1  0.75242447  0.08681135  0.30585063  1
  Se  Se218  1  0.75155718  0.09067057  0.81531227  1
  Se  Se219  1  0.75123985  0.41971372  0.31475549  1
  Se  Se220  1  0.74994206  0.41443174  0.80365184  1
  Se  Se221  1  0.75185254  0.74530195  0.30595238  1
  Se  Se222  1  0.74716407  0.74612339  0.79945936  1
  Se  Se223  1  0.24271256  0.09059856  0.18354160  1
  Se  Se224  1  0.24721639  0.08871927  0.69337103  1
  Se  Se225  1  0.25402230  0.41040909  0.19452907  1
  Se  Se226  1  0.25350163  0.41415522  0.69971419  1
  Se  Se227  1  0.25354403  0.74897468  0.19733173  1
  Se  Se228  1  0.25390963  0.74824795  0.70487436  1
  Se  Se229  1  0.57526633  0.09501022  0.19096083  1
  Se  Se230  1  0.57697911  0.09153468  0.69614454  1
  Se  Se231  1  0.57364012  0.42300833  0.18512571  1
  Se  Se232  1  0.58683374  0.41546979  0.70017346  1
  Se  Se233  1  0.59103970  0.74516733  0.20451254  1
  Se  Se234  1  0.58653752  0.74722713  0.69007308  1
  Se  Se235  1  0.92235169  0.08024097  0.19916765  1
  Se  Se236  1  0.91072304  0.08119833  0.69371067  1
  Se  Se237  1  0.90239646  0.42088911  0.19260953  1
  Se  Se238  1  0.91191919  0.41866868  0.69318214  1
  Se  Se239  1  0.91273241  0.75400082  0.19002212  1
  Se  Se240  1  0.90002564  0.74772200  0.67878238  1
  Se  Se241  1  0.08610429  0.24920712  0.18717507  1
  Se  Se242  1  0.08635236  0.23778737  0.68860942  1
  Se  Se243  1  0.08488774  0.57482071  0.18534131  1
  Se  Se244  1  0.09410924  0.57443476  0.69552341  1
  Se  Se245  1  0.08671539  0.92160150  0.19680573  1
  Se  Se246  1  0.07651757  0.91165684  0.70218301  1
  Se  Se247  1  0.40734830  0.24119628  0.19563350  1
  Se  Se248  1  0.41583002  0.25641524  0.69845777  1
  Se  Se249  1  0.41755110  0.58298719  0.19928677  1
  Se  Se250  1  0.41836106  0.58513797  0.69299033  1
  Se  Se251  1  0.42830340  0.90852081  0.19261881  1
  Se  Se252  1  0.42240927  0.91493812  0.69092049  1
  Se  Se253  1  0.75760576  0.24477993  0.18998354  1
  Se  Se254  1  0.74866443  0.25176444  0.70304681  1
  Se  Se255  1  0.74481456  0.58864505  0.19864688  1
  Se  Se256  1  0.74863263  0.58711831  0.69494138  1
  Se  Se257  1  0.75970578  0.90655843  0.18872686  1
  Se  Se258  1  0.75156253  0.90972887  0.67928951  1
