# generated using pymatgen
data_In86Cu29Se144
_symmetry_space_group_name_H-M   'P 1'
_cell_length_a   17.57964320
_cell_length_b   17.57395354
_cell_length_c   23.44351362
_cell_angle_alpha   89.98912662
_cell_angle_beta   89.99014691
_cell_angle_gamma   89.99368010
_symmetry_Int_Tables_number   1
_chemical_formula_structural   In86Cu29Se144
_chemical_formula_sum   'In86 Cu29 Se144'
_cell_volume   7242.72867277
_cell_formula_units_Z   1
loop_
 _symmetry_equiv_pos_site_id
 _symmetry_equiv_pos_as_xyz
  1  'x, y, z'
loop_
 _atom_site_type_symbol
 _atom_site_label
 _atom_site_symmetry_multiplicity
 _atom_site_fract_x
 _atom_site_fract_y
 _atom_site_fract_z
 _atom_site_occupancy
  In  In0  1  -0.00897646  0.15534793  0.11706700  1
  In  In1  1  0.00776084  0.17776412  0.61829376  1
  In  In2  1  0.00019523  0.50453461  0.12568074  1
  In  In3  1  0.01163642  0.49090559  0.62917555  1
  In  In4  1  0.01992755  0.84999712  0.10661282  1
  In  In5  1  -0.01299968  0.83807571  0.62888745  1
  In  In6  1  0.33460512  0.16688369  0.12199828  1
  In  In7  1  0.32967399  0.16531465  0.61923464  1
  In  In8  1  0.34099560  0.49475841  0.13091293  1
  In  In9  1  0.33797679  0.50598198  0.62295096  1
  In  In10  1  0.32345712  0.82853552  0.12221272  1
  In  In11  1  0.33182338  0.83864894  0.63606504  1
  In  In12  1  0.66085858  0.15579651  0.12589040  1
  In  In13  1  0.65581201  0.15812359  0.61745795  1
  In  In14  1  0.65753822  0.51261764  0.12491015  1
  In  In15  1  0.65513444  0.50580527  0.61805747  1
  In  In16  1  0.67845295  0.84944713  0.11639509  1
  In  In17  1  0.67955003  0.83615369  0.62453336  1
  In  In18  1  0.16779603  0.02115409  0.36561005  1
  In  In19  1  0.17227861  -0.00456579  0.88150092  1
  In  In20  1  0.17946016  0.32395977  0.38003711  1
  In  In21  1  0.15502649  0.32754834  0.87164849  1
  In  In22  1  0.16763619  0.65657237  0.37856169  1
  In  In23  1  0.17193366  0.66845507  0.87012265  1
  In  In24  1  0.51928423  -0.00041014  0.36349081  1
  In  In25  1  0.50060103  0.00000041  0.87779633  1
  In  In26  1  0.49481135  0.34336809  0.38665268  1
  In  In27  1  0.50161967  0.32884899  0.88381409  1
  In  In28  1  0.48880967  0.66816745  0.37228382  1
  In  In29  1  0.48860294  0.67457143  0.88280379  1
  In  In30  1  0.83143864  0.00592623  0.37619386  1
  In  In31  1  0.82888366  0.00214032  0.87763386  1
  In  In32  1  0.82722013  0.30836168  0.37969232  1
  In  In33  1  0.83621806  0.31769367  0.87513399  1
  In  In34  1  0.84806627  0.67132715  0.37711732  1
  In  In35  1  0.84667536  0.67166563  0.87672447  1
  In  In36  1  0.00535935  0.15458641  0.37619002  1
  In  In37  1  -0.00048389  0.16561237  0.87845793  1
  In  In38  1  0.01030975  0.51235423  0.37910731  1
  In  In39  1  0.00365916  0.50256342  0.86545086  1
  In  In40  1  -0.01281022  0.83485411  0.37645139  1
  In  In41  1  0.01182215  0.81930292  0.88957896  1
  In  In42  1  0.32058291  0.17995573  0.37815305  1
  In  In43  1  0.33923040  0.15945964  0.88078195  1
  In  In44  1  0.33545315  0.49972749  0.37608215  1
  In  In45  1  0.33002295  0.51177092  0.87377503  1
  In  In46  1  0.34830784  0.82909619  0.36114449  1
  In  In47  1  0.33300695  0.83457112  0.87812965  1
  In  In48  1  0.66812465  0.15721076  0.38789263  1
  In  In49  1  0.67951696  0.15466312  0.88080618  1
  In  In50  1  0.66182930  0.47913750  0.38018977  1
  In  In51  1  0.66031652  0.48688961  0.87718228  1
  In  In52  1  0.66720583  0.86505307  0.36730250  1
  In  In53  1  0.65684717  0.84141977  0.88349296  1
  In  In54  1  0.15744268  -0.00626659  0.12091301  1
  In  In55  1  0.17164038  0.02118137  0.62973033  1
  In  In56  1  0.18297937  0.33603057  0.12700350  1
  In  In57  1  0.15146554  0.31902186  0.61812035  1
  In  In58  1  0.17365915  0.69932787  0.12122865  1
  In  In59  1  0.17583589  0.66189199  0.63262302  1
  In  In60  1  0.50580895  0.00692338  0.12085991  1
  In  In61  1  0.49078186  0.01003651  0.63283432  1
  In  In62  1  0.48959460  0.32103152  0.12195206  1
  In  In63  1  0.49976527  0.32955409  0.61212252  1
  In  In64  1  0.48921846  0.66234657  0.11879722  1
  In  In65  1  0.49316616  0.66001287  0.62484284  1
  In  In66  1  0.83819777  0.00614228  0.12814365  1
  In  In67  1  0.82741966  -0.00784444  0.62299858  1
  In  In68  1  0.83834581  0.31658375  0.12802100  1
  In  In69  1  0.84881657  0.33313246  0.62358152  1
  In  In70  1  0.82839371  0.67482103  0.11942487  1
  In  In71  1  0.83186873  0.68244856  0.62575361  1
  In  In72  1  0.01054322  0.68038375  0.24002499  1
  In  In73  1  0.16499225  0.83969788  0.49683839  1
  In  In74  1  0.16941317  0.49941230  -0.00438577  1
  In  In75  1  0.50232740  0.83564886  0.49012878  1
  In  In76  1  0.66351125  0.66877063  0.74450869  1
  In  In77  1  0.82559301  0.49952933  0.00176749  1
  In  In78  1  0.66329483  0.67312158  0.24845474  1
  In  In79  1  0.32900436  0.32977112  0.74482909  1
  In  In80  1  0.66264458  0.32160391  0.25050743  1
  In  In81  1  0.83292953  0.49848485  0.50117301  1
  In  In82  1  0.00381916  -0.00245165  0.75319729  1
  In  In83  1  0.01110655  0.31829565  0.26251289  1
  In  In84  1  0.32756441  -0.00112401  0.24411753  1
  In  In85  1  0.67017030  0.32966879  0.74305237  1
  Cu  Cu86  1  0.83167498  0.84588500  0.24906797  1
  Cu  Cu87  1  0.50595470  0.15924906  0.75245981  1
  Cu  Cu88  1  0.49787496  0.83789485  0.75902510  1
  Cu  Cu89  1  0.33566880  -0.00141195  0.00281651  1
  Cu  Cu90  1  0.66103990  0.33057096  0.00323583  1
  Cu  Cu91  1  -0.00097149  0.33084454  0.49682925  1
  Cu  Cu92  1  0.33311106  0.66374086  0.49978186  1
  Cu  Cu93  1  0.33090852  0.66703021  -0.00111693  1
  Cu  Cu94  1  0.65928983  0.67065991  0.00126902  1
  Cu  Cu95  1  0.84041727  0.16218803  0.75309280  1
  Cu  Cu96  1  0.66590389  0.67053651  0.49926158  1
  Cu  Cu97  1  0.49186936  0.50525684  0.75114542  1
  Cu  Cu98  1  0.49405977  0.49593536  0.25315241  1
  Cu  Cu99  1  0.16761095  0.83312981  0.75840380  1
  Cu  Cu100  1  -0.00596164  0.00206238  -0.00231516  1
  Cu  Cu101  1  0.66812469  0.00035121  0.49958866  1
  Cu  Cu102  1  0.33092506  0.33955553  0.50056900  1
  Cu  Cu103  1  0.33678895  0.32837395  0.00216670  1
  Cu  Cu104  1  0.83949544  0.49303280  0.25003231  1
  Cu  Cu105  1  0.16389016  0.50077795  0.74831977  1
  Cu  Cu106  1  0.84242171  0.49925143  0.74716644  1
  Cu  Cu107  1  0.83390587  0.83493954  0.75258822  1
  Cu  Cu108  1  -0.00476552  0.00562691  0.50296701  1
  Cu  Cu109  1  0.33398942  0.00934070  0.49800343  1
  Cu  Cu110  1  -0.00096503  0.32735666  -0.00153187  1
  Cu  Cu111  1  0.18026461  0.50472168  0.25142493  1
  Cu  Cu112  1  0.66825123  0.00380419  0.00076621  1
  Cu  Cu113  1  0.49271097  0.16877394  0.24971698  1
  Cu  Cu114  1  0.00342600  0.66952765  0.50277946  1
  Se  Se115  1  0.08348952  0.08191056  0.04954812  1
  Se  Se116  1  0.08555982  0.08441648  0.55352109  1
  Se  Se117  1  0.07655962  0.41031994  0.05798174  1
  Se  Se118  1  0.08190159  0.41517158  0.55013820  1
  Se  Se119  1  0.07100965  0.73481306  0.04953575  1
  Se  Se120  1  0.08162112  0.75137357  0.56373889  1
  Se  Se121  1  0.41837392  0.08605837  0.05317859  1
  Se  Se122  1  0.42113143  0.08624360  0.55333816  1
  Se  Se123  1  0.41642731  0.41581062  0.05540996  1
  Se  Se124  1  0.41626458  0.42191444  0.55295127  1
  Se  Se125  1  0.41258950  0.75259472  0.05190108  1
  Se  Se126  1  0.40928431  0.75333139  0.55698011  1
  Se  Se127  1  0.75228722  0.08487468  0.05659221  1
  Se  Se128  1  0.75180839  0.08141154  0.55453908  1
  Se  Se129  1  0.74110108  0.40779319  0.06696509  1
  Se  Se130  1  0.74402243  0.41025996  0.56228380  1
  Se  Se131  1  0.74848085  0.75309957  0.04855948  1
  Se  Se132  1  0.75096847  0.75337071  0.54973774  1
  Se  Se133  1  0.24835072  0.24884118  0.05275191  1
  Se  Se134  1  0.24960312  0.25136301  0.55212329  1
  Se  Se135  1  0.25344763  0.58606996  0.06222084  1
  Se  Se136  1  0.24846683  0.58482361  0.55515055  1
  Se  Se137  1  0.24742426  0.91606996  0.05264746  1
  Se  Se138  1  0.25739194  0.92527834  0.55880592  1
  Se  Se139  1  0.58228568  0.24440258  0.05789441  1
  Se  Se140  1  0.58713998  0.24974449  0.54890259  1
  Se  Se141  1  0.57712200  0.58181621  0.04966128  1
  Se  Se142  1  0.57748981  0.59119411  0.54936623  1
  Se  Se143  1  0.58152884  0.91955640  0.05030175  1
  Se  Se144  1  0.58462532  0.92025369  0.56032998  1
  Se  Se145  1  0.91176129  0.24567851  0.04935214  1
  Se  Se146  1  0.91450274  0.24734109  0.54832881  1
  Se  Se147  1  0.92243939  0.59018422  0.05452660  1
  Se  Se148  1  0.92119263  0.58874215  0.56308608  1
  Se  Se149  1  0.91142231  0.91982803  0.05353436  1
  Se  Se150  1  0.91511366  0.91563339  0.55253379  1
  Se  Se151  1  0.08125923  0.24856257  0.44143059  1
  Se  Se152  1  0.08636712  0.24583812  0.94788817  1
  Se  Se153  1  0.08879818  0.58385282  0.45544163  1
  Se  Se154  1  0.07614322  0.58853434  0.94002851  1
  Se  Se155  1  0.07607619  0.93052629  0.43817082  1
  Se  Se156  1  0.08450392  0.91830336  0.95037350  1
  Se  Se157  1  0.41120502  0.25113659  0.44787430  1
  Se  Se158  1  0.42065149  0.24370081  0.95002318  1
  Se  Se159  1  0.41916703  0.58376681  0.44611547  1
  Se  Se160  1  0.41417143  0.57943993  0.94866928  1
  Se  Se161  1  0.40904246  0.92788277  0.43474395  1
  Se  Se162  1  0.41786410  0.91599867  0.94646578  1
  Se  Se163  1  0.73198400  0.25933592  0.45241211  1
  Se  Se164  1  0.74761637  0.25255943  0.94813536  1
  Se  Se165  1  0.74531965  0.58895574  0.43676915  1
  Se  Se166  1  0.73848555  0.59043292  0.93788481  1
  Se  Se167  1  0.75237562  0.91640854  0.44722197  1
  Se  Se168  1  0.75026234  0.91771503  0.94790629  1
  Se  Se169  1  0.24451846  0.08731516  0.44604337  1
  Se  Se170  1  0.25143173  0.08247417  0.94989239  1
  Se  Se171  1  0.24772140  0.42190308  0.44572490  1
  Se  Se172  1  0.25851547  0.40514230  0.93713626  1
  Se  Se173  1  0.26177604  0.75134937  0.43938899  1
  Se  Se174  1  0.24689697  0.74861949  0.94452977  1
  Se  Se175  1  0.57355915  0.07504935  0.44924127  1
  Se  Se176  1  0.58307406  0.08566023  0.94658688  1
  Se  Se177  1  0.57928616  0.42042970  0.45720673  1
  Se  Se178  1  0.57919961  0.41741251  0.95233599  1
  Se  Se179  1  0.59556768  0.74840175  0.43029763  1
  Se  Se180  1  0.57503214  0.75456617  0.94927152  1
  Se  Se181  1  0.91234758  0.08813048  0.44753675  1
  Se  Se182  1  0.91130944  0.08686007  0.94507349  1
  Se  Se183  1  0.92083854  0.41167190  0.43485485  1
  Se  Se184  1  0.92125240  0.41394490  0.94035133  1
  Se  Se185  1  0.91737675  0.75244038  0.45300519  1
  Se  Se186  1  0.90601593  0.75834285  0.95168770  1
  Se  Se187  1  0.23918284  0.24403868  0.30015785  1
  Se  Se188  1  0.24780880  0.24097789  0.80990403  1
  Se  Se189  1  0.25770795  0.59008064  0.30707331  1
  Se  Se190  1  0.25009168  0.58349124  0.79910639  1
  Se  Se191  1  0.24153229  0.91024203  0.30993576  1
  Se  Se192  1  0.25179841  0.91813490  0.80754198  1
  Se  Se193  1  0.57151943  0.24329211  0.31634257  1
  Se  Se194  1  0.58421892  0.24470003  0.81028482  1
  Se  Se195  1  0.58386361  0.57111581  0.30959021  1
  Se  Se196  1  0.57821789  0.57967089  0.81012291  1
  Se  Se197  1  0.56204144  0.89261121  0.29512617  1
  Se  Se198  1  0.58637195  0.92028163  0.80633666  1
  Se  Se199  1  0.90453961  0.23093010  0.30510458  1
  Se  Se200  1  0.92306274  0.24780901  0.80328817  1
  Se  Se201  1  0.91991937  0.58123968  0.30194223  1
  Se  Se202  1  0.91651679  0.58776299  0.80208398  1
  Se  Se203  1  0.91613043  0.92290242  0.30636329  1
  Se  Se204  1  0.91750165  0.90797026  0.81524022  1
  Se  Se205  1  0.07441177  0.08273993  0.29512999  1
  Se  Se206  1  0.09367771  0.08749228  0.81021298  1
  Se  Se207  1  0.09384721  0.42823053  0.31010767  1
  Se  Se208  1  0.08308060  0.41390754  0.80014856  1
  Se  Se209  1  0.09025799  0.75713256  0.31524691  1
  Se  Se210  1  0.07962769  0.74958032  0.80596693  1
  Se  Se211  1  0.41398532  0.08680297  0.31141235  1
  Se  Se212  1  0.41847035  0.08218991  0.80664434  1
  Se  Se213  1  0.41501644  0.41103696  0.30793390  1
  Se  Se214  1  0.42014631  0.41640509  0.81017248  1
  Se  Se215  1  0.42849266  0.74795005  0.29302082  1
  Se  Se216  1  0.41401261  0.74986265  0.80618083  1
  Se  Se217  1  0.72731468  0.06913086  0.31253743  1
  Se  Se218  1  0.75207298  0.08046969  0.80181668  1
  Se  Se219  1  0.76024409  0.41341678  0.30861492  1
  Se  Se220  1  0.75973175  0.42089582  0.80680177  1
  Se  Se221  1  0.75971571  0.75719804  0.30977159  1
  Se  Se222  1  0.74914091  0.75409329  0.81074010  1
  Se  Se223  1  0.23736022  0.08998794  0.18751447  1
  Se  Se224  1  0.26661518  0.08362953  0.69756845  1
  Se  Se225  1  0.25817082  0.41391945  0.20144063  1
  Se  Se226  1  0.24011294  0.42016468  0.68484319  1
  Se  Se227  1  0.25893008  0.74612969  0.20110017  1
  Se  Se228  1  0.25076571  0.75127541  0.70105116  1
  Se  Se229  1  0.57770232  0.08345742  0.20039678  1
  Se  Se230  1  0.59095910  0.07922523  0.69763498  1
  Se  Se231  1  0.57701095  0.41955664  0.19181446  1
  Se  Se232  1  0.57181573  0.42380486  0.69203143  1
  Se  Se233  1  0.58599526  0.75371692  0.17678278  1
  Se  Se234  1  0.57156799  0.76249860  0.68850680  1
  Se  Se235  1  0.93448353  0.07186636  0.19698724  1
  Se  Se236  1  0.91718282  0.08376310  0.68782929  1
  Se  Se237  1  0.92131706  0.41227975  0.19402934  1
  Se  Se238  1  0.92393989  0.41169433  0.69751849  1
  Se  Se239  1  0.90773146  0.76311843  0.18812931  1
  Se  Se240  1  0.91706155  0.74960372  0.70123768  1
  Se  Se241  1  0.08354319  0.24800190  0.18140822  1
  Se  Se242  1  0.08544805  0.24325426  0.69747715  1
  Se  Se243  1  0.10021772  0.58024340  0.18743618  1
  Se  Se244  1  0.07977892  0.58701692  0.69663001  1
  Se  Se245  1  0.09102573  0.90218782  0.19267140  1
  Se  Se246  1  0.09536342  0.91047857  0.68899597  1
  Se  Se247  1  0.40838916  0.25038851  0.19767684  1
  Se  Se248  1  0.43094296  0.24458200  0.69145196  1
  Se  Se249  1  0.41914757  0.58444634  0.19796481  1
  Se  Se250  1  0.40953345  0.58930345  0.69901735  1
  Se  Se251  1  0.41978630  0.91400105  0.18439987  1
  Se  Se252  1  0.41634429  0.92112225  0.70188180  1
  Se  Se253  1  0.75811408  0.23124004  0.19759710  1
  Se  Se254  1  0.76122577  0.23825222  0.68721483  1
  Se  Se255  1  0.76048339  0.57686435  0.19381325  1
  Se  Se256  1  0.75656829  0.57418346  0.68785079  1
  Se  Se257  1  0.74646446  0.92653718  0.19578758  1
  Se  Se258  1  0.74944583  0.91759697  0.70049652  1
