# generated using pymatgen
data_In86Cu29Se144
_symmetry_space_group_name_H-M   'P 1'
_cell_length_a   17.57556856
_cell_length_b   17.57177929
_cell_length_c   23.43668269
_cell_angle_alpha   89.99248456
_cell_angle_beta   89.99788331
_cell_angle_gamma   89.97714251
_symmetry_Int_Tables_number   1
_chemical_formula_structural   In86Cu29Se144
_chemical_formula_sum   'In86 Cu29 Se144'
_cell_volume   7238.04409238
_cell_formula_units_Z   1
loop_
 _symmetry_equiv_pos_site_id
 _symmetry_equiv_pos_as_xyz
  1  'x, y, z'
loop_
 _atom_site_type_symbol
 _atom_site_label
 _atom_site_symmetry_multiplicity
 _atom_site_fract_x
 _atom_site_fract_y
 _atom_site_fract_z
 _atom_site_occupancy
  In  In0  1  0.00428571  0.15536718  0.11280508  1
  In  In1  1  0.00635839  0.15641213  0.62842166  1
  In  In2  1  0.00541118  0.50284673  0.12111571  1
  In  In3  1  0.01538275  0.50205615  0.62486642  1
  In  In4  1  -0.00320324  0.83960818  0.13254688  1
  In  In5  1  0.00439422  0.83119723  0.62822595  1
  In  In6  1  0.33703193  0.16742818  0.11617731  1
  In  In7  1  0.33480466  0.16254286  0.61729707  1
  In  In8  1  0.31424492  0.47473574  0.10395072  1
  In  In9  1  0.33222596  0.49546177  0.61854399  1
  In  In10  1  0.34020059  0.84258415  0.12945119  1
  In  In11  1  0.33079195  0.84770682  0.62043627  1
  In  In12  1  0.66271666  0.17145170  0.12583078  1
  In  In13  1  0.65740040  0.17546233  0.63581487  1
  In  In14  1  0.65150824  0.48324979  0.11423331  1
  In  In15  1  0.65568911  0.50732130  0.63318007  1
  In  In16  1  0.67804047  0.84246509  0.12378839  1
  In  In17  1  0.66964252  0.82497027  0.63525571  1
  In  In18  1  0.16978079  0.00314872  0.37020832  1
  In  In19  1  0.15191063  0.01589728  0.87882514  1
  In  In20  1  0.18424243  0.31639618  0.38115385  1
  In  In21  1  0.17070194  0.33110592  0.88650206  1
  In  In22  1  0.16162027  0.67505101  0.38006235  1
  In  In23  1  0.15375776  0.66261597  0.87172228  1
  In  In24  1  0.50837751  0.01735290  0.36984909  1
  In  In25  1  0.50926087  0.00356685  0.87905069  1
  In  In26  1  0.49630577  0.33217266  0.37094575  1
  In  In27  1  0.50296256  0.31273023  0.89138820  1
  In  In28  1  0.49182586  0.66511426  0.38111964  1
  In  In29  1  0.50380346  0.65555477  0.87062550  1
  In  In30  1  0.83628201  0.00314785  0.36589696  1
  In  In31  1  0.83858243  0.00670518  0.87445007  1
  In  In32  1  0.82289469  0.34224638  0.36847011  1
  In  In33  1  0.82900398  0.33786530  0.88179709  1
  In  In34  1  0.83881762  0.65672253  0.37425400  1
  In  In35  1  0.82565676  0.66010493  0.86699065  1
  In  In36  1  0.02085749  0.16777802  0.36479101  1
  In  In37  1  0.00433790  0.14797233  0.88930016  1
  In  In38  1  0.00065547  0.51250004  0.36656347  1
  In  In39  1  -0.00688066  0.50183737  0.88032199  1
  In  In40  1  0.01077434  0.84632378  0.36697678  1
  In  In41  1  0.00116042  0.83234940  0.86435688  1
  In  In42  1  0.33079897  0.17401164  0.36753826  1
  In  In43  1  0.32083470  0.16370396  0.89803965  1
  In  In44  1  0.34120235  0.48761209  0.37741679  1
  In  In45  1  0.34362571  0.48461264  0.89396085  1
  In  In46  1  0.32117688  0.82978509  0.37594383  1
  In  In47  1  0.33922300  0.83645074  0.87445258  1
  In  In48  1  0.65986306  0.16275253  0.36988467  1
  In  In49  1  0.66716913  0.16680895  0.87886697  1
  In  In50  1  0.66526303  0.49028018  0.37399462  1
  In  In51  1  0.66751565  0.49376869  0.87323222  1
  In  In52  1  0.65624388  0.84162056  0.37823205  1
  In  In53  1  0.66782841  0.84104504  0.86268954  1
  In  In54  1  0.16819212  0.00904441  0.12642418  1
  In  In55  1  0.16763226  -0.00234660  0.61883431  1
  In  In56  1  0.17419156  0.32436643  0.11968250  1
  In  In57  1  0.16700251  0.33336482  0.61725077  1
  In  In58  1  0.16400561  0.65157653  0.12929599  1
  In  In59  1  0.16087644  0.66285507  0.62176260  1
  In  In60  1  0.47579726  0.03134403  0.13826107  1
  In  In61  1  0.49650436  0.01086097  0.62737038  1
  In  In62  1  0.49676544  0.33374306  0.12265915  1
  In  In63  1  0.50280738  0.33747569  0.62092482  1
  In  In64  1  0.50589776  0.65577467  0.12576552  1
  In  In65  1  0.51574573  0.65508500  0.62356331  1
  In  In66  1  0.83087065  0.00687178  0.12784490  1
  In  In67  1  0.83622556  -0.00338089  0.63393908  1
  In  In68  1  0.82347665  0.32107466  0.11609340  1
  In  In69  1  0.82596915  0.32182621  0.63125827  1
  In  In70  1  0.84534448  0.66493675  0.12521237  1
  In  In71  1  0.83120470  0.66827497  0.63229131  1
  In  In72  1  -0.00449380  0.32941626  0.75031516  1
  In  In73  1  0.49463577  0.83154113  0.50417615  1
  In  In74  1  0.50254735  0.83985880  -0.00280029  1
  In  In75  1  0.16426449  0.83423638  0.00196299  1
  In  In76  1  0.33571607  0.00011442  0.75039201  1
  In  In77  1  0.66778509  0.66872637  0.25495557  1
  In  In78  1  0.83602763  0.83843867  0.00057237  1
  In  In79  1  0.83778447  0.16638149  0.50591725  1
  In  In80  1  0.82939346  0.49886204  0.49834219  1
  In  In81  1  0.83586081  0.83067198  0.51126987  1
  In  In82  1  0.33357261  0.66566368  0.75635671  1
  In  In83  1  0.33392338  0.66352180  0.25638519  1
  In  In84  1  0.33340525  0.32647409  0.76421712  1
  In  In85  1  0.00418440  0.33011075  0.23811208  1
  Cu  Cu86  1  0.49957999  0.16686333  0.75636120  1
  Cu  Cu87  1  0.16476494  0.83442187  0.25294988  1
  Cu  Cu88  1  0.50830132  0.84977064  0.24979721  1
  Cu  Cu89  1  0.49182320  0.49185333  0.24450766  1
  Cu  Cu90  1  0.01038843  0.33731665  0.49654886  1
  Cu  Cu91  1  -0.00285822  0.66182961  -0.00112993  1
  Cu  Cu92  1  0.33583007  0.33003086  0.49622658  1
  Cu  Cu93  1  0.82575677  0.50103715  0.24563916  1
  Cu  Cu94  1  0.16719814  0.49993213  0.75059679  1
  Cu  Cu95  1  0.83319265  0.83505190  0.74934896  1
  Cu  Cu96  1  0.82800382  0.16326745  0.75608183  1
  Cu  Cu97  1  0.66810580  0.33296683  -0.00073904  1
  Cu  Cu98  1  0.50983507  0.49462387  0.75040677  1
  Cu  Cu99  1  0.66139593  0.01041147  0.00465085  1
  Cu  Cu100  1  0.32780610  0.65800052  0.49948707  1
  Cu  Cu101  1  0.50064453  0.17443719  0.24783593  1
  Cu  Cu102  1  0.83390792  0.50027975  0.75665966  1
  Cu  Cu103  1  0.16267811  0.83804342  0.74656530  1
  Cu  Cu104  1  0.65742450  0.33160995  0.50038281  1
  Cu  Cu105  1  0.16707622  0.49142392  0.24607368  1
  Cu  Cu106  1  0.83516553  0.16887369  0.24234466  1
  Cu  Cu107  1  0.33341010  0.00546922  0.49379017  1
  Cu  Cu108  1  0.01411859  0.00674629  0.49380535  1
  Cu  Cu109  1  0.00525873  0.67110833  0.49888864  1
  Cu  Cu110  1  0.33453610  0.66528694  -0.00002687  1
  Cu  Cu111  1  0.67052887  0.65730946  -0.00763538  1
  Cu  Cu112  1  0.83667048  0.83685536  0.24642827  1
  Cu  Cu113  1  0.66497159  0.00253952  0.49955175  1
  Cu  Cu114  1  -0.00176177  0.33212531  0.00240538  1
  Se  Se115  1  0.10489787  0.09014201  0.04622180  1
  Se  Se116  1  0.09059208  0.09069683  0.55205874  1
  Se  Se117  1  0.08400443  0.41083333  0.05793121  1
  Se  Se118  1  0.08965340  0.42326915  0.55009229  1
  Se  Se119  1  0.07414907  0.74179268  0.06173489  1
  Se  Se120  1  0.08544150  0.75502984  0.55450109  1
  Se  Se121  1  0.42523354  0.08866873  0.04650013  1
  Se  Se122  1  0.42057789  0.08217890  0.54925872  1
  Se  Se123  1  0.44062033  0.44049981  0.05702317  1
  Se  Se124  1  0.41698856  0.41448353  0.55162613  1
  Se  Se125  1  0.41417222  0.74450016  0.05996485  1
  Se  Se126  1  0.40589730  0.73783386  0.56347745  1
  Se  Se127  1  0.74943431  0.08797926  0.05805596  1
  Se  Se128  1  0.74431851  0.07838451  0.56431623  1
  Se  Se129  1  0.75328107  0.41830426  0.05012715  1
  Se  Se130  1  0.74338294  0.40710812  0.56031884  1
  Se  Se131  1  0.74404823  0.74016771  0.05563143  1
  Se  Se132  1  0.73826300  0.73623237  0.55731763  1
  Se  Se133  1  0.27130649  0.26659257  0.04690560  1
  Se  Se134  1  0.25198955  0.24913873  0.55209383  1
  Se  Se135  1  0.24572059  0.58680668  0.05202951  1
  Se  Se136  1  0.24340131  0.57766879  0.55495850  1
  Se  Se137  1  0.26041588  0.92084975  0.05608017  1
  Se  Se138  1  0.25080018  0.91984027  0.54609359  1
  Se  Se139  1  0.58257457  0.25176155  0.05358568  1
  Se  Se140  1  0.58088631  0.24391800  0.55593549  1
  Se  Se141  1  0.58304460  0.58344967  0.04923678  1
  Se  Se142  1  0.57989328  0.56761479  0.55067121  1
  Se  Se143  1  0.58362505  0.92723904  0.06467502  1
  Se  Se144  1  0.59026014  0.92004428  0.56225655  1
  Se  Se145  1  0.91674080  0.24435842  0.05230549  1
  Se  Se146  1  0.92997997  0.26234976  0.56087797  1
  Se  Se147  1  0.91405668  0.57844509  0.05225664  1
  Se  Se148  1  0.92260481  0.59052592  0.55772747  1
  Se  Se149  1  0.92701290  0.92804509  0.05775484  1
  Se  Se150  1  0.92954921  0.93184653  0.55639524  1
  Se  Se151  1  0.08546690  0.24534570  0.44548801  1
  Se  Se152  1  0.08014114  0.24851835  0.94837602  1
  Se  Se153  1  0.08074397  0.58216061  0.44361195  1
  Se  Se154  1  0.08426894  0.58071640  0.94722008  1
  Se  Se155  1  0.09160585  0.91623831  0.44285695  1
  Se  Se156  1  0.06920854  0.91752097  0.94257271  1
  Se  Se157  1  0.41774857  0.24710987  0.44109961  1
  Se  Se158  1  0.38655652  0.27316362  0.95306900  1
  Se  Se159  1  0.41483028  0.57834256  0.44758982  1
  Se  Se160  1  0.42295331  0.58757321  0.94738745  1
  Se  Se161  1  0.41593163  0.92200478  0.43605920  1
  Se  Se162  1  0.40511792  0.93117973  0.94493380  1
  Se  Se163  1  0.74729833  0.25547572  0.44349044  1
  Se  Se164  1  0.75190902  0.24709106  0.94836585  1
  Se  Se165  1  0.73805828  0.59141779  0.44117490  1
  Se  Se166  1  0.75577011  0.57580203  0.94126268  1
  Se  Se167  1  0.75136742  0.92405664  0.44484474  1
  Se  Se168  1  0.73667527  0.92337180  0.94462724  1
  Se  Se169  1  0.25132683  0.08751404  0.43853841  1
  Se  Se170  1  0.22881731  0.08178400  0.95889013  1
  Se  Se171  1  0.24960634  0.41628383  0.44683940  1
  Se  Se172  1  0.23332277  0.43115739  0.95193586  1
  Se  Se173  1  0.24904272  0.74951782  0.45085459  1
  Se  Se174  1  0.25498083  0.74288386  0.93834547  1
  Se  Se175  1  0.58461141  0.08923050  0.44846303  1
  Se  Se176  1  0.57761203  0.09225906  0.95069176  1
  Se  Se177  1  0.57914191  0.41478763  0.44295461  1
  Se  Se178  1  0.58374964  0.41490065  0.94472067  1
  Se  Se179  1  0.59010659  0.74226139  0.44607129  1
  Se  Se180  1  0.59299904  0.74709222  0.93794536  1
  Se  Se181  1  0.92438867  0.08262161  0.43851365  1
  Se  Se182  1  0.90453322  0.08245196  0.95382964  1
  Se  Se183  1  0.92344957  0.41083382  0.43732171  1
  Se  Se184  1  0.91558406  0.41732484  0.94989692  1
  Se  Se185  1  0.92204706  0.74988845  0.43963525  1
  Se  Se186  1  0.92064430  0.74427942  0.93840263  1
  Se  Se187  1  0.24499602  0.25008441  0.29652972  1
  Se  Se188  1  0.23920405  0.23377371  0.81512609  1
  Se  Se189  1  0.24097704  0.57305641  0.31243082  1
  Se  Se190  1  0.25138685  0.56884062  0.81574131  1
  Se  Se191  1  0.25363874  0.91514067  0.30256838  1
  Se  Se192  1  0.23964548  0.91388184  0.81170165  1
  Se  Se193  1  0.58615518  0.25447419  0.30286031  1
  Se  Se194  1  0.58212469  0.25119891  0.80974804  1
  Se  Se195  1  0.56810259  0.57674342  0.30573908  1
  Se  Se196  1  0.59138253  0.58196614  0.80128150  1
  Se  Se197  1  0.59274831  0.92883365  0.30438367  1
  Se  Se198  1  0.57347399  0.92081824  0.80379096  1
  Se  Se199  1  0.91158026  0.24880593  0.30765489  1
  Se  Se200  1  0.91174988  0.24218701  0.81547791  1
  Se  Se201  1  0.91201704  0.58445054  0.29548309  1
  Se  Se202  1  0.92261229  0.58355721  0.80387719  1
  Se  Se203  1  0.92061396  0.92097245  0.29934562  1
  Se  Se204  1  0.91404417  0.91930484  0.80358135  1
  Se  Se205  1  0.07694624  0.06844698  0.29818110  1
  Se  Se206  1  0.07126473  0.08333385  0.80371998  1
  Se  Se207  1  0.08610909  0.41406623  0.30919812  1
  Se  Se208  1  0.08809875  0.41735641  0.81065472  1
  Se  Se209  1  0.08229054  0.74656181  0.30312862  1
  Se  Se210  1  0.08414385  0.74731436  0.79762939  1
  Se  Se211  1  0.41808711  0.08877483  0.30149878  1
  Se  Se212  1  0.41220767  0.09562243  0.81738045  1
  Se  Se213  1  0.40910024  0.40925999  0.29911622  1
  Se  Se214  1  0.43007105  0.41882116  0.81438416  1
  Se  Se215  1  0.42929128  0.76253552  0.30758081  1
  Se  Se216  1  0.42961820  0.75944900  0.80666517  1
  Se  Se217  1  0.75275492  0.08955216  0.30231630  1
  Se  Se218  1  0.74363009  0.07917375  0.80815474  1
  Se  Se219  1  0.74111600  0.41747929  0.29603286  1
  Se  Se220  1  0.75192166  0.41124790  0.80408300  1
  Se  Se221  1  0.75878269  0.76206509  0.31348810  1
  Se  Se222  1  0.74887112  0.74976341  0.80019426  1
  Se  Se223  1  0.27128983  0.07337779  0.18712826  1
  Se  Se224  1  0.24591938  0.08963048  0.69138894  1
  Se  Se225  1  0.25077302  0.41161694  0.19164871  1
  Se  Se226  1  0.24826873  0.41602650  0.69531329  1
  Se  Se227  1  0.24516357  0.75336974  0.19157692  1
  Se  Se228  1  0.24843341  0.75753582  0.69083656  1
  Se  Se229  1  0.58639173  0.08656727  0.19865341  1
  Se  Se230  1  0.58048300  0.08256531  0.70126239  1
  Se  Se231  1  0.58311266  0.41224299  0.19581606  1
  Se  Se232  1  0.58704472  0.40591793  0.69670210  1
  Se  Se233  1  0.57929074  0.75994200  0.19074001  1
  Se  Se234  1  0.57926659  0.74284178  0.69568877  1
  Se  Se235  1  0.92203984  0.08757246  0.19168598  1
  Se  Se236  1  0.91457784  0.08819685  0.69824239  1
  Se  Se237  1  0.90599917  0.42003721  0.18558324  1
  Se  Se238  1  0.91023448  0.42553619  0.68808230  1
  Se  Se239  1  0.91849995  0.74827263  0.19770862  1
  Se  Se240  1  0.91784866  0.75178695  0.69599869  1
  Se  Se241  1  0.09368172  0.23297845  0.18768009  1
  Se  Se242  1  0.09454138  0.24646320  0.69330749  1
  Se  Se243  1  0.07927552  0.57796737  0.20083820  1
  Se  Se244  1  0.08555841  0.58587362  0.69933966  1
  Se  Se245  1  0.08927713  0.91915107  0.19394373  1
  Se  Se246  1  0.08330147  0.92393592  0.69223757  1
  Se  Se247  1  0.41468365  0.25079220  0.19114127  1
  Se  Se248  1  0.41877732  0.24383867  0.69349500  1
  Se  Se249  1  0.41069884  0.57439821  0.18746781  1
  Se  Se250  1  0.41887191  0.57105536  0.69471726  1
  Se  Se251  1  0.41430173  0.92496702  0.20144576  1
  Se  Se252  1  0.42713809  0.90698557  0.69364114  1
  Se  Se253  1  0.74769513  0.25379002  0.19611050  1
  Se  Se254  1  0.74564090  0.25061577  0.70584806  1
  Se  Se255  1  0.74443780  0.58065060  0.18482088  1
  Se  Se256  1  0.75129758  0.58044802  0.69787162  1
  Se  Se257  1  0.75070951  0.92170380  0.19830533  1
  Se  Se258  1  0.74638114  0.91850800  0.69889857  1
