# generated using pymatgen
data_In86Cu29Se144
_symmetry_space_group_name_H-M   'P 1'
_cell_length_a   17.56796147
_cell_length_b   17.56765044
_cell_length_c   23.43060825
_cell_angle_alpha   90.00022123
_cell_angle_beta   90.00008508
_cell_angle_gamma   89.99285355
_symmetry_Int_Tables_number   1
_chemical_formula_structural   In86Cu29Se144
_chemical_formula_sum   'In86 Cu29 Se144'
_cell_volume   7231.33716069
_cell_formula_units_Z   1
loop_
 _symmetry_equiv_pos_site_id
 _symmetry_equiv_pos_as_xyz
  1  'x, y, z'
loop_
 _atom_site_type_symbol
 _atom_site_label
 _atom_site_symmetry_multiplicity
 _atom_site_fract_x
 _atom_site_fract_y
 _atom_site_fract_z
 _atom_site_occupancy
  In  In0  1  0.00575742  0.17550653  0.12708052  1
  In  In1  1  0.00717110  0.17417271  0.62633119  1
  In  In2  1  0.00311034  0.50127203  0.12785401  1
  In  In3  1  -0.00156141  0.50310025  0.62463297  1
  In  In4  1  -0.01639398  0.82808707  0.12290560  1
  In  In5  1  -0.01074146  0.82030263  0.61853074  1
  In  In6  1  0.34264085  0.16112740  0.13527355  1
  In  In7  1  0.34542460  0.16369327  0.62213989  1
  In  In8  1  0.32591178  0.49102885  0.12057145  1
  In  In9  1  0.32313436  0.49149346  0.62097113  1
  In  In10  1  0.34961931  0.83428366  0.12683213  1
  In  In11  1  0.33111397  0.84309901  0.62465942  1
  In  In12  1  0.65562414  0.16576440  0.12300907  1
  In  In13  1  0.67068832  0.18417137  0.62338201  1
  In  In14  1  0.67919941  0.51097995  0.11841337  1
  In  In15  1  0.65935754  0.49393652  0.61897641  1
  In  In16  1  0.66639763  0.83223454  0.12867532  1
  In  In17  1  0.67704354  0.81935994  0.62825576  1
  In  In18  1  0.16329033  -0.01757106  0.37254026  1
  In  In19  1  0.17780701  -0.00339087  0.87373852  1
  In  In20  1  0.17198968  0.34056362  0.37295976  1
  In  In21  1  0.17156960  0.34067045  0.86895182  1
  In  In22  1  0.15530286  0.67318306  0.38197270  1
  In  In23  1  0.14245420  0.66359542  0.87101929  1
  In  In24  1  0.51018564  0.00765514  0.36886257  1
  In  In25  1  0.51364092  -0.00575070  0.89441723  1
  In  In26  1  0.49088409  0.34206634  0.37756124  1
  In  In27  1  0.50083432  0.33252697  0.87624352  1
  In  In28  1  0.50104906  0.65260380  0.37338151  1
  In  In29  1  0.49731522  0.66335564  0.88284748  1
  In  In30  1  0.82161738  0.00237249  0.37487107  1
  In  In31  1  0.82014649  -0.00850342  0.88406220  1
  In  In32  1  0.84773010  0.32969938  0.36982547  1
  In  In33  1  0.84225826  0.35257970  0.86449239  1
  In  In34  1  0.83491494  0.66429253  0.37410312  1
  In  In35  1  0.83714015  0.65825190  0.87952052  1
  In  In36  1  -0.01662805  0.17648326  0.36892675  1
  In  In37  1  -0.00621023  0.17984035  0.87331614  1
  In  In38  1  -0.00217968  0.49988782  0.37597025  1
  In  In39  1  -0.00527504  0.49904979  0.87637801  1
  In  In40  1  0.01131045  0.82667629  0.38363392  1
  In  In41  1  -0.00704998  0.81183456  0.86381164  1
  In  In42  1  0.34366528  0.17735554  0.36983032  1
  In  In43  1  0.33833376  0.17869694  0.87403515  1
  In  In44  1  0.33697723  0.49200144  0.38098608  1
  In  In45  1  0.34453204  0.48843756  0.88237486  1
  In  In46  1  0.31846585  0.82908784  0.37351909  1
  In  In47  1  0.33714366  0.83965577  0.87410963  1
  In  In48  1  0.66864226  0.15093007  0.36996112  1
  In  In49  1  0.65032966  0.16621149  0.88116710  1
  In  In50  1  0.66036753  0.50785396  0.37700730  1
  In  In51  1  0.67556199  0.49481979  0.88090992  1
  In  In52  1  0.67625802  0.83915906  0.36954605  1
  In  In53  1  0.66858828  0.83134264  0.88424762  1
  In  In54  1  0.17041216  0.01231232  0.13100728  1
  In  In55  1  0.16340730  -0.00605153  0.61301711  1
  In  In56  1  0.15991315  0.34874742  0.13499267  1
  In  In57  1  0.15519628  0.34706592  0.63469778  1
  In  In58  1  0.16646908  0.64557279  0.12397018  1
  In  In59  1  0.15956405  0.65557076  0.61992215  1
  In  In60  1  0.50550487  -0.00224417  0.12836405  1
  In  In61  1  0.48786547  0.00545436  0.62186717  1
  In  In62  1  0.49554032  0.32424651  0.12015289  1
  In  In63  1  0.49797109  0.33162627  0.62533166  1
  In  In64  1  0.51129582  0.67996836  0.11755894  1
  In  In65  1  0.51563470  0.66174744  0.62566037  1
  In  In66  1  0.83265558  -0.01837780  0.12163218  1
  In  In67  1  0.83808820  -0.02026926  0.62045313  1
  In  In68  1  0.83653681  0.34721171  0.12265084  1
  In  In69  1  0.82140134  0.34571081  0.63156904  1
  In  In70  1  0.83354901  0.66551731  0.12991412  1
  In  In71  1  0.84761802  0.67791047  0.61910929  1
  In  In72  1  0.16793221  0.17756499  -0.00235093  1
  In  In73  1  0.33449181  0.00327139  0.75073177  1
  In  In74  1  -0.00016472  0.00223494  0.74361566  1
  In  In75  1  0.33470899  0.66466714  0.24726200  1
  In  In76  1  0.67181412  0.66354789  0.75641440  1
  In  In77  1  0.16724872  0.82982326  -0.00790213  1
  In  In78  1  0.16917632  0.16763648  0.49934456  1
  In  In79  1  0.66502314  0.00462119  0.75685054  1
  In  In80  1  0.50069695  0.83031558  0.50323075  1
  In  In81  1  0.32974838  0.66307549  0.74981615  1
  In  In82  1  0.66965658  0.33176157  0.24277982  1
  In  In83  1  -0.00118912  0.00126944  0.25137252  1
  In  In84  1  0.82872937  0.16775480  0.49418506  1
  In  In85  1  0.82744391  0.17415235  0.00678447  1
  Cu  Cu86  1  0.33681017  0.32812016  0.00238454  1
  Cu  Cu87  1  0.66854700  0.66906241  0.00375124  1
  Cu  Cu88  1  -0.00321650  -0.00413846  -0.00148678  1
  Cu  Cu89  1  -0.00368237  0.34065362  0.50108888  1
  Cu  Cu90  1  0.49927093  0.16717980  0.24815984  1
  Cu  Cu91  1  0.50179293  0.50018839  0.24861104  1
  Cu  Cu92  1  0.32980066  0.66266978  0.49705534  1
  Cu  Cu93  1  0.16789592  0.17133836  0.74925224  1
  Cu  Cu94  1  0.83681310  0.50194962  0.24860991  1
  Cu  Cu95  1  0.50489292  0.83748595  0.24759356  1
  Cu  Cu96  1  0.67407918  0.66390734  0.49967280  1
  Cu  Cu97  1  0.16295480  0.50056754  0.25405583  1
  Cu  Cu98  1  0.83596520  0.50699703  0.74847887  1
  Cu  Cu99  1  0.17262850  0.17325169  0.25192776  1
  Cu  Cu100  1  0.16300664  0.50250252  0.75022860  1
  Cu  Cu101  1  0.33444282  -0.00028642  0.49542884  1
  Cu  Cu102  1  0.83383275  0.17594477  0.74963753  1
  Cu  Cu103  1  -0.00590266  0.66134090  0.00081250  1
  Cu  Cu104  1  0.33473199  0.33450278  0.50154477  1
  Cu  Cu105  1  0.34171483  -0.00055920  0.00845387  1
  Cu  Cu106  1  0.83294110  0.82674435  0.25073430  1
  Cu  Cu107  1  0.66426141  -0.00122167  0.49618293  1
  Cu  Cu108  1  0.16488048  0.82848632  0.25263537  1
  Cu  Cu109  1  0.49836276  0.17262176  0.75185740  1
  Cu  Cu110  1  0.66610995  0.33723704  -0.00215695  1
  Cu  Cu111  1  -0.00217271  0.65961806  0.49843471  1
  Cu  Cu112  1  0.65792396  0.33592260  0.49896427  1
  Cu  Cu113  1  0.49798415  0.48817170  0.74928622  1
  Cu  Cu114  1  0.33249167  0.65955950  0.00168303  1
  Se  Se115  1  0.07754141  0.07717968  0.05469970  1
  Se  Se116  1  0.06905602  0.07944784  0.55238871  1
  Se  Se117  1  0.09236256  0.42616208  0.05840775  1
  Se  Se118  1  0.08337507  0.41927486  0.55511629  1
  Se  Se119  1  0.08055351  0.74287990  0.05812327  1
  Se  Se120  1  0.08157984  0.74405416  0.55194034  1
  Se  Se121  1  0.42150942  0.08562116  0.06087867  1
  Se  Se122  1  0.41827611  0.08527716  0.54521118  1
  Se  Se123  1  0.41856715  0.41594770  0.05392378  1
  Se  Se124  1  0.41849838  0.41801835  0.55589568  1
  Se  Se125  1  0.41316380  0.74904296  0.05084994  1
  Se  Se126  1  0.40937251  0.73864780  0.56234995  1
  Se  Se127  1  0.74320651  0.07344585  0.05909182  1
  Se  Se128  1  0.74427475  0.07673113  0.56115204  1
  Se  Se129  1  0.75216083  0.41875156  0.04980610  1
  Se  Se130  1  0.74759608  0.41469815  0.55065169  1
  Se  Se131  1  0.75219223  0.74916908  0.06025845  1
  Se  Se132  1  0.75459198  0.75248346  0.55002779  1
  Se  Se133  1  0.25579624  0.25420422  0.06755435  1
  Se  Se134  1  0.25191764  0.25807083  0.56414792  1
  Se  Se135  1  0.24654234  0.57437621  0.04880871  1
  Se  Se136  1  0.24741330  0.57842397  0.55126534  1
  Se  Se137  1  0.25025627  0.92110201  0.06031909  1
  Se  Se138  1  0.25298790  0.91456071  0.54754929  1
  Se  Se139  1  0.58506130  0.25093832  0.05000446  1
  Se  Se140  1  0.57914211  0.24875196  0.55243502  1
  Se  Se141  1  0.58291225  0.58274379  0.05271033  1
  Se  Se142  1  0.58376218  0.58295965  0.54858027  1
  Se  Se143  1  0.56741997  0.89730859  0.06237727  1
  Se  Se144  1  0.59142589  0.92068645  0.56432359  1
  Se  Se145  1  0.92950830  0.26260100  0.05492574  1
  Se  Se146  1  0.91602995  0.25723049  0.55946702  1
  Se  Se147  1  0.91445604  0.58138969  0.06007065  1
  Se  Se148  1  0.91255041  0.57863682  0.55262472  1
  Se  Se149  1  0.91371660  0.90853635  0.04630921  1
  Se  Se150  1  0.92464997  0.91605102  0.54838937  1
  Se  Se151  1  0.07349055  0.25611045  0.44141803  1
  Se  Se152  1  0.07454685  0.26625977  0.94233044  1
  Se  Se153  1  0.08454086  0.57667625  0.44718459  1
  Se  Se154  1  0.07987945  0.58016058  0.94805761  1
  Se  Se155  1  0.08548776  0.91826042  0.45035415  1
  Se  Se156  1  0.07462990  0.92031877  0.93347274  1
  Se  Se157  1  0.41788265  0.25152911  0.44806563  1
  Se  Se158  1  0.42170821  0.24688490  0.94861138  1
  Se  Se159  1  0.41766376  0.58163515  0.44688085  1
  Se  Se160  1  0.42003461  0.57674811  0.95129149  1
  Se  Se161  1  0.41552324  0.91692363  0.43632923  1
  Se  Se162  1  0.41492913  0.91179639  0.95039850  1
  Se  Se163  1  0.73841183  0.25907810  0.43476202  1
  Se  Se164  1  0.74797771  0.25947385  0.93570836  1
  Se  Se165  1  0.75398579  0.57931560  0.44449770  1
  Se  Se166  1  0.75037621  0.58377676  0.94971019  1
  Se  Se167  1  0.75042034  0.91517006  0.44752193  1
  Se  Se168  1  0.73650352  0.92193124  0.95514119  1
  Se  Se169  1  0.25501323  0.08000550  0.43424069  1
  Se  Se170  1  0.26118753  0.07787707  0.94571142  1
  Se  Se171  1  0.24771320  0.41599903  0.44983286  1
  Se  Se172  1  0.25261193  0.40885985  0.94686168  1
  Se  Se173  1  0.24646476  0.75094235  0.44936879  1
  Se  Se174  1  0.25630254  0.73596269  0.93431033  1
  Se  Se175  1  0.58307154  0.08563604  0.44665568  1
  Se  Se176  1  0.58477317  0.08752140  0.95877213  1
  Se  Se177  1  0.57832303  0.42221666  0.44430455  1
  Se  Se178  1  0.58040395  0.41971184  0.94505845  1
  Se  Se179  1  0.58946091  0.74406371  0.43961730  1
  Se  Se180  1  0.58205743  0.74718789  0.94837795  1
  Se  Se181  1  0.92392331  0.07672620  0.44011939  1
  Se  Se182  1  0.91966636  0.08287878  0.94139757  1
  Se  Se183  1  0.91075269  0.41754500  0.44490472  1
  Se  Se184  1  0.90638920  0.42378550  0.94599337  1
  Se  Se185  1  0.91700704  0.74631569  0.44489679  1
  Se  Se186  1  0.91717191  0.74954951  0.94621035  1
  Se  Se187  1  0.25538269  0.25830056  0.30462997  1
  Se  Se188  1  0.25296522  0.25111175  0.80304094  1
  Se  Se189  1  0.24596300  0.58207030  0.31349595  1
  Se  Se190  1  0.24573649  0.57470931  0.81510652  1
  Se  Se191  1  0.25101723  0.91515254  0.29840082  1
  Se  Se192  1  0.24034129  0.90335469  0.79962921  1
  Se  Se193  1  0.57889835  0.24933689  0.30936517  1
  Se  Se194  1  0.58554576  0.25162378  0.80515634  1
  Se  Se195  1  0.58611245  0.58445920  0.29875920  1
  Se  Se196  1  0.57440656  0.57276124  0.80941350  1
  Se  Se197  1  0.58936507  0.91967635  0.30258918  1
  Se  Se198  1  0.57621471  0.91015169  0.81247886  1
  Se  Se199  1  0.91211630  0.24996842  0.29181529  1
  Se  Se200  1  0.92011134  0.25914847  0.79918790  1
  Se  Se201  1  0.91989185  0.58401835  0.30430115  1
  Se  Se202  1  0.91932618  0.58709399  0.80416440  1
  Se  Se203  1  0.91373008  0.90796150  0.31212964  1
  Se  Se204  1  0.91075177  0.92048966  0.81037557  1
  Se  Se205  1  0.09067053  0.09265183  0.31228318  1
  Se  Se206  1  0.09064587  0.09009516  0.81085159  1
  Se  Se207  1  0.07972187  0.41455529  0.30619908  1
  Se  Se208  1  0.07966951  0.41932631  0.80506049  1
  Se  Se209  1  0.07975328  0.74748043  0.30428717  1
  Se  Se210  1  0.09136644  0.75547558  0.79566731  1
  Se  Se211  1  0.41705393  0.08342768  0.30344331  1
  Se  Se212  1  0.42942916  0.08366002  0.81396210  1
  Se  Se213  1  0.41563908  0.42141906  0.30230347  1
  Se  Se214  1  0.41327154  0.40883735  0.80432773  1
  Se  Se215  1  0.42427082  0.75660090  0.30929563  1
  Se  Se216  1  0.42393386  0.75231621  0.80754562  1
  Se  Se217  1  0.76112330  0.08897257  0.29959060  1
  Se  Se218  1  0.75927694  0.09610914  0.81370565  1
  Se  Se219  1  0.75325923  0.42174682  0.30826223  1
  Se  Se220  1  0.74633321  0.42475279  0.79849779  1
  Se  Se221  1  0.74815845  0.74406764  0.30421503  1
  Se  Se222  1  0.75953470  0.75797655  0.81207044  1
  Se  Se223  1  0.25362829  0.08306121  0.20386455  1
  Se  Se224  1  0.24020533  0.08756733  0.68681934  1
  Se  Se225  1  0.25358511  0.42171180  0.20259607  1
  Se  Se226  1  0.25116547  0.41838021  0.70107563  1
  Se  Se227  1  0.24302901  0.75396252  0.18573003  1
  Se  Se228  1  0.24499245  0.75198033  0.68620597  1
  Se  Se229  1  0.58571772  0.08371418  0.19878128  1
  Se  Se230  1  0.57700015  0.09117252  0.69014788  1
  Se  Se231  1  0.58074591  0.42392184  0.18407898  1
  Se  Se232  1  0.58584844  0.41226882  0.69370883  1
  Se  Se233  1  0.58502719  0.74644227  0.19940685  1
  Se  Se234  1  0.57728324  0.75737926  0.69901546  1
  Se  Se235  1  0.91292283  0.08382621  0.18392908  1
  Se  Se236  1  0.90315798  0.09214232  0.68558892  1
  Se  Se237  1  0.91976912  0.41681992  0.19761569  1
  Se  Se238  1  0.91739588  0.41931311  0.69534546  1
  Se  Se239  1  0.92068448  0.74536954  0.20035466  1
  Se  Se240  1  0.91431711  0.75334202  0.69837693  1
  Se  Se241  1  0.08531705  0.25245026  0.19932104  1
  Se  Se242  1  0.07915218  0.25411889  0.70090283  1
  Se  Se243  1  0.08145880  0.58588138  0.20142577  1
  Se  Se244  1  0.07984036  0.58511084  0.69679358  1
  Se  Se245  1  0.08662176  0.90872755  0.18770647  1
  Se  Se246  1  0.08725833  0.91041723  0.68550677  1
  Se  Se247  1  0.41736442  0.25717529  0.20003393  1
  Se  Se248  1  0.41256008  0.24994543  0.69600286  1
  Se  Se249  1  0.42384859  0.57996721  0.18399140  1
  Se  Se250  1  0.42384454  0.57489048  0.68965240  1
  Se  Se251  1  0.41630001  0.92088582  0.20013022  1
  Se  Se252  1  0.42907714  0.90870157  0.69608996  1
  Se  Se253  1  0.75969569  0.24291084  0.18344123  1
  Se  Se254  1  0.74430799  0.25729418  0.70085645  1
  Se  Se255  1  0.74793560  0.58405263  0.19952884  1
  Se  Se256  1  0.75384999  0.58193664  0.68493627  1
  Se  Se257  1  0.75191101  0.91401862  0.19902854  1
  Se  Se258  1  0.75558418  0.91033499  0.69891214  1
