# generated using pymatgen
data_In86Cu29Se144
_symmetry_space_group_name_H-M   'P 1'
_cell_length_a   17.58066289
_cell_length_b   17.57787683
_cell_length_c   23.43546893
_cell_angle_alpha   89.98787077
_cell_angle_beta   90.00554508
_cell_angle_gamma   89.96979486
_symmetry_Int_Tables_number   1
_chemical_formula_structural   In86Cu29Se144
_chemical_formula_sum   'In86 Cu29 Se144'
_cell_volume   7242.27879623
_cell_formula_units_Z   1
loop_
 _symmetry_equiv_pos_site_id
 _symmetry_equiv_pos_as_xyz
  1  'x, y, z'
loop_
 _atom_site_type_symbol
 _atom_site_label
 _atom_site_symmetry_multiplicity
 _atom_site_fract_x
 _atom_site_fract_y
 _atom_site_fract_z
 _atom_site_occupancy
  In  In0  1  0.01474540  0.17227447  0.12773815  1
  In  In1  1  0.01621304  0.17284574  0.62432842  1
  In  In2  1  0.00907648  0.48754123  0.14005828  1
  In  In3  1  -0.00954307  0.50744532  0.62800946  1
  In  In4  1  -0.01421914  0.83107329  0.12875627  1
  In  In5  1  -0.00479096  0.81724616  0.60959359  1
  In  In6  1  0.33672386  0.18567358  0.13151557  1
  In  In7  1  0.32938692  0.15904711  0.61605865  1
  In  In8  1  0.32901049  0.50178032  0.12486671  1
  In  In9  1  0.34631725  0.49990474  0.62552748  1
  In  In10  1  0.33011536  0.81719503  0.12714218  1
  In  In11  1  0.32264447  0.82418480  0.61763993  1
  In  In12  1  0.64772476  0.15784109  0.13376067  1
  In  In13  1  0.66164828  0.17519854  0.62847165  1
  In  In14  1  0.66261681  0.51273527  0.12041528  1
  In  In15  1  0.66399171  0.49488925  0.61689808  1
  In  In16  1  0.66996626  0.83971753  0.12316502  1
  In  In17  1  0.67451519  0.84014277  0.62229861  1
  In  In18  1  0.16408179  0.00387649  0.37979789  1
  In  In19  1  0.17968771  0.00777612  0.88297404  1
  In  In20  1  0.16507760  0.32319248  0.36717526  1
  In  In21  1  0.16640090  0.33796228  0.87882557  1
  In  In22  1  0.16862537  0.66650858  0.37255582  1
  In  In23  1  0.15708702  0.65859491  0.86683396  1
  In  In24  1  0.50613971  -0.00953796  0.38101138  1
  In  In25  1  0.49833356  -0.00857955  0.87436516  1
  In  In26  1  0.49031233  0.34068561  0.37879069  1
  In  In27  1  0.51205904  0.33037401  0.87432200  1
  In  In28  1  0.49736559  0.66992441  0.38087880  1
  In  In29  1  0.49143041  0.67439684  0.87900151  1
  In  In30  1  0.82067598  -0.00680055  0.37108563  1
  In  In31  1  0.81951122  -0.00116896  0.87421312  1
  In  In32  1  0.84785975  0.34070440  0.36881451  1
  In  In33  1  0.83550881  0.33831896  0.86413828  1
  In  In34  1  0.84608990  0.66212254  0.38653713  1
  In  In35  1  0.84795488  0.66645021  0.87643927  1
  In  In36  1  0.00585304  0.17794928  0.37142750  1
  In  In37  1  0.00730891  0.17889495  0.87220003  1
  In  In38  1  -0.00392276  0.50670180  0.37416279  1
  In  In39  1  0.00392858  0.50797527  0.87039904  1
  In  In40  1  0.00288804  0.82448853  0.38537766  1
  In  In41  1  0.00308830  0.81660296  0.87671870  1
  In  In42  1  0.32631380  0.17756673  0.37829295  1
  In  In43  1  0.32237334  0.15901508  0.88007883  1
  In  In44  1  0.34021327  0.50415515  0.36837861  1
  In  In45  1  0.32323345  0.50757396  0.87995861  1
  In  In46  1  0.33917722  0.82736145  0.37708456  1
  In  In47  1  0.34649341  0.83775225  0.87684751  1
  In  In48  1  0.66511099  0.15069343  0.37175991  1
  In  In49  1  0.66211570  0.16691372  0.86131075  1
  In  In50  1  0.66655169  0.50041934  0.38425524  1
  In  In51  1  0.66745236  0.48918586  0.87497416  1
  In  In52  1  0.66336669  0.83474584  0.38376348  1
  In  In53  1  0.65830612  0.84214119  0.87847287  1
  In  In54  1  0.16981557  0.01036699  0.12017200  1
  In  In55  1  0.17063148  0.00143417  0.61660263  1
  In  In56  1  0.16368426  0.33746564  0.12747479  1
  In  In57  1  0.16161670  0.31592400  0.62693964  1
  In  In58  1  0.17691882  0.65691807  0.13443361  1
  In  In59  1  0.15845881  0.67172297  0.63090747  1
  In  In60  1  0.51481953  0.00507054  0.13017490  1
  In  In61  1  0.50433433  0.00768479  0.61891860  1
  In  In62  1  0.47461595  0.33014960  0.12834263  1
  In  In63  1  0.50987870  0.34067914  0.61666787  1
  In  In64  1  0.49048832  0.65753959  0.11897411  1
  In  In65  1  0.49047046  0.65699094  0.61985315  1
  In  In66  1  0.82831937  -0.02217775  0.12949990  1
  In  In67  1  0.83279498  -0.01594891  0.62513889  1
  In  In68  1  0.84937223  0.34318151  0.13019900  1
  In  In69  1  0.83048532  0.34121276  0.62691091  1
  In  In70  1  0.83334380  0.68019735  0.13265299  1
  In  In71  1  0.84720850  0.67139375  0.61133386  1
  In  In72  1  0.83387739  0.50704177  0.00264756  1
  In  In73  1  0.66981442  0.66684817  0.74461485  1
  In  In74  1  0.16573525  0.50060056  0.49434350  1
  In  In75  1  0.33384140  -0.00105750  0.75049425  1
  In  In76  1  0.16832519  0.83325865  0.00129116  1
  In  In77  1  0.67131191  0.66720563  0.25409068  1
  In  In78  1  0.49121334  0.16450225  0.00068137  1
  In  In79  1  0.83585998  0.16513557  0.49156058  1
  In  In80  1  0.33423065  0.33456286  0.75193181  1
  In  In81  1  -0.00038795  -0.00225380  0.74680615  1
  In  In82  1  -0.00072330  0.00025759  0.25370718  1
  In  In83  1  0.33808843  0.00424192  0.24702438  1
  In  In84  1  0.82913795  0.16207455  -0.00537986  1
  In  In85  1  0.66783248  0.33187727  0.25352544  1
  Cu  Cu86  1  0.66597969  -0.00024240  0.50126587  1
  Cu  Cu87  1  0.33717369  -0.00177097  0.49432945  1
  Cu  Cu88  1  0.66397281  0.32756756  0.49809908  1
  Cu  Cu89  1  0.83585211  0.49857942  0.74733644  1
  Cu  Cu90  1  0.00293269  0.66436296  0.00186823  1
  Cu  Cu91  1  0.83225490  0.16796050  0.74754751  1
  Cu  Cu92  1  0.32721279  0.34389652  0.00403845  1
  Cu  Cu93  1  0.33479163  0.33148286  0.50278346  1
  Cu  Cu94  1  0.00805509  0.33509403  0.00052698  1
  Cu  Cu95  1  0.16383986  0.49750344  0.75191595  1
  Cu  Cu96  1  0.50026325  0.83432076  0.75130989  1
  Cu  Cu97  1  0.50406916  0.82769821  0.25663821  1
  Cu  Cu98  1  0.83333757  0.16435057  0.25065272  1
  Cu  Cu99  1  0.16909815  0.49840465  0.25356253  1
  Cu  Cu100  1  0.00344099  -0.00198548  0.50109878  1
  Cu  Cu101  1  0.33378426  0.66493802  0.49642998  1
  Cu  Cu102  1  0.65964353  0.67634842  0.00086870  1
  Cu  Cu103  1  0.33191686  0.66347645  0.00048703  1
  Cu  Cu104  1  0.83377301  0.82894499  0.74413796  1
  Cu  Cu105  1  0.50357632  0.17054380  0.74235738  1
  Cu  Cu106  1  0.00328585  0.33638163  0.49352963  1
  Cu  Cu107  1  0.49470090  0.49606493  0.24683463  1
  Cu  Cu108  1  0.66689660  -0.00687949  0.00206188  1
  Cu  Cu109  1  -0.00247572  0.00118004  0.00753735  1
  Cu  Cu110  1  0.50274159  0.50161073  0.74469791  1
  Cu  Cu111  1  0.66381579  0.66934920  0.50263934  1
  Cu  Cu112  1  0.66162107  0.33399783  -0.00227442  1
  Cu  Cu113  1  0.16294004  0.83203540  0.25188681  1
  Cu  Cu114  1  0.16373149  0.82751987  0.74534511  1
  Se  Se115  1  0.08307070  0.08844685  0.05180299  1
  Se  Se116  1  0.08469612  0.08601680  0.55110212  1
  Se  Se117  1  0.08211915  0.42295649  0.05682521  1
  Se  Se118  1  0.08092256  0.41138264  0.56020024  1
  Se  Se119  1  0.08145787  0.74480488  0.06444908  1
  Se  Se120  1  0.10265691  0.75585488  0.55127757  1
  Se  Se121  1  0.40994304  0.07890355  0.06836284  1
  Se  Se122  1  0.41835376  0.08391862  0.54865190  1
  Se  Se123  1  0.41728891  0.42235799  0.05453845  1
  Se  Se124  1  0.41843066  0.41888054  0.55113110  1
  Se  Se125  1  0.41431709  0.74964856  0.05141548  1
  Se  Se126  1  0.41601460  0.74834502  0.55220202  1
  Se  Se127  1  0.74192494  0.07889483  0.06247846  1
  Se  Se128  1  0.74961215  0.08122017  0.55955153  1
  Se  Se129  1  0.74553723  0.40799050  0.05951782  1
  Se  Se130  1  0.74940678  0.41079582  0.55018181  1
  Se  Se131  1  0.74886592  0.74862541  0.05710922  1
  Se  Se132  1  0.75015030  0.75255427  0.55340429  1
  Se  Se133  1  0.25037709  0.25585383  0.05826980  1
  Se  Se134  1  0.24718882  0.24868548  0.55221190  1
  Se  Se135  1  0.24569086  0.58337684  0.05371439  1
  Se  Se136  1  0.25547899  0.58508533  0.55944557  1
  Se  Se137  1  0.26031839  0.92050216  0.06059935  1
  Se  Se138  1  0.25190251  0.91725875  0.54950207  1
  Se  Se139  1  0.58383321  0.25556539  0.06033746  1
  Se  Se140  1  0.58127046  0.24395383  0.55086509  1
  Se  Se141  1  0.57956927  0.58408346  0.04754056  1
  Se  Se142  1  0.58050046  0.58143956  0.55229411  1
  Se  Se143  1  0.57866585  0.91583660  0.05538298  1
  Se  Se144  1  0.58320131  0.91525485  0.55470095  1
  Se  Se145  1  0.91949909  0.25440587  0.05412463  1
  Se  Se146  1  0.92239538  0.25435556  0.55509895  1
  Se  Se147  1  0.92410617  0.58816016  0.06686976  1
  Se  Se148  1  0.91428215  0.57151136  0.54801631  1
  Se  Se149  1  0.91395089  0.91330364  0.05322888  1
  Se  Se150  1  0.91618293  0.91597112  0.55066420  1
  Se  Se151  1  0.08804003  0.24980186  0.44601259  1
  Se  Se152  1  0.08856140  0.24847713  0.94811028  1
  Se  Se153  1  0.07362360  0.59707047  0.44600250  1
  Se  Se154  1  0.08362904  0.58308082  0.94550787  1
  Se  Se155  1  0.08759304  0.91565074  0.44706897  1
  Se  Se156  1  0.07523241  0.92304562  0.94081195  1
  Se  Se157  1  0.41833326  0.24889131  0.44843559  1
  Se  Se158  1  0.40532845  0.26235658  0.94041409  1
  Se  Se159  1  0.41704123  0.57846382  0.44558327  1
  Se  Se160  1  0.41681653  0.58219712  0.94567598  1
  Se  Se161  1  0.42009477  0.90887885  0.44768160  1
  Se  Se162  1  0.40663775  0.93277389  0.94638950  1
  Se  Se163  1  0.74596030  0.25663967  0.43225687  1
  Se  Se164  1  0.74147222  0.25777898  0.93600997  1
  Se  Se165  1  0.74810242  0.58633140  0.44961081  1
  Se  Se166  1  0.74075017  0.59452278  0.93995436  1
  Se  Se167  1  0.75207010  0.91732581  0.45040846  1
  Se  Se168  1  0.75218994  0.91252031  0.94817733  1
  Se  Se169  1  0.25145185  0.08468455  0.44564423  1
  Se  Se170  1  0.25311871  0.08401733  0.95754643  1
  Se  Se171  1  0.25744335  0.40945251  0.43773616  1
  Se  Se172  1  0.24275062  0.42389392  0.94873410  1
  Se  Se173  1  0.25016572  0.74784936  0.44349498  1
  Se  Se174  1  0.25246488  0.74298788  0.93667833  1
  Se  Se175  1  0.58342380  0.08313671  0.44842278  1
  Se  Se176  1  0.59285160  0.08157025  0.94169799  1
  Se  Se177  1  0.58072833  0.41522909  0.44764700  1
  Se  Se178  1  0.57888563  0.41997327  0.94756138  1
  Se  Se179  1  0.57856479  0.75186934  0.45040025  1
  Se  Se180  1  0.57619817  0.75777420  0.94550887  1
  Se  Se181  1  0.92688332  0.07341765  0.43326812  1
  Se  Se182  1  0.92487841  0.07574691  0.93628246  1
  Se  Se183  1  0.91715679  0.42049116  0.44565225  1
  Se  Se184  1  0.92042329  0.41223515  0.94199775  1
  Se  Se185  1  0.90860246  0.75975848  0.45497318  1
  Se  Se186  1  0.91747120  0.74935740  0.95223866  1
  Se  Se187  1  0.26024500  0.25635476  0.29961032  1
  Se  Se188  1  0.24320531  0.24243329  0.80752275  1
  Se  Se189  1  0.25219818  0.58557548  0.30349636  1
  Se  Se190  1  0.25020502  0.58204297  0.80126740  1
  Se  Se191  1  0.24578955  0.91439297  0.30833651  1
  Se  Se192  1  0.23971689  0.90743340  0.80895496  1
  Se  Se193  1  0.57758598  0.24614502  0.31336777  1
  Se  Se194  1  0.58483773  0.25745772  0.79511655  1
  Se  Se195  1  0.57566635  0.57365876  0.30829670  1
  Se  Se196  1  0.58059989  0.58133852  0.80902324  1
  Se  Se197  1  0.58630050  0.91250036  0.30742795  1
  Se  Se198  1  0.58360284  0.91986244  0.80153205  1
  Se  Se199  1  0.91796050  0.24872969  0.29968051  1
  Se  Se200  1  0.91694256  0.24792813  0.80179715  1
  Se  Se201  1  0.91635085  0.59167873  0.30576317  1
  Se  Se202  1  0.91647189  0.58491812  0.80066234  1
  Se  Se203  1  0.91397669  0.90666428  0.31076657  1
  Se  Se204  1  0.91212687  0.90735442  0.80977609  1
  Se  Se205  1  0.09528614  0.09376270  0.30327606  1
  Se  Se206  1  0.09136340  0.08290328  0.80884002  1
  Se  Se207  1  0.08399848  0.42133873  0.31054357  1
  Se  Se208  1  0.08255721  0.41469053  0.80694029  1
  Se  Se209  1  0.08118566  0.75154911  0.30774080  1
  Se  Se210  1  0.07746589  0.74564343  0.79816056  1
  Se  Se211  1  0.41969868  0.08370591  0.31799761  1
  Se  Se212  1  0.42434408  0.09584988  0.80779178  1
  Se  Se213  1  0.41309421  0.41136250  0.29986871  1
  Se  Se214  1  0.42448195  0.42518988  0.81086981  1
  Se  Se215  1  0.41731298  0.74432731  0.30514974  1
  Se  Se216  1  0.41532374  0.75193654  0.80276246  1
  Se  Se217  1  0.74912216  0.07860472  0.29817507  1
  Se  Se218  1  0.75023998  0.08177062  0.79917655  1
  Se  Se219  1  0.75445401  0.42939103  0.30789958  1
  Se  Se220  1  0.74699688  0.41865616  0.79851128  1
  Se  Se221  1  0.75554125  0.75237737  0.31834126  1
  Se  Se222  1  0.75530453  0.75394709  0.81079582  1
  Se  Se223  1  0.24194153  0.09611406  0.19446257  1
  Se  Se224  1  0.24168057  0.08987898  0.69378013  1
  Se  Se225  1  0.25107023  0.41757616  0.19581792  1
  Se  Se226  1  0.24341053  0.42099526  0.68820484  1
  Se  Se227  1  0.25120254  0.74751277  0.20373568  1
  Se  Se228  1  0.25397071  0.74618695  0.69682538  1
  Se  Se229  1  0.58365413  0.07634489  0.21026399  1
  Se  Se230  1  0.58558332  0.08094394  0.69415963  1
  Se  Se231  1  0.57963650  0.42003820  0.18702825  1
  Se  Se232  1  0.58555041  0.41778228  0.69286958  1
  Se  Se233  1  0.57718577  0.74759813  0.18954282  1
  Se  Se234  1  0.57587631  0.75486821  0.68676966  1
  Se  Se235  1  0.91108732  0.08611822  0.18546839  1
  Se  Se236  1  0.91123307  0.08944399  0.68488041  1
  Se  Se237  1  0.91250074  0.42180492  0.20750017  1
  Se  Se238  1  0.92076948  0.41306964  0.69680301  1
  Se  Se239  1  0.92096276  0.74827654  0.20416073  1
  Se  Se240  1  0.91819886  0.74911966  0.68996030  1
  Se  Se241  1  0.07140390  0.26724936  0.19760256  1
  Se  Se242  1  0.07930832  0.25115465  0.70356094  1
  Se  Se243  1  0.08489072  0.58457809  0.20211515  1
  Se  Se244  1  0.08122954  0.58115851  0.69663470  1
  Se  Se245  1  0.09150013  0.91436955  0.18786852  1
  Se  Se246  1  0.08711839  0.90936724  0.68422988  1
  Se  Se247  1  0.43473885  0.23509910  0.20474183  1
  Se  Se248  1  0.41853485  0.24711135  0.68454051  1
  Se  Se249  1  0.41324401  0.58399707  0.19528557  1
  Se  Se250  1  0.41443454  0.58653237  0.69979000  1
  Se  Se251  1  0.42461685  0.90494318  0.19143420  1
  Se  Se252  1  0.41996983  0.91124598  0.68673305  1
  Se  Se253  1  0.75548115  0.24374227  0.18624195  1
  Se  Se254  1  0.75054565  0.25361492  0.69437852  1
  Se  Se255  1  0.75757101  0.57373427  0.19266550  1
  Se  Se256  1  0.75909997  0.57879003  0.68381584  1
  Se  Se257  1  0.74583152  0.90829321  0.20210670  1
  Se  Se258  1  0.74745296  0.91724058  0.70059968  1
