# generated using pymatgen
data_In86Cu29Se144
_symmetry_space_group_name_H-M   'P 1'
_cell_length_a   17.57390062
_cell_length_b   17.57574075
_cell_length_c   23.43544115
_cell_angle_alpha   90.02942081
_cell_angle_beta   90.00989388
_cell_angle_gamma   89.99389595
_symmetry_Int_Tables_number   1
_chemical_formula_structural   In86Cu29Se144
_chemical_formula_sum   'In86 Cu29 Se144'
_cell_volume   7238.60487450
_cell_formula_units_Z   1
loop_
 _symmetry_equiv_pos_site_id
 _symmetry_equiv_pos_as_xyz
  1  'x, y, z'
loop_
 _atom_site_type_symbol
 _atom_site_label
 _atom_site_symmetry_multiplicity
 _atom_site_fract_x
 _atom_site_fract_y
 _atom_site_fract_z
 _atom_site_occupancy
  In  In0  1  -0.00088064  0.13953095  0.13141946  1
  In  In1  1  -0.01005775  0.16205939  0.61866291  1
  In  In2  1  -0.00164359  0.51639937  0.12336838  1
  In  In3  1  0.01295667  0.49886474  0.62359719  1
  In  In4  1  -0.00403818  0.83809026  0.12549053  1
  In  In5  1  -0.00780612  0.84369768  0.63128304  1
  In  In6  1  0.32099007  0.16756166  0.12488079  1
  In  In7  1  0.32591334  0.16054179  0.61653263  1
  In  In8  1  0.34595386  0.50649045  0.11782632  1
  In  In9  1  0.32650473  0.51283654  0.62683983  1
  In  In10  1  0.31264544  0.85166877  0.14554933  1
  In  In11  1  0.33548760  0.81978784  0.62229657  1
  In  In12  1  0.66809091  0.16389324  0.13506304  1
  In  In13  1  0.68441966  0.18178415  0.60472467  1
  In  In14  1  0.67299447  0.51494461  0.11397647  1
  In  In15  1  0.67274210  0.49979033  0.63441970  1
  In  In16  1  0.67399192  0.83261872  0.12636389  1
  In  In17  1  0.66478276  0.82977340  0.61847086  1
  In  In18  1  0.17350878  -0.00136350  0.36302112  1
  In  In19  1  0.15470596  0.00636095  0.88419816  1
  In  In20  1  0.16414945  0.32886137  0.39275770  1
  In  In21  1  0.15435320  0.32141518  0.87347620  1
  In  In22  1  0.16380634  0.66883146  0.36431328  1
  In  In23  1  0.17510669  0.67206443  0.87155154  1
  In  In24  1  0.49717502  -0.00613689  0.37446015  1
  In  In25  1  0.50648506  0.00859168  0.87588319  1
  In  In26  1  0.49446061  0.32947482  0.38172223  1
  In  In27  1  0.51763978  0.33372858  0.86900178  1
  In  In28  1  0.51409242  0.67429405  0.36609291  1
  In  In29  1  0.49069308  0.65821309  0.87148717  1
  In  In30  1  0.83116584  -0.00174262  0.37182674  1
  In  In31  1  0.82844387  -0.01933093  0.87798591  1
  In  In32  1  0.83224982  0.31752691  0.38654311  1
  In  In33  1  0.83435862  0.34775747  0.87581723  1
  In  In34  1  0.83905475  0.67781067  0.36937764  1
  In  In35  1  0.83317308  0.66952677  0.87445337  1
  In  In36  1  0.00616691  0.15807813  0.38082030  1
  In  In37  1  0.01094846  0.16298465  0.87160998  1
  In  In38  1  -0.00237191  0.51774975  0.37490440  1
  In  In39  1  -0.01650845  0.49931226  0.87701987  1
  In  In40  1  -0.00237131  0.82320826  0.36342250  1
  In  In41  1  0.00152038  0.83198898  0.87659612  1
  In  In42  1  0.33518978  0.15852906  0.38279537  1
  In  In43  1  0.32572650  0.15241627  0.87360648  1
  In  In44  1  0.32729927  0.49509336  0.37506477  1
  In  In45  1  0.32935691  0.51742991  0.87708444  1
  In  In46  1  0.33802471  0.84103692  0.36092107  1
  In  In47  1  0.33538192  0.81877664  0.87808772  1
  In  In48  1  0.68647992  0.14138842  0.39588280  1
  In  In49  1  0.66293920  0.16621564  0.87015901  1
  In  In50  1  0.66179084  0.50222267  0.37451584  1
  In  In51  1  0.66585199  0.50332085  0.87355144  1
  In  In52  1  0.66754188  0.83305196  0.37307307  1
  In  In53  1  0.68876768  0.83747896  0.87953286  1
  In  In54  1  0.16393159  -0.00205968  0.12578221  1
  In  In55  1  0.14865010  0.00133553  0.62742526  1
  In  In56  1  0.17929973  0.32658267  0.12324210  1
  In  In57  1  0.14228500  0.32468765  0.60358985  1
  In  In58  1  0.14095401  0.69753515  0.15113521  1
  In  In59  1  0.16987375  0.66471479  0.62979616  1
  In  In60  1  0.50421561  -0.00577146  0.13470559  1
  In  In61  1  0.50288732  0.00210499  0.61243632  1
  In  In62  1  0.48876333  0.33695700  0.12126687  1
  In  In63  1  0.51985341  0.33098144  0.62407496  1
  In  In64  1  0.50561348  0.66930051  0.12582588  1
  In  In65  1  0.49767000  0.66928927  0.62758591  1
  In  In66  1  0.84317443  -0.00428360  0.13467864  1
  In  In67  1  0.84617109  0.00843672  0.61835531  1
  In  In68  1  0.82217139  0.33909934  0.12314053  1
  In  In69  1  0.82928471  0.31942759  0.62358427  1
  In  In70  1  0.83143794  0.67065619  0.12262767  1
  In  In71  1  0.82673134  0.67697203  0.63020550  1
  In  In72  1  0.16647461  0.50541313  0.00203442  1
  In  In73  1  0.83856834  0.16612766  0.00542764  1
  In  In74  1  0.50008771  0.82823877  0.00540434  1
  In  In75  1  0.16886410  0.83826009  0.49566911  1
  In  In76  1  0.49679152  0.49879577  0.50311932  1
  In  In77  1  0.67216534  0.00051358  0.74917255  1
  In  In78  1  0.84125718  0.49618501  0.50769149  1
  In  In79  1  0.33487935  0.33069560  0.25426471  1
  In  In80  1  0.50064943  0.16908233  -0.00626143  1
  In  In81  1  -0.00747232  0.33313636  0.74351153  1
  In  In82  1  0.32900250  0.33938200  0.74645489  1
  In  In83  1  0.32599607  -0.00996957  0.74038290  1
  In  In84  1  0.00174337  0.33490017  0.26073847  1
  In  In85  1  0.66648983  0.33176500  0.25746974  1
  Cu  Cu86  1  0.82940168  0.83200778  0.24868921  1
  Cu  Cu87  1  -0.00450959  0.67420827  0.00207633  1
  Cu  Cu88  1  0.83913620  0.83095651  0.75164648  1
  Cu  Cu89  1  0.66448498  -0.01004893  0.49559134  1
  Cu  Cu90  1  0.82831541  0.50757078  0.75374656  1
  Cu  Cu91  1  0.67258132  0.66972012  0.49749727  1
  Cu  Cu92  1  0.33123760  0.33288383  -0.00226034  1
  Cu  Cu93  1  0.66495302  0.66336705  -0.00243943  1
  Cu  Cu94  1  0.49971136  0.15639267  0.26020208  1
  Cu  Cu95  1  0.17213935  0.50760278  0.25203997  1
  Cu  Cu96  1  0.33058141  0.33056860  0.50264650  1
  Cu  Cu97  1  0.50148198  0.50348923  0.74846946  1
  Cu  Cu98  1  0.50724678  0.82351011  0.74970770  1
  Cu  Cu99  1  0.50352628  0.83292286  0.24909750  1
  Cu  Cu100  1  -0.00586159  -0.00183292  0.49829073  1
  Cu  Cu101  1  0.66532191  0.34174018  -0.00155714  1
  Cu  Cu102  1  0.16538401  0.83020475  0.75215815  1
  Cu  Cu103  1  0.16477516  0.50382460  0.74739078  1
  Cu  Cu104  1  0.00145749  -0.00680007  0.00342339  1
  Cu  Cu105  1  0.32709983  0.67127969  0.00544017  1
  Cu  Cu106  1  0.83444880  0.50656087  0.24937081  1
  Cu  Cu107  1  0.00681353  0.67262891  0.49445832  1
  Cu  Cu108  1  0.32889301  -0.00349581  0.49117386  1
  Cu  Cu109  1  0.51300950  0.50654225  0.24433293  1
  Cu  Cu110  1  0.50399805  0.16745435  0.74290099  1
  Cu  Cu111  1  0.33148368  -0.00413718  0.00538562  1
  Cu  Cu112  1  0.16389850  0.16137466  0.25057302  1
  Cu  Cu113  1  0.00048837  0.32895023  -0.00153267  1
  Cu  Cu114  1  0.33591934  0.66853146  0.50036351  1
  Se  Se115  1  0.08428252  0.08182705  0.05320467  1
  Se  Se116  1  0.07907057  0.08104463  0.55101882  1
  Se  Se117  1  0.07866858  0.41017097  0.06238974  1
  Se  Se118  1  0.08690875  0.43360656  0.54356336  1
  Se  Se119  1  0.08191697  0.75107168  0.05845135  1
  Se  Se120  1  0.08146122  0.75216537  0.56049110  1
  Se  Se121  1  0.41533214  0.07955023  0.06047148  1
  Se  Se122  1  0.41030257  0.07979891  0.54870541  1
  Se  Se123  1  0.41681402  0.41730883  0.04615496  1
  Se  Se124  1  0.40846072  0.40943572  0.56632885  1
  Se  Se125  1  0.40312808  0.75338821  0.06781618  1
  Se  Se126  1  0.42351175  0.74909462  0.55107919  1
  Se  Se127  1  0.74754786  0.07926477  0.06457070  1
  Se  Se128  1  0.74983249  0.07329645  0.54861146  1
  Se  Se129  1  0.75277103  0.42282271  0.04956040  1
  Se  Se130  1  0.73940462  0.41055577  0.55846266  1
  Se  Se131  1  0.74553163  0.74884934  0.05176642  1
  Se  Se132  1  0.75625817  0.75264036  0.55082033  1
  Se  Se133  1  0.24950808  0.24592063  0.04718108  1
  Se  Se134  1  0.24321295  0.24422770  0.54893746  1
  Se  Se135  1  0.24489948  0.59518205  0.06753345  1
  Se  Se136  1  0.24813508  0.58964282  0.55258921  1
  Se  Se137  1  0.24812488  0.91264264  0.05750299  1
  Se  Se138  1  0.25537172  0.92472855  0.56349738  1
  Se  Se139  1  0.59115118  0.25642666  0.05965883  1
  Se  Se140  1  0.56839011  0.23563856  0.55040567  1
  Se  Se141  1  0.57482667  0.58498369  0.04918912  1
  Se  Se142  1  0.59434213  0.58747370  0.55839174  1
  Se  Se143  1  0.58880513  0.92514133  0.05794845  1
  Se  Se144  1  0.57939365  0.90841803  0.54903659  1
  Se  Se145  1  0.92790563  0.25446031  0.06874469  1
  Se  Se146  1  0.93225197  0.26898740  0.55603075  1
  Se  Se147  1  0.91262766  0.58592899  0.05111562  1
  Se  Se148  1  0.92643242  0.59799577  0.56058254  1
  Se  Se149  1  0.91033517  0.91733625  0.05500777  1
  Se  Se150  1  0.91495296  0.91057924  0.55141654  1
  Se  Se151  1  0.07216945  0.24992279  0.45215031  1
  Se  Se152  1  0.08305396  0.24272326  0.94947656  1
  Se  Se153  1  0.09047577  0.59036442  0.44206107  1
  Se  Se154  1  0.07437963  0.59087817  0.94032262  1
  Se  Se155  1  0.07500168  0.92138905  0.43525101  1
  Se  Se156  1  0.08527146  0.91017978  0.94966865  1
  Se  Se157  1  0.41373649  0.24733987  0.44986056  1
  Se  Se158  1  0.40924961  0.25741611  0.93145047  1
  Se  Se159  1  0.41610244  0.58975314  0.43770596  1
  Se  Se160  1  0.41149173  0.58952713  0.95125729  1
  Se  Se161  1  0.41188651  0.90907409  0.44254841  1
  Se  Se162  1  0.41378742  0.92463816  0.94100431  1
  Se  Se163  1  0.73794444  0.25491064  0.45433190  1
  Se  Se164  1  0.74488958  0.25458084  0.94255665  1
  Se  Se165  1  0.75311736  0.58511390  0.44156542  1
  Se  Se166  1  0.75097010  0.58337811  0.94262786  1
  Se  Se167  1  0.75313346  0.91132942  0.44284784  1
  Se  Se168  1  0.75139071  0.91754001  0.95768159  1
  Se  Se169  1  0.23933399  0.07834347  0.44335054  1
  Se  Se170  1  0.24990173  0.08118346  0.95068002  1
  Se  Se171  1  0.25263440  0.41972569  0.45084739  1
  Se  Se172  1  0.24932147  0.41130095  0.93618850  1
  Se  Se173  1  0.25810483  0.74729624  0.43680446  1
  Se  Se174  1  0.24464182  0.75205721  0.94977827  1
  Se  Se175  1  0.57494505  0.07538026  0.44853449  1
  Se  Se176  1  0.60095160  0.07416412  0.94816274  1
  Se  Se177  1  0.59143991  0.40989609  0.44601253  1
  Se  Se178  1  0.57999151  0.42101206  0.94394340  1
  Se  Se179  1  0.58518840  0.74931807  0.44471677  1
  Se  Se180  1  0.58632706  0.74594410  0.93655379  1
  Se  Se181  1  0.91062024  0.08191940  0.44481925  1
  Se  Se182  1  0.92317512  0.07591638  0.94136143  1
  Se  Se183  1  0.92696970  0.41385258  0.43904430  1
  Se  Se184  1  0.91515107  0.41636563  0.95309723  1
  Se  Se185  1  0.92017960  0.75346532  0.44309841  1
  Se  Se186  1  0.91236158  0.75402106  0.94512450  1
  Se  Se187  1  0.23947105  0.24563108  0.31254089  1
  Se  Se188  1  0.24358147  0.24155540  0.80449513  1
  Se  Se189  1  0.26012637  0.58557657  0.30440953  1
  Se  Se190  1  0.25087635  0.58557383  0.79959540  1
  Se  Se191  1  0.23731238  0.90209592  0.29555245  1
  Se  Se192  1  0.24643607  0.90960385  0.81368364  1
  Se  Se193  1  0.57837908  0.24104793  0.31655556  1
  Se  Se194  1  0.58880550  0.24845608  0.79647283  1
  Se  Se195  1  0.59642998  0.58670669  0.29912881  1
  Se  Se196  1  0.58349431  0.58668948  0.80365278  1
  Se  Se197  1  0.58433227  0.91709094  0.30472081  1
  Se  Se198  1  0.57987231  0.90913013  0.81095210  1
  Se  Se199  1  0.91014645  0.23970082  0.31109762  1
  Se  Se200  1  0.91048396  0.24737191  0.81233732  1
  Se  Se201  1  0.91951534  0.59143562  0.30003244  1
  Se  Se202  1  0.91762599  0.58702087  0.80390405  1
  Se  Se203  1  0.91377615  0.91429304  0.30238895  1
  Se  Se204  1  0.91941357  0.91592961  0.80581085  1
  Se  Se205  1  0.07804550  0.08077611  0.30306132  1
  Se  Se206  1  0.08857700  0.07921279  0.80332070  1
  Se  Se207  1  0.09812749  0.42472717  0.31494740  1
  Se  Se208  1  0.08510624  0.42371826  0.80820451  1
  Se  Se209  1  0.09138183  0.75587408  0.29467834  1
  Se  Se210  1  0.08218471  0.74695593  0.80616063  1
  Se  Se211  1  0.40785705  0.07770092  0.30805014  1
  Se  Se212  1  0.42284817  0.08491247  0.79971964  1
  Se  Se213  1  0.43257953  0.42601746  0.30556055  1
  Se  Se214  1  0.41933259  0.42509189  0.81054883  1
  Se  Se215  1  0.42051786  0.74674273  0.29999435  1
  Se  Se216  1  0.41544219  0.74809543  0.80189364  1
  Se  Se217  1  0.74431045  0.08343588  0.30688291  1
  Se  Se218  1  0.76319253  0.08718757  0.81113378  1
  Se  Se219  1  0.76477060  0.42203582  0.31366928  1
  Se  Se220  1  0.74777831  0.41778018  0.80357657  1
  Se  Se221  1  0.74552713  0.74728654  0.30129189  1
  Se  Se222  1  0.74995234  0.75153316  0.80296894  1
  Se  Se223  1  0.25004035  0.08209534  0.19600738  1
  Se  Se224  1  0.23791633  0.09156305  0.69307499  1
  Se  Se225  1  0.24940703  0.42498571  0.19149350  1
  Se  Se226  1  0.23306253  0.41768490  0.68346507  1
  Se  Se227  1  0.27115821  0.72767019  0.19476218  1
  Se  Se228  1  0.25200520  0.75131113  0.69736894  1
  Se  Se229  1  0.58502844  0.08144538  0.20161201  1
  Se  Se230  1  0.58381546  0.08564393  0.68449388  1
  Se  Se231  1  0.58501003  0.41768914  0.18548989  1
  Se  Se232  1  0.58504543  0.41682723  0.69953179  1
  Se  Se233  1  0.58757451  0.75172630  0.19414881  1
  Se  Se234  1  0.59098594  0.74629580  0.69270688  1
  Se  Se235  1  0.90979992  0.08677225  0.20659841  1
  Se  Se236  1  0.91737216  0.08439839  0.69456560  1
  Se  Se237  1  0.91406296  0.42170486  0.19216404  1
  Se  Se238  1  0.90434714  0.42955652  0.68699774  1
  Se  Se239  1  0.91367857  0.75043033  0.19328308  1
  Se  Se240  1  0.92193797  0.74726847  0.69771280  1
  Se  Se241  1  0.08808025  0.24791936  0.19179813  1
  Se  Se242  1  0.08747719  0.24503347  0.68912684  1
  Se  Se243  1  0.07836702  0.58159149  0.20170956  1
  Se  Se244  1  0.07898125  0.58772265  0.69727843  1
  Se  Se245  1  0.07882608  0.91993629  0.19383827  1
  Se  Se246  1  0.08177608  0.91615530  0.70198360  1
  Se  Se247  1  0.42589924  0.23800204  0.19458446  1
  Se  Se248  1  0.41703258  0.24492547  0.68693881  1
  Se  Se249  1  0.42202112  0.58252386  0.19318840  1
  Se  Se250  1  0.41558469  0.58498237  0.69611263  1
  Se  Se251  1  0.41614464  0.92204108  0.20447332  1
  Se  Se252  1  0.43065879  0.90717499  0.68872600  1
  Se  Se253  1  0.76268322  0.24562579  0.19875212  1
  Se  Se254  1  0.74704156  0.24196966  0.69288245  1
  Se  Se255  1  0.74997750  0.58408981  0.19265706  1
  Se  Se256  1  0.74658904  0.59234756  0.69979111  1
  Se  Se257  1  0.74684271  0.91930148  0.19814669  1
  Se  Se258  1  0.75971027  0.91046370  0.68801303  1
