# generated using pymatgen
data_In86Cu29Se144
_symmetry_space_group_name_H-M   'P 1'
_cell_length_a   17.57942279
_cell_length_b   17.58197680
_cell_length_c   23.44261979
_cell_angle_alpha   90.01657565
_cell_angle_beta   89.98986521
_cell_angle_gamma   89.97226623
_symmetry_Int_Tables_number   1
_chemical_formula_structural   In86Cu29Se144
_chemical_formula_sum   'In86 Cu29 Se144'
_cell_volume   7245.66718724
_cell_formula_units_Z   1
loop_
 _symmetry_equiv_pos_site_id
 _symmetry_equiv_pos_as_xyz
  1  'x, y, z'
loop_
 _atom_site_type_symbol
 _atom_site_label
 _atom_site_symmetry_multiplicity
 _atom_site_fract_x
 _atom_site_fract_y
 _atom_site_fract_z
 _atom_site_occupancy
  In  In0  1  0.00333828  0.18057436  0.10552860  1
  In  In1  1  0.00025656  0.16584733  0.62650491  1
  In  In2  1  0.02129614  0.50042489  0.12305377  1
  In  In3  1  -0.00291662  0.48213750  0.62611661  1
  In  In4  1  -0.00716863  0.82806030  0.13053850  1
  In  In5  1  0.00984878  0.84402190  0.61623117  1
  In  In6  1  0.33026394  0.17554712  0.13908919  1
  In  In7  1  0.31915460  0.16496456  0.62230232  1
  In  In8  1  0.32962056  0.50061877  0.12410561  1
  In  In9  1  0.33703649  0.50469163  0.61406996  1
  In  In10  1  0.36727400  0.81132515  0.15852944  1
  In  In11  1  0.34283940  0.84106501  0.61462260  1
  In  In12  1  0.68104510  0.17214834  0.12265674  1
  In  In13  1  0.66051593  0.15307360  0.62174303  1
  In  In14  1  0.65369332  0.51255205  0.13490325  1
  In  In15  1  0.66793492  0.50643391  0.61924119  1
  In  In16  1  0.65450837  0.83626488  0.13305943  1
  In  In17  1  0.67561728  0.83916285  0.60926444  1
  In  In18  1  0.17352677  -0.00583578  0.38524546  1
  In  In19  1  0.17011395  0.00783512  0.86938625  1
  In  In20  1  0.17543027  0.32552989  0.38120704  1
  In  In21  1  0.15267814  0.34002210  0.88587415  1
  In  In22  1  0.16958056  0.66980251  0.37374239  1
  In  In23  1  0.16441875  0.65846599  0.88459320  1
  In  In24  1  0.48204421  0.00258013  0.36584523  1
  In  In25  1  0.49158620  -0.01120077  0.86829253  1
  In  In26  1  0.51386875  0.34315152  0.36169782  1
  In  In27  1  0.50450254  0.34129703  0.88186469  1
  In  In28  1  0.49485285  0.67076298  0.36905023  1
  In  In29  1  0.49218981  0.67025297  0.89159664  1
  In  In30  1  0.83592629  -0.00195751  0.38574075  1
  In  In31  1  0.84342624  0.00481894  0.86072734  1
  In  In32  1  0.81828590  0.32936028  0.38119861  1
  In  In33  1  0.83035039  0.32193189  0.87385987  1
  In  In34  1  0.83635345  0.67964866  0.36087642  1
  In  In35  1  0.83666107  0.67285783  0.87902261  1
  In  In36  1  0.00059253  0.16533945  0.38613229  1
  In  In37  1  0.00111729  0.16749635  0.87203351  1
  In  In38  1  0.00290438  0.51524712  0.37510829  1
  In  In39  1  0.00927310  0.49990823  0.87323565  1
  In  In40  1  0.00033892  0.83389790  0.38038916  1
  In  In41  1  -0.00860972  0.83696505  0.87060884  1
  In  In42  1  0.33031782  0.16110432  0.36419030  1
  In  In43  1  0.32606230  0.15083735  0.87607698  1
  In  In44  1  0.33481357  0.50187818  0.37260505  1
  In  In45  1  0.33391998  0.49816771  0.88852852  1
  In  In46  1  0.33526942  0.83319774  0.37137322  1
  In  In47  1  0.32808976  0.83891851  0.87908865  1
  In  In48  1  0.66568809  0.18634582  0.37664002  1
  In  In49  1  0.67808007  0.16468218  0.87512410  1
  In  In50  1  0.65336805  0.48976185  0.37008683  1
  In  In51  1  0.65716928  0.49217950  0.88051106  1
  In  In52  1  0.67188863  0.82536407  0.37458507  1
  In  In53  1  0.65395645  0.83039238  0.87402240  1
  In  In54  1  0.17242869  0.01228113  0.12097153  1
  In  In55  1  0.16674565  0.00153233  0.62567556  1
  In  In56  1  0.17153678  0.34295624  0.11701043  1
  In  In57  1  0.15964165  0.32179413  0.61530369  1
  In  In58  1  0.18475635  0.65322139  0.13941993  1
  In  In59  1  0.16723025  0.66990946  0.61302142  1
  In  In60  1  0.49814943  -0.01515362  0.12727177  1
  In  In61  1  0.50898599  -0.00813260  0.62843228  1
  In  In62  1  0.48025364  0.34541008  0.14645250  1
  In  In63  1  0.49716473  0.33744837  0.61638520  1
  In  In64  1  0.49862096  0.66915609  0.12912775  1
  In  In65  1  0.50032072  0.66694876  0.60935488  1
  In  In66  1  0.82436473  0.01478274  0.12245926  1
  In  In67  1  0.83166617  0.00035890  0.62289027  1
  In  In68  1  0.83923482  0.32056571  0.12460552  1
  In  In69  1  0.85358343  0.34280566  0.62599053  1
  In  In70  1  0.83228198  0.67255835  0.14613816  1
  In  In71  1  0.82220914  0.66567065  0.61987277  1
  In  In72  1  0.67005463  0.32827142  0.75217794  1
  In  In73  1  0.66786890  -0.00344880  0.25302397  1
  In  In74  1  0.82857623  0.84085973  0.00204556  1
  In  In75  1  -0.00084751  -0.00202903  0.25439513  1
  In  In76  1  0.66630791  0.66802572  0.74186875  1
  In  In77  1  0.32898717  0.32733417  0.74712563  1
  In  In78  1  0.49890162  0.17097219  0.00410678  1
  In  In79  1  0.83246471  0.49828147  0.00167203  1
  In  In80  1  0.83440146  0.49972347  0.49891948  1
  In  In81  1  0.00158033  0.66670164  0.75267339  1
  In  In82  1  0.17538533  0.83091196  0.00472537  1
  In  In83  1  0.49877084  0.16786378  0.49189482  1
  In  In84  1  0.32961181  0.67097790  0.75555720  1
  In  In85  1  0.00122390  0.33741138  0.24481037  1
  Cu  Cu86  1  0.16590826  0.83895459  0.25990866  1
  Cu  Cu87  1  0.32764966  0.33016855  0.00818740  1
  Cu  Cu88  1  0.16023210  0.16413844  0.74774831  1
  Cu  Cu89  1  0.00734891  0.65817822  0.00915483  1
  Cu  Cu90  1  -0.00212290  0.00337837  0.50707847  1
  Cu  Cu91  1  0.66433265  0.00278284  0.00198098  1
  Cu  Cu92  1  0.50018142  0.50504088  0.75091722  1
  Cu  Cu93  1  0.66352529  0.66034788  0.48942473  1
  Cu  Cu94  1  0.17071766  0.84144115  0.74692057  1
  Cu  Cu95  1  0.33727445  -0.00602549  0.00133785  1
  Cu  Cu96  1  0.17192694  0.16767174  0.25106392  1
  Cu  Cu97  1  0.65886163  0.34024064  0.00516355  1
  Cu  Cu98  1  -0.00022217  0.00602241  -0.00822552  1
  Cu  Cu99  1  0.32953760  0.00274355  0.49674715  1
  Cu  Cu100  1  0.33790808  0.34122054  0.49434450  1
  Cu  Cu101  1  0.00639714  0.33156921  0.50181022  1
  Cu  Cu102  1  0.50138011  0.84199776  0.74527267  1
  Cu  Cu103  1  0.66197473  -0.00578946  0.49794121  1
  Cu  Cu104  1  0.00233144  0.67084433  0.49312795  1
  Cu  Cu105  1  0.83577332  0.16758871  0.24949611  1
  Cu  Cu106  1  0.65994718  0.67056370  0.00867490  1
  Cu  Cu107  1  0.49715804  0.15658584  0.74997972  1
  Cu  Cu108  1  0.33201101  0.66900214  0.48962287  1
  Cu  Cu109  1  0.83398880  0.83836127  0.74025562  1
  Cu  Cu110  1  0.82999322  0.49648260  0.25772426  1
  Cu  Cu111  1  0.49517217  0.50494759  0.25051910  1
  Cu  Cu112  1  0.83414794  0.16334460  0.74675957  1
  Cu  Cu113  1  0.16285834  0.49067604  0.74867030  1
  Cu  Cu114  1  0.17163013  0.50049496  0.25020558  1
  Se  Se115  1  0.08473857  0.08256429  0.04897445  1
  Se  Se116  1  0.08572366  0.08638452  0.55673581  1
  Se  Se117  1  0.05921227  0.39253013  0.05621191  1
  Se  Se118  1  0.08713945  0.42085022  0.55184614  1
  Se  Se119  1  0.08415737  0.74345864  0.06663364  1
  Se  Se120  1  0.08514257  0.75527367  0.54746538  1
  Se  Se121  1  0.41100797  0.07940021  0.06315085  1
  Se  Se122  1  0.41418662  0.07944496  0.55866074  1
  Se  Se123  1  0.41510121  0.41007534  0.06022925  1
  Se  Se124  1  0.42276366  0.42319021  0.54700530  1
  Se  Se125  1  0.41697855  0.75849833  0.06433639  1
  Se  Se126  1  0.41564163  0.75141585  0.54548841  1
  Se  Se127  1  0.75132134  0.09052706  0.04535764  1
  Se  Se128  1  0.74508525  0.07806821  0.55114607  1
  Se  Se129  1  0.74183479  0.41637613  0.06667780  1
  Se  Se130  1  0.74706688  0.40680523  0.55886285  1
  Se  Se131  1  0.74908329  0.74494850  0.06427245  1
  Se  Se132  1  0.74846267  0.74243885  0.54468374  1
  Se  Se133  1  0.25022299  0.24133373  0.05996053  1
  Se  Se134  1  0.25711304  0.25452540  0.54825114  1
  Se  Se135  1  0.23954272  0.57640527  0.05637255  1
  Se  Se136  1  0.25187766  0.58605326  0.54788458  1
  Se  Se137  1  0.26299501  0.91555085  0.06745294  1
  Se  Se138  1  0.24791604  0.91998744  0.55334901  1
  Se  Se139  1  0.58027201  0.26199754  0.06816564  1
  Se  Se140  1  0.59091934  0.25437162  0.55469199  1
  Se  Se141  1  0.57767112  0.58285856  0.05679406  1
  Se  Se142  1  0.58362216  0.57757991  0.54655105  1
  Se  Se143  1  0.58632627  0.91510379  0.05420200  1
  Se  Se144  1  0.57432219  0.91243157  0.54864937  1
  Se  Se145  1  0.90167263  0.24572920  0.04391903  1
  Se  Se146  1  0.92016184  0.25172707  0.55545975  1
  Se  Se147  1  0.91507255  0.59005951  0.06730676  1
  Se  Se148  1  0.92787191  0.58972132  0.55918234  1
  Se  Se149  1  0.92546812  0.92942629  0.05942277  1
  Se  Se150  1  0.91128065  0.91461320  0.55282660  1
  Se  Se151  1  0.08966122  0.24663132  0.44996022  1
  Se  Se152  1  0.09444620  0.23084810  0.94356339  1
  Se  Se153  1  0.08943885  0.58548666  0.44673165  1
  Se  Se154  1  0.08368401  0.57407854  0.95199351  1
  Se  Se155  1  0.07822525  0.92095655  0.44890010  1
  Se  Se156  1  0.07975143  0.91579992  0.94055931  1
  Se  Se157  1  0.41203716  0.25838775  0.43180889  1
  Se  Se158  1  0.40421677  0.25569041  0.93977196  1
  Se  Se159  1  0.41891379  0.58415441  0.44145840  1
  Se  Se160  1  0.42170809  0.57453908  0.95371087  1
  Se  Se161  1  0.41339951  0.92112172  0.44251736  1
  Se  Se162  1  0.41999307  0.91246666  0.94691175  1
  Se  Se163  1  0.76092259  0.23423865  0.45158998  1
  Se  Se164  1  0.73837767  0.25912312  0.94712782  1
  Se  Se165  1  0.75035736  0.58411962  0.43131775  1
  Se  Se166  1  0.73963655  0.59472956  0.94380928  1
  Se  Se167  1  0.74796834  0.91089072  0.44633481  1
  Se  Se168  1  0.74353247  0.92584522  0.93561925  1
  Se  Se169  1  0.25262106  0.09260085  0.44425803  1
  Se  Se170  1  0.24826426  0.07410952  0.95032951  1
  Se  Se171  1  0.24933829  0.42281033  0.44409525  1
  Se  Se172  1  0.24664475  0.41388999  0.95147153  1
  Se  Se173  1  0.24777538  0.75748160  0.44282811  1
  Se  Se174  1  0.26372235  0.73465624  0.94620740  1
  Se  Se175  1  0.58786157  0.07434810  0.43295170  1
  Se  Se176  1  0.58254628  0.07977268  0.93914640  1
  Se  Se177  1  0.58821768  0.40380245  0.44462149  1
  Se  Se178  1  0.57374126  0.42513002  0.95638788  1
  Se  Se179  1  0.58025334  0.74869925  0.44127060  1
  Se  Se180  1  0.58216918  0.75616904  0.95220540  1
  Se  Se181  1  0.91418531  0.08563494  0.45293549  1
  Se  Se182  1  0.91179514  0.08328698  0.93867022  1
  Se  Se183  1  0.92701666  0.40989204  0.43789581  1
  Se  Se184  1  0.91901536  0.41192473  0.93845802  1
  Se  Se185  1  0.91090252  0.74763330  0.44281919  1
  Se  Se186  1  0.93006339  0.74470048  0.95079254  1
  Se  Se187  1  0.25137032  0.25739454  0.30132807  1
  Se  Se188  1  0.24051569  0.24317427  0.81063202  1
  Se  Se189  1  0.25157331  0.58628297  0.30419909  1
  Se  Se190  1  0.24260448  0.56982510  0.80948061  1
  Se  Se191  1  0.25114046  0.92513453  0.30726276  1
  Se  Se192  1  0.25402801  0.91849679  0.80517462  1
  Se  Se193  1  0.57887210  0.23932579  0.29874221  1
  Se  Se194  1  0.57137843  0.24162735  0.81112794  1
  Se  Se195  1  0.58191302  0.58399288  0.30422915  1
  Se  Se196  1  0.57702370  0.58622727  0.81127863  1
  Se  Se197  1  0.57476789  0.90854395  0.30940170  1
  Se  Se198  1  0.58822490  0.91898361  0.80068059  1
  Se  Se199  1  0.91716026  0.24704872  0.31059637  1
  Se  Se200  1  0.91433525  0.24758720  0.80211601  1
  Se  Se201  1  0.91806367  0.58311255  0.30166705  1
  Se  Se202  1  0.90705272  0.57876976  0.81053603  1
  Se  Se203  1  0.90459173  0.90987102  0.30910740  1
  Se  Se204  1  0.92233873  0.91592072  0.79393551  1
  Se  Se205  1  0.08969885  0.09052566  0.31196735  1
  Se  Se206  1  0.07802509  0.07897820  0.80119038  1
  Se  Se207  1  0.08953136  0.42104744  0.31064592  1
  Se  Se208  1  0.08111026  0.40951430  0.80323397  1
  Se  Se209  1  0.08064355  0.75406500  0.30861073  1
  Se  Se210  1  0.09760874  0.75722447  0.81115518  1
  Se  Se211  1  0.42832808  0.10100187  0.29413837  1
  Se  Se212  1  0.41072799  0.07858361  0.80349324  1
  Se  Se213  1  0.41366080  0.41711328  0.30135321  1
  Se  Se214  1  0.41892480  0.42179796  0.80722715  1
  Se  Se215  1  0.40503340  0.74417840  0.29991278  1
  Se  Se216  1  0.42827375  0.75849950  0.80910634  1
  Se  Se217  1  0.75915631  0.08811950  0.31193347  1
  Se  Se218  1  0.74668183  0.08272827  0.79915100  1
  Se  Se219  1  0.74741679  0.40945826  0.30588975  1
  Se  Se220  1  0.75323277  0.42595014  0.81072522  1
  Se  Se221  1  0.73825358  0.74659332  0.29550770  1
  Se  Se222  1  0.75853070  0.75818733  0.80478533  1
  Se  Se223  1  0.25117339  0.07879678  0.20006665  1
  Se  Se224  1  0.24968640  0.08330618  0.69751394  1
  Se  Se225  1  0.24927425  0.41371701  0.19450030  1
  Se  Se226  1  0.24744631  0.42160739  0.68455589  1
  Se  Se227  1  0.24685971  0.75361351  0.20581891  1
  Se  Se228  1  0.24570506  0.75631293  0.68803589  1
  Se  Se229  1  0.58927284  0.08307811  0.18332525  1
  Se  Se230  1  0.58601917  0.07833801  0.69850299  1
  Se  Se231  1  0.58451838  0.41790039  0.20338934  1
  Se  Se232  1  0.57835559  0.42228598  0.69219679  1
  Se  Se233  1  0.59122890  0.74020618  0.19916680  1
  Se  Se234  1  0.57581127  0.75768675  0.68322654  1
  Se  Se235  1  0.92090122  0.09460130  0.18833170  1
  Se  Se236  1  0.91669523  0.07971203  0.69252730  1
  Se  Se237  1  0.90915080  0.42834636  0.18742918  1
  Se  Se238  1  0.91879371  0.41886313  0.70510163  1
  Se  Se239  1  0.92377094  0.75208609  0.20710259  1
  Se  Se240  1  0.91356793  0.75152043  0.68529057  1
  Se  Se241  1  0.08887493  0.24182291  0.18841435  1
  Se  Se242  1  0.08312845  0.25325369  0.69433480  1
  Se  Se243  1  0.08204576  0.58341879  0.20176328  1
  Se  Se244  1  0.09190393  0.58064398  0.68912511  1
  Se  Se245  1  0.09178576  0.91434206  0.19050168  1
  Se  Se246  1  0.08161071  0.91869282  0.69492417  1
  Se  Se247  1  0.43215504  0.23178476  0.20715119  1
  Se  Se248  1  0.42577030  0.24089415  0.68758037  1
  Se  Se249  1  0.41130838  0.58315434  0.19398347  1
  Se  Se250  1  0.42163232  0.58550135  0.69050036  1
  Se  Se251  1  0.41666599  0.93086446  0.20919785  1
  Se  Se252  1  0.41114817  0.91971485  0.69366265  1
  Se  Se253  1  0.75231321  0.25331826  0.19931643  1
  Se  Se254  1  0.75468292  0.24371143  0.68529198  1
  Se  Se255  1  0.74704522  0.58124015  0.20434789  1
  Se  Se256  1  0.76150175  0.56952218  0.69489457  1
  Se  Se257  1  0.76359488  0.91284149  0.19008488  1
  Se  Se258  1  0.74361430  0.91550512  0.68919361  1
