# generated using pymatgen
data_In86Cu29Se144
_symmetry_space_group_name_H-M   'P 1'
_cell_length_a   17.58499588
_cell_length_b   17.58852062
_cell_length_c   23.44742071
_cell_angle_alpha   89.99165032
_cell_angle_beta   89.98654020
_cell_angle_gamma   89.98924913
_symmetry_Int_Tables_number   1
_chemical_formula_structural   In86Cu29Se144
_chemical_formula_sum   'In86 Cu29 Se144'
_cell_volume   7252.14760359
_cell_formula_units_Z   1
loop_
 _symmetry_equiv_pos_site_id
 _symmetry_equiv_pos_as_xyz
  1  'x, y, z'
loop_
 _atom_site_type_symbol
 _atom_site_label
 _atom_site_symmetry_multiplicity
 _atom_site_fract_x
 _atom_site_fract_y
 _atom_site_fract_z
 _atom_site_occupancy
  In  In0  1  0.00190064  0.16169949  0.12443463  1
  In  In1  1  -0.00212165  0.16682481  0.63285408  1
  In  In2  1  -0.00915835  0.48581712  0.12311773  1
  In  In3  1  -0.01360760  0.49765406  0.62108591  1
  In  In4  1  -0.00238185  0.84765157  0.11969787  1
  In  In5  1  0.01372046  0.83150616  0.62881731  1
  In  In6  1  0.33495535  0.17170321  0.11210993  1
  In  In7  1  0.35018205  0.16540768  0.62658283  1
  In  In8  1  0.34070057  0.50296647  0.11620876  1
  In  In9  1  0.34395116  0.48971518  0.63431506  1
  In  In10  1  0.34257106  0.82042899  0.11807511  1
  In  In11  1  0.33089711  0.82362328  0.63013213  1
  In  In12  1  0.67123536  0.17844616  0.12394334  1
  In  In13  1  0.65807826  0.18076800  0.63502982  1
  In  In14  1  0.66392781  0.50415201  0.13056135  1
  In  In15  1  0.66418866  0.50195915  0.62944252  1
  In  In16  1  0.66618018  0.83013009  0.11711933  1
  In  In17  1  0.65104771  0.84386499  0.64460128  1
  In  In18  1  0.15074572  0.00167549  0.37499748  1
  In  In19  1  0.16689074  0.01348788  0.87559202  1
  In  In20  1  0.15843471  0.33465357  0.37299985  1
  In  In21  1  0.16736358  0.33677066  0.87075939  1
  In  In22  1  0.18010154  0.66829629  0.37841934  1
  In  In23  1  0.15952630  0.65321610  0.87452115  1
  In  In24  1  0.49927575  -0.00009855  0.38677671  1
  In  In25  1  0.51156553  -0.01190306  0.87888071  1
  In  In26  1  0.50620256  0.33124109  0.38296073  1
  In  In27  1  0.49767511  0.33503307  0.87277615  1
  In  In28  1  0.50843526  0.65663297  0.38485709  1
  In  In29  1  0.49912016  0.66902039  0.86659795  1
  In  In30  1  0.84819605  -0.01199079  0.37079974  1
  In  In31  1  0.82455197  -0.00724008  0.87066784  1
  In  In32  1  0.84239245  0.34694148  0.37382410  1
  In  In33  1  0.82927591  0.32806279  0.86695826  1
  In  In34  1  0.80690848  0.66998321  0.37269911  1
  In  In35  1  0.82549502  0.68218200  0.88627211  1
  In  In36  1  -0.00005304  0.16641265  0.36886598  1
  In  In37  1  0.00458514  0.17244631  0.87160471  1
  In  In38  1  -0.00832420  0.48115636  0.37437230  1
  In  In39  1  0.01467601  0.50686490  0.87761623  1
  In  In40  1  -0.00722710  0.84815499  0.37403041  1
  In  In41  1  -0.01129647  0.83064331  0.87830829  1
  In  In42  1  0.33683612  0.17370691  0.37982830  1
  In  In43  1  0.32336124  0.17612752  0.87935230  1
  In  In44  1  0.33975729  0.50991505  0.38037311  1
  In  In45  1  0.33359087  0.50042927  0.86812763  1
  In  In46  1  0.33793142  0.82928157  0.38679700  1
  In  In47  1  0.35211735  0.83163000  0.86433290  1
  In  In48  1  0.65351038  0.17059309  0.37718427  1
  In  In49  1  0.65612815  0.15685641  0.86931127  1
  In  In50  1  0.66613604  0.50064880  0.37855935  1
  In  In51  1  0.66396715  0.49562393  0.87146193  1
  In  In52  1  0.66899929  0.82157683  0.37457661  1
  In  In53  1  0.65589332  0.83208991  0.86816187  1
  In  In54  1  0.14502003  0.00190189  0.11410105  1
  In  In55  1  0.16721846  -0.02012619  0.63404467  1
  In  In56  1  0.15697542  0.32447617  0.11596430  1
  In  In57  1  0.16372056  0.33844976  0.63219499  1
  In  In58  1  0.18156005  0.66338082  0.11851485  1
  In  In59  1  0.16916542  0.68530126  0.63242507  1
  In  In60  1  0.50215493  0.00062879  0.11425807  1
  In  In61  1  0.50775298  0.00646066  0.62362859  1
  In  In62  1  0.51067884  0.34444571  0.11719686  1
  In  In63  1  0.50174611  0.33580962  0.62739973  1
  In  In64  1  0.52729304  0.67918424  0.10206937  1
  In  In65  1  0.50290925  0.66658053  0.63157106  1
  In  In66  1  0.84776258  -0.00467815  0.12065075  1
  In  In67  1  0.83533120  -0.00466375  0.63481782  1
  In  In68  1  0.83073249  0.33377041  0.13567179  1
  In  In69  1  0.82908950  0.33830270  0.63001928  1
  In  In70  1  0.81682378  0.66715512  0.12026339  1
  In  In71  1  0.82793894  0.65215948  0.62225916  1
  In  In72  1  0.82931025  0.82658722  0.49608377  1
  In  In73  1  0.82783011  0.17068159  0.50502387  1
  In  In74  1  0.17129526  0.50312721  0.50214339  1
  In  In75  1  0.32970651  0.00114514  0.24511189  1
  In  In76  1  0.33252288  0.33451916  0.25537172  1
  In  In77  1  0.83089413  0.50492316  -0.00190214  1
  In  In78  1  0.17017961  0.16322368  0.49592628  1
  In  In79  1  0.33509304  0.00261400  0.75297424  1
  In  In80  1  -0.00320116  0.66851372  0.24552520  1
  In  In81  1  0.34050383  0.66227642  0.24905097  1
  In  In82  1  -0.00469327  0.66492964  0.75307754  1
  In  In83  1  0.83527693  0.15985611  0.00201735  1
  In  In84  1  0.67271892  0.00241348  0.24997777  1
  In  In85  1  0.17231517  0.83257502  -0.00442041  1
  Cu  Cu86  1  0.51243144  0.50549715  0.24806345  1
  Cu  Cu87  1  0.33193223  0.33946081  -0.00740418  1
  Cu  Cu88  1  0.00254873  0.66617778  0.50277789  1
  Cu  Cu89  1  0.16131881  0.84039199  0.25032286  1
  Cu  Cu90  1  0.66040137  0.66578979  0.50532897  1
  Cu  Cu91  1  0.33569012  0.00165844  -0.00726025  1
  Cu  Cu92  1  0.66380131  -0.00798477  -0.00797339  1
  Cu  Cu93  1  0.66309283  0.00039785  0.50657582  1
  Cu  Cu94  1  0.66410703  0.34127327  0.50696862  1
  Cu  Cu95  1  0.16647677  0.49934093  0.75042698  1
  Cu  Cu96  1  0.34196957  0.33143956  0.50521657  1
  Cu  Cu97  1  0.15358507  0.16210763  0.24141054  1
  Cu  Cu98  1  0.83274129  0.17050957  0.24885368  1
  Cu  Cu99  1  0.82892575  0.50038874  0.25202948  1
  Cu  Cu100  1  0.83166825  0.49760058  0.75104795  1
  Cu  Cu101  1  0.50841417  0.82641051  0.24650258  1
  Cu  Cu102  1  0.00593533  0.33497970  -0.00357359  1
  Cu  Cu103  1  0.33982268  0.65927278  -0.00804832  1
  Cu  Cu104  1  0.33725436  -0.00816172  0.51082392  1
  Cu  Cu105  1  0.49869654  0.17164691  0.75259608  1
  Cu  Cu106  1  0.83782061  0.16371925  0.75217050  1
  Cu  Cu107  1  0.50151094  0.49984607  0.75148106  1
  Cu  Cu108  1  0.49946666  0.17411863  0.25057379  1
  Cu  Cu109  1  0.83046086  0.83115966  0.75483712  1
  Cu  Cu110  1  0.33814616  0.66905008  0.50766585  1
  Cu  Cu111  1  0.16645202  0.17209565  0.75241862  1
  Cu  Cu112  1  0.66038338  0.33058606  -0.00202538  1
  Cu  Cu113  1  0.00679132  -0.00399132  0.50216939  1
  Cu  Cu114  1  0.16027082  0.48910359  0.24400154  1
  Se  Se115  1  0.08149995  0.09616014  0.04640844  1
  Se  Se116  1  0.08363558  0.07755353  0.56229043  1
  Se  Se117  1  0.08354151  0.42160957  0.05167411  1
  Se  Se118  1  0.07881368  0.41038174  0.55548934  1
  Se  Se119  1  0.08475297  0.74761704  0.06134847  1
  Se  Se120  1  0.08543812  0.74930283  0.55390994  1
  Se  Se121  1  0.41870948  0.08477056  0.04847033  1
  Se  Se122  1  0.42141259  0.08373494  0.55236612  1
  Se  Se123  1  0.41856199  0.41579532  0.04907546  1
  Se  Se124  1  0.42110394  0.41973897  0.55576883  1
  Se  Se125  1  0.42117639  0.74807715  0.04355143  1
  Se  Se126  1  0.42168469  0.75134119  0.56091766  1
  Se  Se127  1  0.73827854  0.07107538  0.05913740  1
  Se  Se128  1  0.74332572  0.07814863  0.56689630  1
  Se  Se129  1  0.74648737  0.40687287  0.05814754  1
  Se  Se130  1  0.75055752  0.42098923  0.55928716  1
  Se  Se131  1  0.74376390  0.74617782  0.04696572  1
  Se  Se132  1  0.74015178  0.74947141  0.56405378  1
  Se  Se133  1  0.24953633  0.25475917  0.04751604  1
  Se  Se134  1  0.25471889  0.25407533  0.56092823  1
  Se  Se135  1  0.25407516  0.57991435  0.04634053  1
  Se  Se136  1  0.25621254  0.58927795  0.56760225  1
  Se  Se137  1  0.25990418  0.92419652  0.06082549  1
  Se  Se138  1  0.24989576  0.90987067  0.55960141  1
  Se  Se139  1  0.58073179  0.24466363  0.05248996  1
  Se  Se140  1  0.58253812  0.25132602  0.55610069  1
  Se  Se141  1  0.57451182  0.55796497  0.05342333  1
  Se  Se142  1  0.57939298  0.58070639  0.55874946  1
  Se  Se143  1  0.57979729  0.91154912  0.04935478  1
  Se  Se144  1  0.58541231  0.91171266  0.55884708  1
  Se  Se145  1  0.91859722  0.26210110  0.05803409  1
  Se  Se146  1  0.92348381  0.25639290  0.56050540  1
  Se  Se147  1  0.92242398  0.58962946  0.06075413  1
  Se  Se148  1  0.91419285  0.58283780  0.54847230  1
  Se  Se149  1  0.91648984  0.91740627  0.04441962  1
  Se  Se150  1  0.91962280  0.91701773  0.55782324  1
  Se  Se151  1  0.07314847  0.25499916  0.44480130  1
  Se  Se152  1  0.08711671  0.25203682  0.94208715  1
  Se  Se153  1  0.07863100  0.58601865  0.43668664  1
  Se  Se154  1  0.08019350  0.58917055  0.95300166  1
  Se  Se155  1  0.08563804  0.91042229  0.44742595  1
  Se  Se156  1  0.07991318  0.92336494  0.94061210  1
  Se  Se157  1  0.42188304  0.24647280  0.45005789  1
  Se  Se158  1  0.41688937  0.25223554  0.94423454  1
  Se  Se159  1  0.41875126  0.58260675  0.45457792  1
  Se  Se160  1  0.42184190  0.57863771  0.93630634  1
  Se  Se161  1  0.42174323  0.91166865  0.45334617  1
  Se  Se162  1  0.41597496  0.91316483  0.94366839  1
  Se  Se163  1  0.74106068  0.26030657  0.44292661  1
  Se  Se164  1  0.74437717  0.24957877  0.94177871  1
  Se  Se165  1  0.74643043  0.58571741  0.45009364  1
  Se  Se166  1  0.73276056  0.59134697  0.94524266  1
  Se  Se167  1  0.74314184  0.92807908  0.44049372  1
  Se  Se168  1  0.74595856  0.90875719  0.93975490  1
  Se  Se169  1  0.26198777  0.06673627  0.44051150  1
  Se  Se170  1  0.24775042  0.08775794  0.94936917  1
  Se  Se171  1  0.25959003  0.40579940  0.44102172  1
  Se  Se172  1  0.24770169  0.42211613  0.93958697  1
  Se  Se173  1  0.25082791  0.74860194  0.45354477  1
  Se  Se174  1  0.26032383  0.74376201  0.93353956  1
  Se  Se175  1  0.58393566  0.08587439  0.45099396  1
  Se  Se176  1  0.58093041  0.08405466  0.94750512  1
  Se  Se177  1  0.58075238  0.42221922  0.44951877  1
  Se  Se178  1  0.58281196  0.41574558  0.94291698  1
  Se  Se179  1  0.58381716  0.75284792  0.44837246  1
  Se  Se180  1  0.57150170  0.75542794  0.93896656  1
  Se  Se181  1  0.92269264  0.07784050  0.44570064  1
  Se  Se182  1  0.92015972  0.07740498  0.93561791  1
  Se  Se183  1  0.91296346  0.41935341  0.45355911  1
  Se  Se184  1  0.91831630  0.40967095  0.93817673  1
  Se  Se185  1  0.92231418  0.73919461  0.43550975  1
  Se  Se186  1  0.93025191  0.73675354  0.95002252  1
  Se  Se187  1  0.23693883  0.23507933  0.30604457  1
  Se  Se188  1  0.25312632  0.25486623  0.80166118  1
  Se  Se189  1  0.24181683  0.56918523  0.30369012  1
  Se  Se190  1  0.24731429  0.58600222  0.80137571  1
  Se  Se191  1  0.24828093  0.91061419  0.31245724  1
  Se  Se192  1  0.24379824  0.91385630  0.81187506  1
  Se  Se193  1  0.58119428  0.25627320  0.30481992  1
  Se  Se194  1  0.58557137  0.25385854  0.80433861  1
  Se  Se195  1  0.58883517  0.58908381  0.30717569  1
  Se  Se196  1  0.58703838  0.58234313  0.80202241  1
  Se  Se197  1  0.57570074  0.91574716  0.30895337  1
  Se  Se198  1  0.58312742  0.92235118  0.79822262  1
  Se  Se199  1  0.91410619  0.25201617  0.30640723  1
  Se  Se200  1  0.92034798  0.25164511  0.80159712  1
  Se  Se201  1  0.91016848  0.58147662  0.31177999  1
  Se  Se202  1  0.90586096  0.57838074  0.81620258  1
  Se  Se203  1  0.92119848  0.91582916  0.29378311  1
  Se  Se204  1  0.91648425  0.91407896  0.80449303  1
  Se  Se205  1  0.07624301  0.07852178  0.29950651  1
  Se  Se206  1  0.08364054  0.08553241  0.80163179  1
  Se  Se207  1  0.07791515  0.41064504  0.30032457  1
  Se  Se208  1  0.07933407  0.41939397  0.80310276  1
  Se  Se209  1  0.09048321  0.75248302  0.31057535  1
  Se  Se210  1  0.08647138  0.75540419  0.80991813  1
  Se  Se211  1  0.42216878  0.08884771  0.30818644  1
  Se  Se212  1  0.42217847  0.09095510  0.81581630  1
  Se  Se213  1  0.42609304  0.42984680  0.30856012  1
  Se  Se214  1  0.41542524  0.41402817  0.80071916  1
  Se  Se215  1  0.42552359  0.75447892  0.31063976  1
  Se  Se216  1  0.41696680  0.74450470  0.79189723  1
  Se  Se217  1  0.75931998  0.09172867  0.31575815  1
  Se  Se218  1  0.74910277  0.08326764  0.80310344  1
  Se  Se219  1  0.74687284  0.41743606  0.30775108  1
  Se  Se220  1  0.74617266  0.41298336  0.80179902  1
  Se  Se221  1  0.75917406  0.76664908  0.29971818  1
  Se  Se222  1  0.74843151  0.74588315  0.80537890  1
  Se  Se223  1  0.24252216  0.09045026  0.18329289  1
  Se  Se224  1  0.24452054  0.09185049  0.68891276  1
  Se  Se225  1  0.24933424  0.41773610  0.18573380  1
  Se  Se226  1  0.25129540  0.41405865  0.70000700  1
  Se  Se227  1  0.24594502  0.75968836  0.19467236  1
  Se  Se228  1  0.24845810  0.75618333  0.70660884  1
  Se  Se229  1  0.57576046  0.08932769  0.19109962  1
  Se  Se230  1  0.58157853  0.08660439  0.69915537  1
  Se  Se231  1  0.58738179  0.41160113  0.19762916  1
  Se  Se232  1  0.58500710  0.41481813  0.69805008  1
  Se  Se233  1  0.58807789  0.74584528  0.18985505  1
  Se  Se234  1  0.59833318  0.73157858  0.70126392  1
  Se  Se235  1  0.91194651  0.08705399  0.19302187  1
  Se  Se236  1  0.92067305  0.07880587  0.69991061  1
  Se  Se237  1  0.91603423  0.41641507  0.20255780  1
  Se  Se238  1  0.91853490  0.41737149  0.69835094  1
  Se  Se239  1  0.91061082  0.75545863  0.18374241  1
  Se  Se240  1  0.90660748  0.75349781  0.68791048  1
  Se  Se241  1  0.07611553  0.25463367  0.19273047  1
  Se  Se242  1  0.08097995  0.25322856  0.69797025  1
  Se  Se243  1  0.08996973  0.57874235  0.18618153  1
  Se  Se244  1  0.08536169  0.57778560  0.68711624  1
  Se  Se245  1  0.08180165  0.92097712  0.19369474  1
  Se  Se246  1  0.07158476  0.92080868  0.70329114  1
  Se  Se247  1  0.41899969  0.24995963  0.18864800  1
  Se  Se248  1  0.41639632  0.25443472  0.69812475  1
  Se  Se249  1  0.43196764  0.58204782  0.18544347  1
  Se  Se250  1  0.41573074  0.58410036  0.69968600  1
  Se  Se251  1  0.42533341  0.90750654  0.19016378  1
  Se  Se252  1  0.42294420  0.91646471  0.69046949  1
  Se  Se253  1  0.74326445  0.25273503  0.20219013  1
  Se  Se254  1  0.75486405  0.25000854  0.69988169  1
  Se  Se255  1  0.74960015  0.58524949  0.19780766  1
  Se  Se256  1  0.74940166  0.58338299  0.69970053  1
  Se  Se257  1  0.75517481  0.91312689  0.18706312  1
  Se  Se258  1  0.74885721  0.92030137  0.70435507  1
