# generated using pymatgen
data_In86Cu29Se144
_symmetry_space_group_name_H-M   'P 1'
_cell_length_a   17.58313933
_cell_length_b   17.58312630
_cell_length_c   23.44390771
_cell_angle_alpha   90.00602070
_cell_angle_beta   89.97981668
_cell_angle_gamma   89.99318992
_symmetry_Int_Tables_number   1
_chemical_formula_structural   In86Cu29Se144
_chemical_formula_sum   'In86 Cu29 Se144'
_cell_volume   7248.07174981
_cell_formula_units_Z   1
loop_
 _symmetry_equiv_pos_site_id
 _symmetry_equiv_pos_as_xyz
  1  'x, y, z'
loop_
 _atom_site_type_symbol
 _atom_site_label
 _atom_site_symmetry_multiplicity
 _atom_site_fract_x
 _atom_site_fract_y
 _atom_site_fract_z
 _atom_site_occupancy
  In  In0  1  -0.01616600  0.15428821  0.13154803  1
  In  In1  1  0.00023200  0.16436255  0.62610558  1
  In  In2  1  0.00353436  0.50180578  0.11589182  1
  In  In3  1  -0.00958778  0.48920876  0.61621061  1
  In  In4  1  0.00449521  0.84443250  0.11363295  1
  In  In5  1  0.01700425  0.83853643  0.63128362  1
  In  In6  1  0.34799338  0.16433432  0.12766000  1
  In  In7  1  0.33889570  0.17441351  0.61473593  1
  In  In8  1  0.32434107  0.49919328  0.12797480  1
  In  In9  1  0.34016543  0.51873622  0.62087670  1
  In  In10  1  0.33442273  0.83058920  0.11476214  1
  In  In11  1  0.31897087  0.82192505  0.62925749  1
  In  In12  1  0.67098661  0.18739797  0.12808487  1
  In  In13  1  0.66004791  0.16260106  0.61216807  1
  In  In14  1  0.67909188  0.48811909  0.13451902  1
  In  In15  1  0.65635757  0.49028773  0.60011930  1
  In  In16  1  0.65772905  0.82393303  0.12090393  1
  In  In17  1  0.67456540  0.84597811  0.62322775  1
  In  In18  1  0.16041525  0.00528273  0.38353592  1
  In  In19  1  0.14944374  -0.00685762  0.87109443  1
  In  In20  1  0.17479559  0.32613858  0.38006572  1
  In  In21  1  0.16379493  0.34911189  0.87385635  1
  In  In22  1  0.16910899  0.66672180  0.38409006  1
  In  In23  1  0.17150478  0.66285363  0.87648183  1
  In  In24  1  0.50048450  -0.00188673  0.38489409  1
  In  In25  1  0.50816567  -0.00623855  0.87850487  1
  In  In26  1  0.50206506  0.33747187  0.37711466  1
  In  In27  1  0.49282310  0.33206349  0.87735620  1
  In  In28  1  0.53825973  0.63266561  0.41231869  1
  In  In29  1  0.50483239  0.67638861  0.86937571  1
  In  In30  1  0.85048111  0.00300749  0.37271252  1
  In  In31  1  0.82857521  -0.00188696  0.87197365  1
  In  In32  1  0.82270150  0.33857640  0.38633471  1
  In  In33  1  0.84138028  0.32788457  0.87538065  1
  In  In34  1  0.81517923  0.66035785  0.37435772  1
  In  In35  1  0.83892813  0.66593181  0.88258633  1
  In  In36  1  0.00544756  0.15944979  0.38158777  1
  In  In37  1  -0.00924407  0.16344214  0.86504266  1
  In  In38  1  0.00207286  0.49781615  0.38386010  1
  In  In39  1  0.00187909  0.50185066  0.87531097  1
  In  In40  1  0.00084836  0.84593220  0.37434579  1
  In  In41  1  -0.00300754  0.84464984  0.88540569  1
  In  In42  1  0.32661894  0.17229753  0.38159955  1
  In  In43  1  0.34192783  0.17825294  0.87585370  1
  In  In44  1  0.34564127  0.48897822  0.38251570  1
  In  In45  1  0.32115029  0.49598297  0.86975334  1
  In  In46  1  0.33935567  0.82584849  0.38084796  1
  In  In47  1  0.33945564  0.82553848  0.87677238  1
  In  In48  1  0.65842858  0.18438469  0.39150667  1
  In  In49  1  0.67404030  0.15518858  0.87701487  1
  In  In50  1  0.67093826  0.49286501  0.37943937  1
  In  In51  1  0.66786591  0.51016343  0.87561497  1
  In  In52  1  0.66398676  0.82109114  0.37371438  1
  In  In53  1  0.65839072  0.83697909  0.87910185  1
  In  In54  1  0.16134964  -0.01011726  0.11953260  1
  In  In55  1  0.15613697  -0.00938687  0.62639249  1
  In  In56  1  0.16216147  0.34465753  0.12717429  1
  In  In57  1  0.15911266  0.32392562  0.61817203  1
  In  In58  1  0.16684144  0.66681551  0.11806434  1
  In  In59  1  0.17417152  0.68027226  0.62288669  1
  In  In60  1  0.49914956  -0.00187251  0.11772077  1
  In  In61  1  0.50878322  0.00817363  0.61835480  1
  In  In62  1  0.51330821  0.32507987  0.13779547  1
  In  In63  1  0.50434968  0.33605243  0.61093175  1
  In  In64  1  0.50090800  0.67541494  0.12634529  1
  In  In65  1  0.48765490  0.65493292  0.61801312  1
  In  In66  1  0.84988694  0.00332292  0.12739184  1
  In  In67  1  0.82523596  0.00670157  0.63316829  1
  In  In68  1  0.81089551  0.32977854  0.12476786  1
  In  In69  1  0.83607187  0.33878519  0.61291542  1
  In  In70  1  0.82507658  0.65699727  0.11937899  1
  In  In71  1  0.82848736  0.66072650  0.61784402  1
  In  In72  1  0.66448448  0.33415417  0.73527288  1
  In  In73  1  0.33115062  0.33826164  0.74378427  1
  In  In74  1  0.33045868  0.00048132  0.24987950  1
  In  In75  1  0.83072490  0.16555300  0.00300901  1
  In  In76  1  0.33114689  -0.00003256  0.74900326  1
  In  In77  1  0.66329200  0.66779990  0.74433879  1
  In  In78  1  0.00176603  0.67001862  0.74945762  1
  In  In79  1  0.34048062  0.66661791  0.25156951  1
  In  In80  1  -0.00287206  0.66720675  0.24062896  1
  In  In81  1  0.67688387  0.01229614  0.24981924  1
  In  In82  1  0.83652582  0.82860129  0.49763314  1
  In  In83  1  0.17003949  0.16468458  -0.00266917  1
  In  In84  1  -0.00967093  0.32742983  0.24998964  1
  In  In85  1  0.50272391  0.49876129  -0.00030461  1
  Cu  Cu86  1  0.67110246  -0.00028227  0.49967917  1
  Cu  Cu87  1  0.50507530  0.82840094  0.25242122  1
  Cu  Cu88  1  0.16122107  0.50294609  0.74801197  1
  Cu  Cu89  1  0.83575606  0.83485025  0.75271341  1
  Cu  Cu90  1  0.33395142  0.66442659  -0.00138668  1
  Cu  Cu91  1  0.50198990  0.17392605  0.25448591  1
  Cu  Cu92  1  0.83190073  0.83418125  0.25169199  1
  Cu  Cu93  1  0.17604026  0.48989880  0.25357314  1
  Cu  Cu94  1  0.82913301  0.50008131  0.25088838  1
  Cu  Cu95  1  0.66577222  -0.00279289  -0.00046482  1
  Cu  Cu96  1  0.50762914  0.49786322  0.26225845  1
  Cu  Cu97  1  0.83814236  0.16522738  0.74836357  1
  Cu  Cu98  1  0.00220835  -0.00105796  0.50409387  1
  Cu  Cu99  1  0.33361989  -0.00232480  0.50640161  1
  Cu  Cu100  1  0.16154990  0.16736493  0.74510079  1
  Cu  Cu101  1  0.00365588  0.32582785  0.49858684  1
  Cu  Cu102  1  0.50097549  0.83810299  0.75100791  1
  Cu  Cu103  1  0.33660146  -0.00350699  -0.00474534  1
  Cu  Cu104  1  0.16063179  0.83859699  0.24755489  1
  Cu  Cu105  1  0.00378718  0.67147705  -0.00218056  1
  Cu  Cu106  1  0.66966188  0.66539524  -0.00020543  1
  Cu  Cu107  1  0.33757042  0.33322422  -0.00017312  1
  Cu  Cu108  1  0.51327743  0.16314580  0.74493959  1
  Cu  Cu109  1  0.32876168  0.33967952  0.49806244  1
  Cu  Cu110  1  0.82977840  0.49117078  0.74120041  1
  Cu  Cu111  1  0.32489499  0.67679524  0.50340407  1
  Cu  Cu112  1  0.00031015  0.66451302  0.50445092  1
  Cu  Cu113  1  0.16375271  0.16360944  0.25843765  1
  Cu  Cu114  1  -0.00000084  0.33888866  -0.00245003  1
  Se  Se115  1  0.07319676  0.08210836  0.05662864  1
  Se  Se116  1  0.08656386  0.08271591  0.55702873  1
  Se  Se117  1  0.08902042  0.41860953  0.04910525  1
  Se  Se118  1  0.08376804  0.41480811  0.55030614  1
  Se  Se119  1  0.08804269  0.75331750  0.05184663  1
  Se  Se120  1  0.08020857  0.75310873  0.55462811  1
  Se  Se121  1  0.41485795  0.08186223  0.05107140  1
  Se  Se122  1  0.42049453  0.08611432  0.55069869  1
  Se  Se123  1  0.41537971  0.41155407  0.06391933  1
  Se  Se124  1  0.41006975  0.42135662  0.55441436  1
  Se  Se125  1  0.42049246  0.74639687  0.05036119  1
  Se  Se126  1  0.41135549  0.75469414  0.55846512  1
  Se  Se127  1  0.73986193  0.07659567  0.06519952  1
  Se  Se128  1  0.75681819  0.08056681  0.55241352  1
  Se  Se129  1  0.75508568  0.42452761  0.05361712  1
  Se  Se130  1  0.74494597  0.40500820  0.54161727  1
  Se  Se131  1  0.75069420  0.75085260  0.05336701  1
  Se  Se132  1  0.73763382  0.74315299  0.55280579  1
  Se  Se133  1  0.25565312  0.25455784  0.06156036  1
  Se  Se134  1  0.24850619  0.25005998  0.54872187  1
  Se  Se135  1  0.25230109  0.58114006  0.05373069  1
  Se  Se136  1  0.24370122  0.58717058  0.55369370  1
  Se  Se137  1  0.25153053  0.91781386  0.05077001  1
  Se  Se138  1  0.24922189  0.91623168  0.56036185  1
  Se  Se139  1  0.58070564  0.25185246  0.05740939  1
  Se  Se140  1  0.58331897  0.25028081  0.54578889  1
  Se  Se141  1  0.59094437  0.58599198  0.06286440  1
  Se  Se142  1  0.58192735  0.59443746  0.54601666  1
  Se  Se143  1  0.58095903  0.91232037  0.05212543  1
  Se  Se144  1  0.58667967  0.91694268  0.55177272  1
  Se  Se145  1  0.92374149  0.25921540  0.06155264  1
  Se  Se146  1  0.91996962  0.24478230  0.55377124  1
  Se  Se147  1  0.92041619  0.58720056  0.05170493  1
  Se  Se148  1  0.91194730  0.58033631  0.55016233  1
  Se  Se149  1  0.90922341  0.91887934  0.05069900  1
  Se  Se150  1  0.91920007  0.91788737  0.56376066  1
  Se  Se151  1  0.09021083  0.24349752  0.44706422  1
  Se  Se152  1  0.07605333  0.25394864  0.93760210  1
  Se  Se153  1  0.08518095  0.58267067  0.44977553  1
  Se  Se154  1  0.08411440  0.58353974  0.94444627  1
  Se  Se155  1  0.08339406  0.91332366  0.45046331  1
  Se  Se156  1  0.08820226  0.91927125  0.95275106  1
  Se  Se157  1  0.41396956  0.25554155  0.44532046  1
  Se  Se158  1  0.42274888  0.24760592  0.95198402  1
  Se  Se159  1  0.40482494  0.59183800  0.44843493  1
  Se  Se160  1  0.41307505  0.58566983  0.93611387  1
  Se  Se161  1  0.41440643  0.91543938  0.44947901  1
  Se  Se162  1  0.42112649  0.91197248  0.94386246  1
  Se  Se163  1  0.74853718  0.25691069  0.46066124  1
  Se  Se164  1  0.74243953  0.25773768  0.94333031  1
  Se  Se165  1  0.75225303  0.57763872  0.44934491  1
  Se  Se166  1  0.75296876  0.58119415  0.94762957  1
  Se  Se167  1  0.74930809  0.92078981  0.43584596  1
  Se  Se168  1  0.74891869  0.91702458  0.94379824  1
  Se  Se169  1  0.25277335  0.08021107  0.44861489  1
  Se  Se170  1  0.25859973  0.07661089  0.93301890  1
  Se  Se171  1  0.24328198  0.42321928  0.44632919  1
  Se  Se172  1  0.25271991  0.41542108  0.94727875  1
  Se  Se173  1  0.24228064  0.76056098  0.44932739  1
  Se  Se174  1  0.25105989  0.74869996  0.94565475  1
  Se  Se175  1  0.58295422  0.08323220  0.45032948  1
  Se  Se176  1  0.58443795  0.08372734  0.94680881  1
  Se  Se177  1  0.56405638  0.43648158  0.44443839  1
  Se  Se178  1  0.59279793  0.40946421  0.93990800  1
  Se  Se179  1  0.56989161  0.76860803  0.44651257  1
  Se  Se180  1  0.58272757  0.74598809  0.94689531  1
  Se  Se181  1  0.91806291  0.08117785  0.45146415  1
  Se  Se182  1  0.92173661  0.07873468  0.94229123  1
  Se  Se183  1  0.91997972  0.41381428  0.44946594  1
  Se  Se184  1  0.91580444  0.41885802  0.94252113  1
  Se  Se185  1  0.92507165  0.73872442  0.43433286  1
  Se  Se186  1  0.91529254  0.75410003  0.94933761  1
  Se  Se187  1  0.25092348  0.24831052  0.30427956  1
  Se  Se188  1  0.24169116  0.24651416  0.80676455  1
  Se  Se189  1  0.24812822  0.57830737  0.31162739  1
  Se  Se190  1  0.24724006  0.58344532  0.80012366  1
  Se  Se191  1  0.24454691  0.90927279  0.31141916  1
  Se  Se192  1  0.24655504  0.90981266  0.81019896  1
  Se  Se193  1  0.58652946  0.25306448  0.30890464  1
  Se  Se194  1  0.58380285  0.24821813  0.80820167  1
  Se  Se195  1  0.58781677  0.58523404  0.31376798  1
  Se  Se196  1  0.57421364  0.57389445  0.80261914  1
  Se  Se197  1  0.58116157  0.91955224  0.30632670  1
  Se  Se198  1  0.58718256  0.91877775  0.80288333  1
  Se  Se199  1  0.91045942  0.24639558  0.32031656  1
  Se  Se200  1  0.91735913  0.25574832  0.79797332  1
  Se  Se201  1  0.91556887  0.57765664  0.30804028  1
  Se  Se202  1  0.90389045  0.57698181  0.80217691  1
  Se  Se203  1  0.91993406  0.91702483  0.29868531  1
  Se  Se204  1  0.91830440  0.91623265  0.80721372  1
  Se  Se205  1  0.08074378  0.07700931  0.30663685  1
  Se  Se206  1  0.08148055  0.08408360  0.80060215  1
  Se  Se207  1  0.08507648  0.41674945  0.30884107  1
  Se  Se208  1  0.07809737  0.41975082  0.80112116  1
  Se  Se209  1  0.08738692  0.75084190  0.30701459  1
  Se  Se210  1  0.08328655  0.75641778  0.81508309  1
  Se  Se211  1  0.42252754  0.08748829  0.31073155  1
  Se  Se212  1  0.42614831  0.09162398  0.80626979  1
  Se  Se213  1  0.41541772  0.41359444  0.30379261  1
  Se  Se214  1  0.42441601  0.42376387  0.80468072  1
  Se  Se215  1  0.43086866  0.74740842  0.31477162  1
  Se  Se216  1  0.41780328  0.75105640  0.79962972  1
  Se  Se217  1  0.75007436  0.09464239  0.32343658  1
  Se  Se218  1  0.75127451  0.08403090  0.80075800  1
  Se  Se219  1  0.75232769  0.41386367  0.30633394  1
  Se  Se220  1  0.75020498  0.41761872  0.80644189  1
  Se  Se221  1  0.74859101  0.74832387  0.30059133  1
  Se  Se222  1  0.75519525  0.75084762  0.80963478  1
  Se  Se223  1  0.23967499  0.08908505  0.18872390  1
  Se  Se224  1  0.24943298  0.09497236  0.68668172  1
  Se  Se225  1  0.25643913  0.40722689  0.19902783  1
  Se  Se226  1  0.24034694  0.42491243  0.68391816  1
  Se  Se227  1  0.24499602  0.75703244  0.19185053  1
  Se  Se228  1  0.24023714  0.75065476  0.70509927  1
  Se  Se229  1  0.57390477  0.08949330  0.19083938  1
  Se  Se230  1  0.59457966  0.08043889  0.69170077  1
  Se  Se231  1  0.58916031  0.41599266  0.20397200  1
  Se  Se232  1  0.57262141  0.43032406  0.68483641  1
  Se  Se233  1  0.58757005  0.74469773  0.19948439  1
  Se  Se234  1  0.57684218  0.75947708  0.68489579  1
  Se  Se235  1  0.89966032  0.09164563  0.20704950  1
  Se  Se236  1  0.92186915  0.07892225  0.69750647  1
  Se  Se237  1  0.91201913  0.42560111  0.18800602  1
  Se  Se238  1  0.91551021  0.40903558  0.69125681  1
  Se  Se239  1  0.90866252  0.75917790  0.18387480  1
  Se  Se240  1  0.90611097  0.75460410  0.68706049  1
  Se  Se241  1  0.08722453  0.23980542  0.19068061  1
  Se  Se242  1  0.07904947  0.25426885  0.69509956  1
  Se  Se243  1  0.09688490  0.57149393  0.19288077  1
  Se  Se244  1  0.08143076  0.57853212  0.68364535  1
  Se  Se245  1  0.07744895  0.91951126  0.19403698  1
  Se  Se246  1  0.08470636  0.91982302  0.70612829  1
  Se  Se247  1  0.41392741  0.25215000  0.20094919  1
  Se  Se248  1  0.42987710  0.24649765  0.69012189  1
  Se  Se249  1  0.42976318  0.57132398  0.19341074  1
  Se  Se250  1  0.41280487  0.59034134  0.69918473  1
  Se  Se251  1  0.42201531  0.90593978  0.19217193  1
  Se  Se252  1  0.42288627  0.91585870  0.68659547  1
  Se  Se253  1  0.75928254  0.24450227  0.20442963  1
  Se  Se254  1  0.75809033  0.24057250  0.68362525  1
  Se  Se255  1  0.74864924  0.58801791  0.19925428  1
  Se  Se256  1  0.74555296  0.56837984  0.68336221  1
  Se  Se257  1  0.75139584  0.91095393  0.18818852  1
  Se  Se258  1  0.74882938  0.91731132  0.70188990  1
