# generated using pymatgen
data_In86Cu29Se144
_symmetry_space_group_name_H-M   'P 1'
_cell_length_a   17.58580297
_cell_length_b   17.58430384
_cell_length_c   23.44675420
_cell_angle_alpha   90.00173750
_cell_angle_beta   90.00212384
_cell_angle_gamma   90.01858573
_symmetry_Int_Tables_number   1
_chemical_formula_structural   In86Cu29Se144
_chemical_formula_sum   'In86 Cu29 Se144'
_cell_volume   7250.53560673
_cell_formula_units_Z   1
loop_
 _symmetry_equiv_pos_site_id
 _symmetry_equiv_pos_as_xyz
  1  'x, y, z'
loop_
 _atom_site_type_symbol
 _atom_site_label
 _atom_site_symmetry_multiplicity
 _atom_site_fract_x
 _atom_site_fract_y
 _atom_site_fract_z
 _atom_site_occupancy
  In  In0  1  -0.01170030  0.16336103  0.10559826  1
  In  In1  1  0.00491401  0.18075066  0.62574269  1
  In  In2  1  0.00800982  0.50675482  0.11435391  1
  In  In3  1  0.00210097  0.50448952  0.62856575  1
  In  In4  1  -0.00434973  0.83656044  0.12702178  1
  In  In5  1  -0.01169286  0.83332339  0.62912618  1
  In  In6  1  0.33017100  0.18668913  0.12766533  1
  In  In7  1  0.31735928  0.16893672  0.62582467  1
  In  In8  1  0.33271208  0.49777476  0.12462007  1
  In  In9  1  0.33397635  0.51314110  0.61927039  1
  In  In10  1  0.33123171  0.81458661  0.12515477  1
  In  In11  1  0.34693018  0.81819331  0.61884015  1
  In  In12  1  0.68972141  0.15671609  0.13971507  1
  In  In13  1  0.67810748  0.16502815  0.63253775  1
  In  In14  1  0.66517841  0.50319521  0.12441640  1
  In  In15  1  0.67490164  0.49620820  0.63887100  1
  In  In16  1  0.66947496  0.83407513  0.11976485  1
  In  In17  1  0.66388541  0.83348719  0.63252835  1
  In  In18  1  0.16095488  0.00852201  0.36451258  1
  In  In19  1  0.16800610  0.00251882  0.87990731  1
  In  In20  1  0.16997557  0.33705587  0.36720318  1
  In  In21  1  0.12529128  0.35807175  0.90901889  1
  In  In22  1  0.14652737  0.64549884  0.35735091  1
  In  In23  1  0.14484006  0.65338700  0.86238545  1
  In  In24  1  0.50374557  -0.01832942  0.37445185  1
  In  In25  1  0.50455689  -0.01429367  0.88447592  1
  In  In26  1  0.50110996  0.34110483  0.36597295  1
  In  In27  1  0.51762419  0.33481918  0.87598801  1
  In  In28  1  0.51195491  0.67609925  0.36779788  1
  In  In29  1  0.50810133  0.65440098  0.88683910  1
  In  In30  1  0.82294416  -0.00708238  0.35510815  1
  In  In31  1  0.82519153  0.00819842  0.88062782  1
  In  In32  1  0.83863100  0.34910989  0.37086204  1
  In  In33  1  0.83431375  0.34214218  0.88224291  1
  In  In34  1  0.81853894  0.65389838  0.36863412  1
  In  In35  1  0.83518444  0.66413186  0.88036020  1
  In  In36  1  0.00623982  0.17172950  0.36213960  1
  In  In37  1  -0.02389454  0.19775558  0.90755813  1
  In  In38  1  -0.01057905  0.50291630  0.37742352  1
  In  In39  1  -0.00336416  0.50115814  0.88193846  1
  In  In40  1  -0.00800764  0.82834508  0.36527565  1
  In  In41  1  -0.00321454  0.80153860  0.87001832  1
  In  In42  1  0.32161899  0.17336724  0.36466436  1
  In  In43  1  0.32101681  0.16693001  0.88238718  1
  In  In44  1  0.31927252  0.49055190  0.36222456  1
  In  In45  1  0.32674040  0.50266274  0.88170058  1
  In  In46  1  0.35228254  0.82816163  0.37692340  1
  In  In47  1  0.32949186  0.83990828  0.88173393  1
  In  In48  1  0.67494071  0.16953154  0.36049434  1
  In  In49  1  0.68164786  0.18027346  0.86889144  1
  In  In50  1  0.67611930  0.51168924  0.36819334  1
  In  In51  1  0.66991024  0.49931007  0.87897196  1
  In  In52  1  0.65624703  0.82097731  0.36554594  1
  In  In53  1  0.66622372  0.83110555  0.87854643  1
  In  In54  1  0.14779534  0.00037738  0.12474509  1
  In  In55  1  0.15747388  0.01485060  0.62512038  1
  In  In56  1  0.16720180  0.34791987  0.10694052  1
  In  In57  1  0.14413292  0.34791827  0.63783621  1
  In  In58  1  0.17522331  0.64506443  0.13980131  1
  In  In59  1  0.17050748  0.65771149  0.62791219  1
  In  In60  1  0.51795128  0.00294858  0.12351877  1
  In  In61  1  0.51718594  -0.00867387  0.62623220  1
  In  In62  1  0.49623772  0.34044159  0.12975216  1
  In  In63  1  0.50481433  0.34510522  0.62757490  1
  In  In64  1  0.50152021  0.66733859  0.12072395  1
  In  In65  1  0.49897150  0.67678017  0.62486301  1
  In  In66  1  0.83673358  -0.00067192  0.12074895  1
  In  In67  1  0.82772967  -0.01394228  0.62863717  1
  In  In68  1  0.83050942  0.32564548  0.11111756  1
  In  In69  1  0.82528939  0.35936081  0.65123249  1
  In  In70  1  0.83093371  0.66660191  0.12265688  1
  In  In71  1  0.84542464  0.64815664  0.64393814  1
  In  In72  1  0.50650934  0.17034010  0.00645485  1
  In  In73  1  0.33109767  0.66904466  0.75432103  1
  In  In74  1  0.33846114  -0.00299181  0.76602214  1
  In  In75  1  -0.00344050  0.00082880  0.75174058  1
  In  In76  1  0.16926277  0.17752268  0.48199445  1
  In  In77  1  0.16400748  0.82450872  -0.00039026  1
  In  In78  1  0.50057448  0.16368979  0.49566814  1
  In  In79  1  0.33805502  0.32813378  0.74695610  1
  In  In80  1  0.33709399  -0.00211296  0.25484801  1
  In  In81  1  0.50514921  0.51157711  0.49653618  1
  In  In82  1  -0.00470152  0.33067185  0.23667760  1
  In  In83  1  0.83885208  0.17018274  0.49562770  1
  In  In84  1  0.82670614  0.81974819  0.50192975  1
  In  In85  1  0.17483838  0.82852321  0.49907400  1
  Cu  Cu86  1  0.67262970  0.33887672  0.50685436  1
  Cu  Cu87  1  0.83522857  0.83380894  0.24171279  1
  Cu  Cu88  1  0.50527749  0.83097597  0.75605366  1
  Cu  Cu89  1  0.50962858  0.49891761  0.75647036  1
  Cu  Cu90  1  0.50535206  0.83394212  0.24453492  1
  Cu  Cu91  1  0.00153670  0.65836734  0.50197017  1
  Cu  Cu92  1  0.33098396  0.66296272  0.00311518  1
  Cu  Cu93  1  0.66435941  0.33813439  0.00337761  1
  Cu  Cu94  1  0.66461231  -0.01228134  0.49973159  1
  Cu  Cu95  1  0.16154382  0.16734460  0.24082905  1
  Cu  Cu96  1  0.67040465  0.66567234  0.00120013  1
  Cu  Cu97  1  0.16297066  0.82872229  0.24592958  1
  Cu  Cu98  1  -0.00275494  -0.00662328  0.00027205  1
  Cu  Cu99  1  0.33152754  0.66232197  0.49229768  1
  Cu  Cu100  1  0.32384870  0.33940060  0.49323293  1
  Cu  Cu101  1  -0.00174717  0.66762744  0.00289513  1
  Cu  Cu102  1  0.82791978  0.50284701  0.24599617  1
  Cu  Cu103  1  0.33777516  -0.00584993  0.00860763  1
  Cu  Cu104  1  0.34323916  -0.00726606  0.50214032  1
  Cu  Cu105  1  0.16086046  0.17023791  0.76417471  1
  Cu  Cu106  1  0.83768284  0.17070502  0.75891405  1
  Cu  Cu107  1  0.49727613  0.50411847  0.24590651  1
  Cu  Cu108  1  0.00000464  0.00349883  0.48871189  1
  Cu  Cu109  1  0.33385750  0.33660974  0.00372657  1
  Cu  Cu110  1  0.67013024  -0.00028638  0.00155930  1
  Cu  Cu111  1  -0.00762230  0.35109130  0.50667349  1
  Cu  Cu112  1  0.50397025  0.17243390  0.24428475  1
  Cu  Cu113  1  0.82448639  0.83247646  0.75580654  1
  Cu  Cu114  1  0.50915974  0.16003810  0.75193833  1
  Se  Se115  1  0.08449175  0.07964554  0.04606649  1
  Se  Se116  1  0.07555530  0.08968713  0.54639064  1
  Se  Se117  1  0.06331777  0.40740102  0.04142012  1
  Se  Se118  1  0.08787282  0.42529059  0.55483561  1
  Se  Se119  1  0.08366452  0.73802078  0.06729410  1
  Se  Se120  1  0.07517520  0.74784449  0.55920027  1
  Se  Se121  1  0.41093006  0.08178885  0.06608487  1
  Se  Se122  1  0.41199292  0.08009370  0.56444872  1
  Se  Se123  1  0.42048287  0.41820425  0.05446330  1
  Se  Se124  1  0.41039212  0.41218449  0.55335312  1
  Se  Se125  1  0.41605977  0.74985610  0.05000889  1
  Se  Se126  1  0.42057849  0.74178380  0.54350708  1
  Se  Se127  1  0.75062403  0.08641928  0.05414868  1
  Se  Se128  1  0.74718826  0.07283829  0.55504532  1
  Se  Se129  1  0.74911123  0.42276823  0.05327870  1
  Se  Se130  1  0.75389664  0.41776158  0.56415172  1
  Se  Se131  1  0.75337569  0.75227333  0.05126186  1
  Se  Se132  1  0.75233477  0.73803060  0.57494322  1
  Se  Se133  1  0.24875406  0.24784122  0.04908176  1
  Se  Se134  1  0.24460694  0.26207056  0.55692050  1
  Se  Se135  1  0.24599304  0.58073585  0.05573485  1
  Se  Se136  1  0.24697379  0.58551209  0.54920177  1
  Se  Se137  1  0.25017975  0.91708381  0.06480026  1
  Se  Se138  1  0.25495531  0.92537830  0.56437507  1
  Se  Se139  1  0.59532405  0.25382044  0.06926523  1
  Se  Se140  1  0.58973914  0.25403435  0.56004874  1
  Se  Se141  1  0.58318273  0.58340277  0.05197237  1
  Se  Se142  1  0.59113031  0.58516249  0.56810790  1
  Se  Se143  1  0.58274260  0.91618979  0.04962389  1
  Se  Se144  1  0.58342372  0.90426362  0.55309149  1
  Se  Se145  1  0.92438439  0.26181801  0.03886335  1
  Se  Se146  1  0.91411393  0.26333335  0.56202375  1
  Se  Se147  1  0.91201001  0.58328203  0.05196661  1
  Se  Se148  1  0.91523194  0.58310321  0.55887728  1
  Se  Se149  1  0.91466606  0.90908934  0.05219487  1
  Se  Se150  1  0.92227458  0.92465100  0.55122132  1
  Se  Se151  1  0.06416344  0.26946395  0.43872234  1
  Se  Se152  1  0.11454888  0.21782464  0.93937126  1
  Se  Se153  1  0.08365596  0.57948062  0.44415593  1
  Se  Se154  1  0.08543864  0.58672344  0.94953377  1
  Se  Se155  1  0.08222431  0.91841323  0.43630652  1
  Se  Se156  1  0.07313333  0.91179997  0.93771141  1
  Se  Se157  1  0.40591886  0.25554091  0.43802183  1
  Se  Se158  1  0.41491800  0.25692787  0.94243451  1
  Se  Se159  1  0.41104322  0.58446345  0.42961133  1
  Se  Se160  1  0.41455267  0.57782823  0.95057478  1
  Se  Se161  1  0.42639300  0.90917753  0.45168604  1
  Se  Se162  1  0.41677361  0.91097972  0.95327442  1
  Se  Se163  1  0.74319702  0.25894967  0.43978376  1
  Se  Se164  1  0.74840755  0.25439016  0.94933251  1
  Se  Se165  1  0.74363394  0.58643160  0.44779031  1
  Se  Se166  1  0.75311039  0.58049264  0.94919874  1
  Se  Se167  1  0.74887794  0.91631116  0.43698292  1
  Se  Se168  1  0.75044699  0.91551355  0.94695105  1
  Se  Se169  1  0.26291302  0.06993387  0.43859931  1
  Se  Se170  1  0.25573864  0.07286326  0.95199620  1
  Se  Se171  1  0.23991867  0.42168827  0.44152619  1
  Se  Se172  1  0.24836598  0.41972173  0.95211157  1
  Se  Se173  1  0.25145262  0.74009653  0.43018714  1
  Se  Se174  1  0.25027646  0.73441841  0.93642976  1
  Se  Se175  1  0.59436750  0.07565465  0.43781463  1
  Se  Se176  1  0.59271468  0.08491599  0.94036176  1
  Se  Se177  1  0.59013957  0.41170461  0.44149503  1
  Se  Se178  1  0.58093222  0.42110104  0.95049130  1
  Se  Se179  1  0.58831821  0.74716928  0.44538300  1
  Se  Se180  1  0.58370833  0.74989808  0.94977356  1
  Se  Se181  1  0.91917003  0.07911731  0.42780654  1
  Se  Se182  1  0.91099601  0.08030199  0.95346295  1
  Se  Se183  1  0.90481216  0.42671466  0.45031442  1
  Se  Se184  1  0.93004204  0.40641648  0.95384491  1
  Se  Se185  1  0.92253843  0.73848538  0.44004308  1
  Se  Se186  1  0.91382090  0.75233092  0.95242745  1
  Se  Se187  1  0.24302788  0.25256897  0.29352494  1
  Se  Se188  1  0.24482956  0.25561298  0.81439529  1
  Se  Se189  1  0.25712982  0.59221596  0.29830615  1
  Se  Se190  1  0.24207175  0.56733508  0.80191798  1
  Se  Se191  1  0.24427935  0.90441870  0.31070333  1
  Se  Se192  1  0.23564765  0.90486243  0.80764248  1
  Se  Se193  1  0.58454197  0.25542090  0.30126465  1
  Se  Se194  1  0.58705181  0.25187459  0.80128475  1
  Se  Se195  1  0.58404536  0.58417434  0.29997552  1
  Se  Se196  1  0.58730431  0.58595196  0.80931558  1
  Se  Se197  1  0.58752269  0.91812589  0.29759533  1
  Se  Se198  1  0.58520746  0.91862618  0.80781133  1
  Se  Se199  1  0.90417820  0.24596751  0.30291935  1
  Se  Se200  1  0.91768154  0.25179455  0.81534067  1
  Se  Se201  1  0.91351286  0.58187451  0.30230742  1
  Se  Se202  1  0.93508755  0.60103993  0.81398061  1
  Se  Se203  1  0.92080145  0.91756390  0.29530078  1
  Se  Se204  1  0.91107020  0.91084464  0.81491652  1
  Se  Se205  1  0.07849178  0.08230273  0.29199735  1
  Se  Se206  1  0.07661405  0.08855306  0.81878924  1
  Se  Se207  1  0.07691973  0.41951458  0.30477223  1
  Se  Se208  1  0.08146791  0.41526926  0.81493111  1
  Se  Se209  1  0.07519952  0.74679291  0.29734354  1
  Se  Se210  1  0.09630139  0.76001185  0.79682423  1
  Se  Se211  1  0.42937067  0.09206325  0.31202963  1
  Se  Se212  1  0.42913935  0.09345557  0.81975319  1
  Se  Se213  1  0.41414625  0.41630820  0.29770312  1
  Se  Se214  1  0.42164409  0.42096746  0.81175937  1
  Se  Se215  1  0.42136963  0.75162810  0.29856965  1
  Se  Se216  1  0.42234912  0.75530239  0.81632238  1
  Se  Se217  1  0.75065382  0.08619899  0.29173256  1
  Se  Se218  1  0.75065635  0.08207215  0.80246958  1
  Se  Se219  1  0.74744239  0.41722878  0.30040714  1
  Se  Se220  1  0.75271231  0.41820249  0.81003773  1
  Se  Se221  1  0.75468676  0.75315677  0.30096155  1
  Se  Se222  1  0.74869012  0.74635599  0.81132332  1
  Se  Se223  1  0.24861296  0.08284681  0.18906010  1
  Se  Se224  1  0.24193898  0.08836460  0.70458947  1
  Se  Se225  1  0.24242548  0.41337253  0.18665078  1
  Se  Se226  1  0.25296059  0.42699127  0.69061555  1
  Se  Se227  1  0.25120862  0.74495052  0.20022986  1
  Se  Se228  1  0.24825613  0.76142178  0.68989830  1
  Se  Se229  1  0.58697240  0.08297022  0.19916151  1
  Se  Se230  1  0.59010173  0.07875853  0.69536236  1
  Se  Se231  1  0.58428211  0.42041149  0.19609337  1
  Se  Se232  1  0.58714058  0.40982931  0.70361669  1
  Se  Se233  1  0.58575087  0.75098529  0.18909327  1
  Se  Se234  1  0.58241129  0.74565700  0.69989368  1
  Se  Se235  1  0.92158787  0.08722306  0.18419141  1
  Se  Se236  1  0.90810692  0.09282068  0.68675414  1
  Se  Se237  1  0.90705537  0.42650388  0.18202382  1
  Se  Se238  1  0.94993062  0.39932033  0.69781816  1
  Se  Se239  1  0.91762285  0.74580517  0.19292136  1
  Se  Se240  1  0.91371493  0.75520741  0.70251628  1
  Se  Se241  1  0.08685652  0.24504693  0.17541042  1
  Se  Se242  1  0.07995680  0.24952417  0.70557795  1
  Se  Se243  1  0.07517369  0.57250522  0.19864454  1
  Se  Se244  1  0.07788478  0.59515224  0.69653197  1
  Se  Se245  1  0.08002096  0.91604613  0.19826510  1
  Se  Se246  1  0.09031628  0.91423571  0.68935511  1
  Se  Se247  1  0.41498952  0.25597538  0.20008547  1
  Se  Se248  1  0.42898630  0.23441188  0.68707042  1
  Se  Se249  1  0.41654906  0.58605739  0.18996935  1
  Se  Se250  1  0.42663498  0.57717654  0.69589835  1
  Se  Se251  1  0.42058988  0.91399847  0.18642598  1
  Se  Se252  1  0.42201870  0.90984104  0.69476849  1
  Se  Se253  1  0.75394977  0.26596866  0.19413862  1
  Se  Se254  1  0.75183283  0.25056423  0.70301507  1
  Se  Se255  1  0.74519158  0.58901269  0.19433231  1
  Se  Se256  1  0.75696666  0.57157276  0.71077275  1
  Se  Se257  1  0.75098508  0.91749937  0.18972043  1
  Se  Se258  1  0.74408311  0.91854261  0.70279466  1
