# generated using pymatgen
data_In86Cu29Se144
_symmetry_space_group_name_H-M   'P 1'
_cell_length_a   17.58512072
_cell_length_b   17.57930962
_cell_length_c   23.44537190
_cell_angle_alpha   89.97190615
_cell_angle_beta   89.97310546
_cell_angle_gamma   90.00125761
_symmetry_Int_Tables_number   1
_chemical_formula_structural   In86Cu29Se144
_chemical_formula_sum   'In86 Cu29 Se144'
_cell_volume   7247.76653287
_cell_formula_units_Z   1
loop_
 _symmetry_equiv_pos_site_id
 _symmetry_equiv_pos_as_xyz
  1  'x, y, z'
loop_
 _atom_site_type_symbol
 _atom_site_label
 _atom_site_symmetry_multiplicity
 _atom_site_fract_x
 _atom_site_fract_y
 _atom_site_fract_z
 _atom_site_occupancy
  In  In0  1  0.00492663  0.17059984  0.13127159  1
  In  In1  1  -0.00981868  0.18155639  0.61758507  1
  In  In2  1  -0.01010416  0.49494137  0.11248842  1
  In  In3  1  0.01529486  0.50017256  0.61838514  1
  In  In4  1  0.00942140  0.83169643  0.12964374  1
  In  In5  1  -0.01514859  0.81433529  0.60802755  1
  In  In6  1  0.31487796  0.17168513  0.12524803  1
  In  In7  1  0.33924310  0.16383255  0.63013457  1
  In  In8  1  0.34317398  0.50283209  0.11285099  1
  In  In9  1  0.32346207  0.48706540  0.62443334  1
  In  In10  1  0.33844250  0.82201185  0.13364064  1
  In  In11  1  0.33154635  0.84434938  0.62693098  1
  In  In12  1  0.68145753  0.17242539  0.12597652  1
  In  In13  1  0.68066881  0.18611177  0.61703827  1
  In  In14  1  0.66033164  0.50247390  0.12971112  1
  In  In15  1  0.65915471  0.50430514  0.62800399  1
  In  In16  1  0.65183215  0.82253634  0.12195456  1
  In  In17  1  0.67041692  0.82135827  0.62537031  1
  In  In18  1  0.15622603  -0.00763453  0.36832839  1
  In  In19  1  0.18055588  -0.00219907  0.87377088  1
  In  In20  1  0.16300468  0.34931523  0.37948526  1
  In  In21  1  0.17123048  0.33105715  0.88636424  1
  In  In22  1  0.16860712  0.65654879  0.38395464  1
  In  In23  1  0.14956947  0.65325182  0.86913762  1
  In  In24  1  0.50209627  0.01303734  0.37449735  1
  In  In25  1  0.48331832  0.00416908  0.87698882  1
  In  In26  1  0.50336195  0.32924161  0.37968716  1
  In  In27  1  0.51036772  0.34297704  0.87114076  1
  In  In28  1  0.48886120  0.65835994  0.37202610  1
  In  In29  1  0.50689889  0.65180475  0.88223494  1
  In  In30  1  0.84155600  -0.01091133  0.38042197  1
  In  In31  1  0.83067430  0.00168314  0.87311304  1
  In  In32  1  0.82613370  0.33303725  0.36765345  1
  In  In33  1  0.84082295  0.34893946  0.87153449  1
  In  In34  1  0.84176958  0.67629320  0.37327090  1
  In  In35  1  0.82736228  0.65891904  0.86912626  1
  In  In36  1  -0.00731485  0.16329986  0.37283973  1
  In  In37  1  0.00565258  0.18449206  0.87374089  1
  In  In38  1  0.01108542  0.50766910  0.37405069  1
  In  In39  1  -0.00383043  0.50350232  0.88661567  1
  In  In40  1  -0.01036523  0.83375604  0.38243523  1
  In  In41  1  0.01343046  0.82779951  0.87151987  1
  In  In42  1  0.34727842  0.16782110  0.37345603  1
  In  In43  1  0.32790614  0.16111230  0.86943899  1
  In  In44  1  0.32514098  0.50823680  0.38204296  1
  In  In45  1  0.33567820  0.49146388  0.88308066  1
  In  In46  1  0.32266608  0.82504352  0.36879933  1
  In  In47  1  0.33075433  0.84545493  0.87329799  1
  In  In48  1  0.65853855  0.17424089  0.38044444  1
  In  In49  1  0.65831266  0.17311719  0.86975455  1
  In  In50  1  0.65980947  0.48786904  0.36454495  1
  In  In51  1  0.66753729  0.50139496  0.87504130  1
  In  In52  1  0.68117247  0.83051058  0.37576952  1
  In  In53  1  0.66621457  0.80984917  0.87249807  1
  In  In54  1  0.15970689  0.00773320  0.13509014  1
  In  In55  1  0.18027710  -0.00383291  0.62388248  1
  In  In56  1  0.16825215  0.32436537  0.11708422  1
  In  In57  1  0.16932426  0.36149647  0.62795382  1
  In  In58  1  0.17524464  0.67067926  0.12400395  1
  In  In59  1  0.15102700  0.65056373  0.61128266  1
  In  In60  1  0.50297983  -0.01794804  0.12578474  1
  In  In61  1  0.48515388  0.00434995  0.62607176  1
  In  In62  1  0.49359035  0.35142964  0.12145123  1
  In  In63  1  0.50051112  0.33460999  0.62599913  1
  In  In64  1  0.49688889  0.66385911  0.12616327  1
  In  In65  1  0.51650635  0.66577782  0.62814388  1
  In  In66  1  0.83990904  0.00872598  0.13053217  1
  In  In67  1  0.83909105  0.00736261  0.61537006  1
  In  In68  1  0.81875466  0.35980138  0.14884021  1
  In  In69  1  0.82935190  0.32066923  0.62333388  1
  In  In70  1  0.83826577  0.61970523  0.13227878  1
  In  In71  1  0.82761323  0.66647505  0.62751175  1
  In  In72  1  0.66297444  0.00433478  0.74724145  1
  In  In73  1  0.50112156  0.83475701  0.50454894  1
  In  In74  1  0.84116115  0.17421424  -0.00062543  1
  In  In75  1  -0.00166444  0.33894048  0.74563888  1
  In  In76  1  0.83297272  0.82070826  0.00299346  1
  In  In77  1  0.16892023  0.16755391  0.50225784  1
  In  In78  1  0.33548119  0.66507441  0.75564848  1
  In  In79  1  0.00457073  -0.00006633  0.73562958  1
  In  In80  1  0.33248340  0.33413605  0.24569283  1
  In  In81  1  0.66905506  -0.00118254  0.25389497  1
  In  In82  1  -0.00084084  0.66654836  0.25149878  1
  In  In83  1  0.17509569  0.82614529  0.00204664  1
  In  In84  1  0.83706160  0.50197278  0.49207236  1
  In  In85  1  0.49423344  0.17097658  0.00083129  1
  Cu  Cu86  1  0.66711565  0.00465757  0.49716873  1
  Cu  Cu87  1  0.67137159  0.34423669  0.00227765  1
  Cu  Cu88  1  0.33869200  0.33614483  0.50196780  1
  Cu  Cu89  1  0.50257888  0.83558613  0.74786114  1
  Cu  Cu90  1  0.66986317  0.66503880  0.50158114  1
  Cu  Cu91  1  0.16774847  0.82510361  0.74829284  1
  Cu  Cu92  1  0.66346759  -0.00990301  0.00008533  1
  Cu  Cu93  1  0.50296171  0.16718931  0.25324875  1
  Cu  Cu94  1  0.00832600  0.00654795  0.00758442  1
  Cu  Cu95  1  0.49658711  0.17390973  0.74953715  1
  Cu  Cu96  1  0.49529838  0.82760297  0.24991028  1
  Cu  Cu97  1  0.84144830  0.83014590  0.74502706  1
  Cu  Cu98  1  0.00161098  -0.00195543  0.49574285  1
  Cu  Cu99  1  0.16962253  0.50427858  0.25193209  1
  Cu  Cu100  1  0.33473425  0.66286949  0.49992411  1
  Cu  Cu101  1  0.16738949  0.83756032  0.25151891  1
  Cu  Cu102  1  0.33715093  0.66868515  0.00090634  1
  Cu  Cu103  1  0.66329515  0.33868552  0.49668170  1
  Cu  Cu104  1  0.66410795  0.65742617  0.00281272  1
  Cu  Cu105  1  -0.00066662  0.33237195  0.00419860  1
  Cu  Cu106  1  0.50276745  0.49969759  0.75265802  1
  Cu  Cu107  1  0.49549608  0.50278922  0.24787330  1
  Cu  Cu108  1  0.83621843  0.83109520  0.25161399  1
  Cu  Cu109  1  0.82867485  0.50241475  0.74954226  1
  Cu  Cu110  1  0.32980068  0.00016136  0.00073564  1
  Cu  Cu111  1  0.33534054  0.00105358  0.49929410  1
  Cu  Cu112  1  0.83875256  0.16929188  0.25163499  1
  Cu  Cu113  1  0.16836018  0.16770060  0.74961623  1
  Cu  Cu114  1  0.16427615  0.16874929  0.25183426  1
  Se  Se115  1  0.08847819  0.09069202  0.05985792  1
  Se  Se116  1  0.07647472  0.07577024  0.56199237  1
  Se  Se117  1  0.08671823  0.41581407  0.05321468  1
  Se  Se118  1  0.07046275  0.39614062  0.55299233  1
  Se  Se119  1  0.07396752  0.74140899  0.05494772  1
  Se  Se120  1  0.10327573  0.76671224  0.55488308  1
  Se  Se121  1  0.41243352  0.07578757  0.06373798  1
  Se  Se122  1  0.41457965  0.08759700  0.55170216  1
  Se  Se123  1  0.40610956  0.40477795  0.04499239  1
  Se  Se124  1  0.42030686  0.42052367  0.55628609  1
  Se  Se125  1  0.41742511  0.75237749  0.05625730  1
  Se  Se126  1  0.41183689  0.74216257  0.56376318  1
  Se  Se127  1  0.74677103  0.07353646  0.05335953  1
  Se  Se128  1  0.75008147  0.08840956  0.55131257  1
  Se  Se129  1  0.75131401  0.42197335  0.06210775  1
  Se  Se130  1  0.74511785  0.41785549  0.55690581  1
  Se  Se131  1  0.74716696  0.73221512  0.06576254  1
  Se  Se132  1  0.75350019  0.74979155  0.55196095  1
  Se  Se133  1  0.26080572  0.25603741  0.04728934  1
  Se  Se134  1  0.25549613  0.25847502  0.56368775  1
  Se  Se135  1  0.25044814  0.58755310  0.05238923  1
  Se  Se136  1  0.25267617  0.57685772  0.55313777  1
  Se  Se137  1  0.25332475  0.92136998  0.06597326  1
  Se  Se138  1  0.25267514  0.91461786  0.54865668  1
  Se  Se139  1  0.59339994  0.25640830  0.05901518  1
  Se  Se140  1  0.58175129  0.25442072  0.55252472  1
  Se  Se141  1  0.57672683  0.57822288  0.05656869  1
  Se  Se142  1  0.58328677  0.58278946  0.55159732  1
  Se  Se143  1  0.57850340  0.90694821  0.04913628  1
  Se  Se144  1  0.59162255  0.92656362  0.56398740  1
  Se  Se145  1  0.91387311  0.26258952  0.06955453  1
  Se  Se146  1  0.90607130  0.25054701  0.54574655  1
  Se  Se147  1  0.92136814  0.59240820  0.04660952  1
  Se  Se148  1  0.92078165  0.58854083  0.55832449  1
  Se  Se149  1  0.92290558  0.92240512  0.05878990  1
  Se  Se150  1  0.91370581  0.91689503  0.54848828  1
  Se  Se151  1  0.07922959  0.25253584  0.44058054  1
  Se  Se152  1  0.08299421  0.24698678  0.95324899  1
  Se  Se153  1  0.07706008  0.58588001  0.45171900  1
  Se  Se154  1  0.08583569  0.58359259  0.95170488  1
  Se  Se155  1  0.08518672  0.91389583  0.44492320  1
  Se  Se156  1  0.08223423  0.92296359  0.94460557  1
  Se  Se157  1  0.41771728  0.24894758  0.44872184  1
  Se  Se158  1  0.41400667  0.25483689  0.93298177  1
  Se  Se159  1  0.42035400  0.57915900  0.44997960  1
  Se  Se160  1  0.41725701  0.57900751  0.95000325  1
  Se  Se161  1  0.41419749  0.91937992  0.43814364  1
  Se  Se162  1  0.41367846  0.91568528  0.94920042  1
  Se  Se163  1  0.74827906  0.25593187  0.44389607  1
  Se  Se164  1  0.74395416  0.25849879  0.94053012  1
  Se  Se165  1  0.74163460  0.58816498  0.43351189  1
  Se  Se166  1  0.75131910  0.58255778  0.94546043  1
  Se  Se167  1  0.74930954  0.91603512  0.44908663  1
  Se  Se168  1  0.74503492  0.91396880  0.93900544  1
  Se  Se169  1  0.25414894  0.07885856  0.43694309  1
  Se  Se170  1  0.24961619  0.08421059  0.94642170  1
  Se  Se171  1  0.25093027  0.41800381  0.45124155  1
  Se  Se172  1  0.23500493  0.43181985  0.95059414  1
  Se  Se173  1  0.25297361  0.74761304  0.44687849  1
  Se  Se174  1  0.25664957  0.73938410  0.93325761  1
  Se  Se175  1  0.57925806  0.08751634  0.44950087  1
  Se  Se176  1  0.58880847  0.07749478  0.94217105  1
  Se  Se177  1  0.58003261  0.42268764  0.44467471  1
  Se  Se178  1  0.58438625  0.42134400  0.94719324  1
  Se  Se179  1  0.58660453  0.74549948  0.44070383  1
  Se  Se180  1  0.58380236  0.74453106  0.94924807  1
  Se  Se181  1  0.91588823  0.08290185  0.44649992  1
  Se  Se182  1  0.92818075  0.07695746  0.93990971  1
  Se  Se183  1  0.92389319  0.40993634  0.43444825  1
  Se  Se184  1  0.91259672  0.41526633  0.95273947  1
  Se  Se185  1  0.91692758  0.74453163  0.45096506  1
  Se  Se186  1  0.92348720  0.74412385  0.93597218  1
  Se  Se187  1  0.24431283  0.24882044  0.31326904  1
  Se  Se188  1  0.24323073  0.25178499  0.80842642  1
  Se  Se189  1  0.25050965  0.58736814  0.30649235  1
  Se  Se190  1  0.24570403  0.57090458  0.80912588  1
  Se  Se191  1  0.25301664  0.92163354  0.30249162  1
  Se  Se192  1  0.24824533  0.91519039  0.79741736  1
  Se  Se193  1  0.58355595  0.25300804  0.30459917  1
  Se  Se194  1  0.58430852  0.25586049  0.79871725  1
  Se  Se195  1  0.57859768  0.58329491  0.30382390  1
  Se  Se196  1  0.58652341  0.58556496  0.80371924  1
  Se  Se197  1  0.57615902  0.90634029  0.31191107  1
  Se  Se198  1  0.57983611  0.91474515  0.81355584  1
  Se  Se199  1  0.92081356  0.25435263  0.30350286  1
  Se  Se200  1  0.90680029  0.24470788  0.80388391  1
  Se  Se201  1  0.90743615  0.57313020  0.30632244  1
  Se  Se202  1  0.91758848  0.57489946  0.80706904  1
  Se  Se203  1  0.91929968  0.91430153  0.30409119  1
  Se  Se204  1  0.91619253  0.91335615  0.80604490  1
  Se  Se205  1  0.07977129  0.08473423  0.30387472  1
  Se  Se206  1  0.08625793  0.08639446  0.80807682  1
  Se  Se207  1  0.08508827  0.42010034  0.30212702  1
  Se  Se208  1  0.08186317  0.41650237  0.81644584  1
  Se  Se209  1  0.08829185  0.75516558  0.31321843  1
  Se  Se210  1  0.08032874  0.74317597  0.79697018  1
  Se  Se211  1  0.41676961  0.08137895  0.29941734  1
  Se  Se212  1  0.41571540  0.08374302  0.79974853  1
  Se  Se213  1  0.41672053  0.42191174  0.31127700  1
  Se  Se214  1  0.41704149  0.42004362  0.80642703  1
  Se  Se215  1  0.41118970  0.74482227  0.30328312  1
  Se  Se216  1  0.42746304  0.75637921  0.81378538  1
  Se  Se217  1  0.75779302  0.08829902  0.31375580  1
  Se  Se218  1  0.75729740  0.09392176  0.80520975  1
  Se  Se219  1  0.75007608  0.41626805  0.29656468  1
  Se  Se220  1  0.74787059  0.41737163  0.80354204  1
  Se  Se221  1  0.75136118  0.74723861  0.30159468  1
  Se  Se222  1  0.75502486  0.74898501  0.79796180  1
  Se  Se223  1  0.25079702  0.08587262  0.20140842  1
  Se  Se224  1  0.25048768  0.08211729  0.69658123  1
  Se  Se225  1  0.24526133  0.42554092  0.18652883  1
  Se  Se226  1  0.25616791  0.41406410  0.70567263  1
  Se  Se227  1  0.24722246  0.74769255  0.20136397  1
  Se  Se228  1  0.24909287  0.74701180  0.68732581  1
  Se  Se229  1  0.58185498  0.08796302  0.18854398  1
  Se  Se230  1  0.57701082  0.09525707  0.68610532  1
  Se  Se231  1  0.57745549  0.41480117  0.19786576  1
  Se  Se232  1  0.58408753  0.41553499  0.69689526  1
  Se  Se233  1  0.58024128  0.74474958  0.19830347  1
  Se  Se234  1  0.58881242  0.75096542  0.70107952  1
  Se  Se235  1  0.92243644  0.08468519  0.20008036  1
  Se  Se236  1  0.90820748  0.09723214  0.69157206  1
  Se  Se237  1  0.93355664  0.42075312  0.19761548  1
  Se  Se238  1  0.90693896  0.42683335  0.68439351  1
  Se  Se239  1  0.90626855  0.74891056  0.18504602  1
  Se  Se240  1  0.92197636  0.74401107  0.69295330  1
  Se  Se241  1  0.08891106  0.25706724  0.19665996  1
  Se  Se242  1  0.09103901  0.24588060  0.68720308  1
  Se  Se243  1  0.08804471  0.58027671  0.18833690  1
  Se  Se244  1  0.08989778  0.57512766  0.69371562  1
  Se  Se245  1  0.07920058  0.91838660  0.20110786  1
  Se  Se246  1  0.08947828  0.90136260  0.68254357  1
  Se  Se247  1  0.42494449  0.24272707  0.18690474  1
  Se  Se248  1  0.41250531  0.25689085  0.69649131  1
  Se  Se249  1  0.40917029  0.58116502  0.19323117  1
  Se  Se250  1  0.42385011  0.57918543  0.69051147  1
  Se  Se251  1  0.41522704  0.91630268  0.19912197  1
  Se  Se252  1  0.41563656  0.91870853  0.69986032  1
  Se  Se253  1  0.74835440  0.25057312  0.20337792  1
  Se  Se254  1  0.74537483  0.25708884  0.69958990  1
  Se  Se255  1  0.73439865  0.58775384  0.20247778  1
  Se  Se256  1  0.74436638  0.58576615  0.69630665  1
  Se  Se257  1  0.75370888  0.90864993  0.18801660  1
  Se  Se258  1  0.75998478  0.91493575  0.68927258  1
