# generated using pymatgen
data_In86Cu29Se144
_symmetry_space_group_name_H-M   'P 1'
_cell_length_a   17.58906904
_cell_length_b   17.58622275
_cell_length_c   23.45228563
_cell_angle_alpha   90.00120715
_cell_angle_beta   89.97730587
_cell_angle_gamma   89.98057074
_symmetry_Int_Tables_number   1
_chemical_formula_structural   In86Cu29Se144
_chemical_formula_sum   'In86 Cu29 Se144'
_cell_volume   7254.38397868
_cell_formula_units_Z   1
loop_
 _symmetry_equiv_pos_site_id
 _symmetry_equiv_pos_as_xyz
  1  'x, y, z'
loop_
 _atom_site_type_symbol
 _atom_site_label
 _atom_site_symmetry_multiplicity
 _atom_site_fract_x
 _atom_site_fract_y
 _atom_site_fract_z
 _atom_site_occupancy
  In  In0  1  0.01219521  0.16761555  0.12660921  1
  In  In1  1  -0.00124588  0.16912029  0.61582075  1
  In  In2  1  -0.01103152  0.48869817  0.11148734  1
  In  In3  1  0.00077784  0.51123107  0.63215903  1
  In  In4  1  -0.00621385  0.83118633  0.12071244  1
  In  In5  1  -0.01299074  0.82914968  0.62436758  1
  In  In6  1  0.33735343  0.16798507  0.11387370  1
  In  In7  1  0.33493371  0.16658971  0.63180514  1
  In  In8  1  0.33728524  0.50497160  0.10878511  1
  In  In9  1  0.32405220  0.49620003  0.64775380  1
  In  In10  1  0.33352862  0.82912555  0.10958629  1
  In  In11  1  0.33837185  0.82926639  0.63489654  1
  In  In12  1  0.66418904  0.17293463  0.13301392  1
  In  In13  1  0.66038664  0.17027141  0.62520368  1
  In  In14  1  0.66176764  0.48019005  0.10137630  1
  In  In15  1  0.67249870  0.49220244  0.63208371  1
  In  In16  1  0.66583407  0.83996229  0.12032567  1
  In  In17  1  0.67239107  0.83027591  0.63211237  1
  In  In18  1  0.18239369  0.00986674  0.37430749  1
  In  In19  1  0.17409975  -0.00261162  0.87646279  1
  In  In20  1  0.15300480  0.33632172  0.37856601  1
  In  In21  1  0.17809091  0.32293091  0.87726611  1
  In  In22  1  0.16347758  0.67663882  0.37870698  1
  In  In23  1  0.16943551  0.66497689  0.86836399  1
  In  In24  1  0.51620944  -0.00072814  0.37403747  1
  In  In25  1  0.49665519  0.00050060  0.87330765  1
  In  In26  1  0.49621469  0.32146168  0.37318401  1
  In  In27  1  0.50609924  0.33789385  0.87898040  1
  In  In28  1  0.50280895  0.65369107  0.38006843  1
  In  In29  1  0.50168838  0.66836378  0.87861002  1
  In  In30  1  0.82418073  0.00794681  0.38092008  1
  In  In31  1  0.82528980  0.01030770  0.87036640  1
  In  In32  1  0.83410705  0.33427771  0.37247966  1
  In  In33  1  0.83047473  0.34808475  0.87909544  1
  In  In34  1  0.83538539  0.66535612  0.39051586  1
  In  In35  1  0.81480880  0.64875598  0.86435730  1
  In  In36  1  -0.01650656  0.18421351  0.39016112  1
  In  In37  1  0.00706555  0.17616573  0.87462170  1
  In  In38  1  -0.00116651  0.48548493  0.37254363  1
  In  In39  1  -0.01006064  0.51119655  0.87965184  1
  In  In40  1  -0.00417331  0.82418885  0.37637321  1
  In  In41  1  0.01536879  0.82903815  0.88020201  1
  In  In42  1  0.33733554  0.16608238  0.39102514  1
  In  In43  1  0.33360114  0.17281444  0.86886476  1
  In  In44  1  0.34617205  0.49434549  0.37793228  1
  In  In45  1  0.32906556  0.50019644  0.86924722  1
  In  In46  1  0.32068931  0.83350975  0.38004525  1
  In  In47  1  0.33505845  0.83237733  0.87146843  1
  In  In48  1  0.66795461  0.16670713  0.37379457  1
  In  In49  1  0.66085111  0.16148415  0.86920558  1
  In  In50  1  0.68124343  0.50668765  0.37536940  1
  In  In51  1  0.66743673  0.50153305  0.87928330  1
  In  In52  1  0.66758728  0.84791776  0.37406946  1
  In  In53  1  0.65131698  0.82127885  0.86896988  1
  In  In54  1  0.17427504  0.00509641  0.11411047  1
  In  In55  1  0.17180095  0.01348529  0.63218639  1
  In  In56  1  0.16184003  0.33053924  0.11604817  1
  In  In57  1  0.17579956  0.32712972  0.63889305  1
  In  In58  1  0.16865108  0.67013059  0.10673886  1
  In  In59  1  0.16895263  0.65088104  0.64504513  1
  In  In60  1  0.51305536  0.01211492  0.11310708  1
  In  In61  1  0.48685431  0.01153929  0.63479223  1
  In  In62  1  0.51713457  0.33061003  0.11025980  1
  In  In63  1  0.50806871  0.32687573  0.63381182  1
  In  In64  1  0.51120751  0.65625269  0.09742663  1
  In  In65  1  0.49592616  0.67098159  0.63806287  1
  In  In66  1  0.81424819  -0.00087110  0.13695618  1
  In  In67  1  0.82832851  -0.00360037  0.61909679  1
  In  In68  1  0.82449879  0.33876537  0.13840316  1
  In  In69  1  0.82124937  0.32342541  0.61584525  1
  In  In70  1  0.83513497  0.66721517  0.12295237  1
  In  In71  1  0.83295135  0.66598531  0.62693992  1
  In  In72  1  0.33318774  0.32784944  0.23981151  1
  In  In73  1  0.67275112  0.67026678  0.24567831  1
  In  In74  1  -0.00279341  0.33637153  0.75070200  1
  In  In75  1  -0.00275418  -0.00401295  0.75177415  1
  In  In76  1  0.33668959  0.66293248  0.25485749  1
  In  In77  1  -0.00633055  0.66031430  0.23386918  1
  In  In78  1  0.16168909  0.83224817  0.50237965  1
  In  In79  1  -0.00754887  0.00652822  0.25832143  1
  In  In80  1  0.50153461  0.49532856  0.51000921  1
  In  In81  1  0.50464731  0.83971268  0.51010460  1
  In  In82  1  0.83115642  0.83249760  0.00366052  1
  In  In83  1  0.34208689  0.00271023  0.24042938  1
  In  In84  1  0.16430632  0.49594753  0.51510967  1
  In  In85  1  0.83239387  0.17646441  0.00264581  1
  Cu  Cu86  1  0.66632394  0.33182196  0.49740438  1
  Cu  Cu87  1  0.82480591  0.16888768  0.74477520  1
  Cu  Cu88  1  0.66764178  0.01066408  0.49963887  1
  Cu  Cu89  1  0.32938098  0.66790323  -0.01258260  1
  Cu  Cu90  1  0.32890178  0.32915740  0.51043753  1
  Cu  Cu91  1  0.00319246  0.67425096  -0.00422360  1
  Cu  Cu92  1  0.00159355  -0.00017321  0.50245458  1
  Cu  Cu93  1  0.16591468  0.50220394  0.24725417  1
  Cu  Cu94  1  0.66922625  0.67211623  0.50672643  1
  Cu  Cu95  1  0.49844817  0.17222737  0.75432604  1
  Cu  Cu96  1  0.51141797  0.16217546  0.24984187  1
  Cu  Cu97  1  0.16403427  0.17899691  0.25121169  1
  Cu  Cu98  1  0.00883452  0.33583851  -0.00398635  1
  Cu  Cu99  1  0.49900271  0.82871013  0.24568819  1
  Cu  Cu100  1  0.33702425  0.33280953  -0.00752882  1
  Cu  Cu101  1  0.82642472  0.50246625  0.75137739  1
  Cu  Cu102  1  0.16881733  0.83110801  0.75393617  1
  Cu  Cu103  1  0.50304940  0.50102938  0.75885995  1
  Cu  Cu104  1  0.83233957  0.49769675  0.24768638  1
  Cu  Cu105  1  0.00019566  0.66051315  0.50587160  1
  Cu  Cu106  1  0.65969248  -0.00224087  -0.00591004  1
  Cu  Cu107  1  0.00363026  0.00383695  -0.00039737  1
  Cu  Cu108  1  -0.00617535  0.33364460  0.49816049  1
  Cu  Cu109  1  0.83373753  0.82947669  0.75032726  1
  Cu  Cu110  1  0.50568552  0.83588694  0.75492487  1
  Cu  Cu111  1  0.33681563  0.00419265  0.50658401  1
  Cu  Cu112  1  0.33298732  -0.00119487  -0.00888309  1
  Cu  Cu113  1  0.16128781  0.83409626  0.23752476  1
  Cu  Cu114  1  0.50711755  0.49609010  0.23226336  1
  Se  Se115  1  0.08700272  0.08999221  0.05068301  1
  Se  Se116  1  0.08628037  0.07937845  0.55642711  1
  Se  Se117  1  0.09133370  0.42423492  0.04714257  1
  Se  Se118  1  0.07168247  0.40304051  0.56867683  1
  Se  Se119  1  0.08154136  0.76206273  0.04905501  1
  Se  Se120  1  0.08459249  0.73573059  0.56630636  1
  Se  Se121  1  0.41566322  0.08053193  0.04778904  1
  Se  Se122  1  0.41883258  0.09025418  0.55652518  1
  Se  Se123  1  0.41994400  0.41081734  0.05094546  1
  Se  Se124  1  0.40504179  0.41303305  0.56995008  1
  Se  Se125  1  0.41681059  0.74479223  0.04379395  1
  Se  Se126  1  0.41198939  0.74285666  0.55863890  1
  Se  Se127  1  0.74648111  0.07321772  0.05337479  1
  Se  Se128  1  0.74943785  0.09050890  0.55694701  1
  Se  Se129  1  0.76902043  0.40681577  0.05100176  1
  Se  Se130  1  0.74417085  0.41907666  0.55201480  1
  Se  Se131  1  0.73721440  0.73727657  0.05471328  1
  Se  Se132  1  0.75379327  0.75523250  0.55798635  1
  Se  Se133  1  0.25303333  0.25328376  0.05040831  1
  Se  Se134  1  0.24542865  0.24654468  0.56237621  1
  Se  Se135  1  0.24847640  0.58191057  0.04203174  1
  Se  Se136  1  0.25940009  0.58573585  0.56708504  1
  Se  Se137  1  0.24872259  0.91610182  0.04674013  1
  Se  Se138  1  0.25677584  0.91792932  0.56164095  1
  Se  Se139  1  0.58456565  0.22720586  0.05066091  1
  Se  Se140  1  0.58053500  0.25511545  0.55350801  1
  Se  Se141  1  0.57920133  0.55982409  0.03215420  1
  Se  Se142  1  0.58736669  0.59378624  0.56546658  1
  Se  Se143  1  0.57944152  0.91103979  0.04813208  1
  Se  Se144  1  0.59190158  0.93274219  0.56702066  1
  Se  Se145  1  0.92883555  0.25972717  0.06038707  1
  Se  Se146  1  0.91062046  0.24612979  0.54873177  1
  Se  Se147  1  0.92092489  0.59347783  0.05252604  1
  Se  Se148  1  0.91524452  0.57931629  0.55773701  1
  Se  Se149  1  0.91640624  0.93409900  0.06049256  1
  Se  Se150  1  0.91708123  0.91526667  0.55265050  1
  Se  Se151  1  0.08725790  0.25059551  0.45332361  1
  Se  Se152  1  0.08943052  0.24607354  0.94844343  1
  Se  Se153  1  0.08055236  0.58389669  0.44315140  1
  Se  Se154  1  0.08417878  0.58996544  0.94238565  1
  Se  Se155  1  0.08079230  0.92529592  0.43650914  1
  Se  Se156  1  0.08612423  0.92066350  0.94724252  1
  Se  Se157  1  0.41865806  0.25621302  0.45358035  1
  Se  Se158  1  0.41978600  0.24798234  0.94125315  1
  Se  Se159  1  0.40671880  0.58960932  0.45150506  1
  Se  Se160  1  0.41314030  0.58059661  0.94034412  1
  Se  Se161  1  0.41020336  0.92181864  0.44204043  1
  Se  Se162  1  0.41779839  0.91358429  0.94259659  1
  Se  Se163  1  0.75012940  0.25188235  0.44183628  1
  Se  Se164  1  0.74050870  0.25625303  0.93904790  1
  Se  Se165  1  0.74898500  0.58256669  0.45530403  1
  Se  Se166  1  0.76065579  0.57417695  0.94773042  1
  Se  Se167  1  0.74686180  0.91831873  0.45041215  1
  Se  Se168  1  0.74503074  0.91995670  0.93757777  1
  Se  Se169  1  0.24768461  0.08500010  0.45508689  1
  Se  Se170  1  0.25274907  0.08824946  0.94128018  1
  Se  Se171  1  0.25601592  0.41200256  0.44617941  1
  Se  Se172  1  0.25105695  0.41707864  0.94322652  1
  Se  Se173  1  0.26050191  0.73526674  0.45216742  1
  Se  Se174  1  0.24481103  0.75399216  0.93926350  1
  Se  Se175  1  0.58030392  0.08894627  0.44621664  1
  Se  Se176  1  0.58034097  0.08475062  0.94257660  1
  Se  Se177  1  0.58598011  0.41578520  0.43755750  1
  Se  Se178  1  0.57735491  0.42832197  0.95058998  1
  Se  Se179  1  0.58804330  0.74612150  0.44302067  1
  Se  Se180  1  0.58261529  0.75166540  0.94915182  1
  Se  Se181  1  0.91600576  0.08041754  0.44933781  1
  Se  Se182  1  0.92238610  0.08161103  0.94003601  1
  Se  Se183  1  0.91275745  0.41954500  0.44623656  1
  Se  Se184  1  0.91899728  0.41846178  0.94920388  1
  Se  Se185  1  0.92160056  0.75127901  0.45432902  1
  Se  Se186  1  0.91368876  0.74571355  0.93626615  1
  Se  Se187  1  0.25154103  0.24749802  0.31462432  1
  Se  Se188  1  0.24622821  0.24872820  0.79830310  1
  Se  Se189  1  0.24151070  0.57350570  0.31467083  1
  Se  Se190  1  0.25819902  0.59136379  0.79931471  1
  Se  Se191  1  0.24454547  0.91024924  0.29876205  1
  Se  Se192  1  0.25139091  0.91794633  0.80292172  1
  Se  Se193  1  0.58558361  0.25243959  0.30348925  1
  Se  Se194  1  0.58446793  0.25524130  0.80519339  1
  Se  Se195  1  0.57725174  0.57564812  0.30162246  1
  Se  Se196  1  0.58696488  0.58615554  0.80927161  1
  Se  Se197  1  0.58134268  0.91389707  0.29855766  1
  Se  Se198  1  0.58796502  0.92385051  0.80449719  1
  Se  Se199  1  0.92704653  0.25767335  0.30733019  1
  Se  Se200  1  0.90315004  0.24427011  0.80946382  1
  Se  Se201  1  0.91019507  0.58086147  0.30856957  1
  Se  Se202  1  0.91694276  0.58436824  0.79938174  1
  Se  Se203  1  0.90763773  0.90839331  0.31286391  1
  Se  Se204  1  0.91031273  0.90681118  0.81546970  1
  Se  Se205  1  0.09065816  0.09411049  0.31251746  1
  Se  Se206  1  0.08790742  0.08718618  0.80766331  1
  Se  Se207  1  0.08550728  0.41555754  0.30002722  1
  Se  Se208  1  0.07934956  0.41559060  0.82092316  1
  Se  Se209  1  0.08625682  0.75248833  0.29868603  1
  Se  Se210  1  0.08000409  0.74926212  0.80163332  1
  Se  Se211  1  0.42109456  0.09144688  0.31027872  1
  Se  Se212  1  0.41609108  0.08365280  0.80307436  1
  Se  Se213  1  0.42570316  0.42282472  0.29797139  1
  Se  Se214  1  0.41937930  0.41393579  0.80729589  1
  Se  Se215  1  0.42532194  0.75791260  0.31515504  1
  Se  Se216  1  0.42143720  0.74986446  0.80519256  1
  Se  Se217  1  0.74262327  0.07530194  0.30641166  1
  Se  Se218  1  0.74413624  0.08171773  0.79681804  1
  Se  Se219  1  0.74834762  0.41838826  0.30368452  1
  Se  Se220  1  0.74636517  0.41727976  0.80531111  1
  Se  Se221  1  0.75717141  0.75026351  0.31632582  1
  Se  Se222  1  0.74597148  0.74958306  0.80209426  1
  Se  Se223  1  0.24309100  0.09735476  0.19143284  1
  Se  Se224  1  0.26169582  0.07721869  0.70237323  1
  Se  Se225  1  0.24925750  0.42805701  0.18542307  1
  Se  Se226  1  0.23678454  0.41595684  0.71193981  1
  Se  Se227  1  0.24859649  0.74969395  0.18787290  1
  Se  Se228  1  0.25310011  0.74700497  0.70138811  1
  Se  Se229  1  0.58830443  0.07434632  0.19580862  1
  Se  Se230  1  0.58033352  0.08931536  0.69770996  1
  Se  Se231  1  0.59238773  0.41135482  0.18483381  1
  Se  Se232  1  0.58262518  0.41917338  0.70014508  1
  Se  Se233  1  0.57051018  0.74369697  0.18333180  1
  Se  Se234  1  0.58707404  0.75107457  0.70067613  1
  Se  Se235  1  0.90985706  0.09307261  0.19084410  1
  Se  Se236  1  0.91163861  0.08950646  0.69065440  1
  Se  Se237  1  0.92333617  0.42036136  0.19612607  1
  Se  Se238  1  0.90215987  0.41884853  0.68835901  1
  Se  Se239  1  0.90059957  0.76586708  0.19511240  1
  Se  Se240  1  0.91811073  0.74583556  0.69871955  1
  Se  Se241  1  0.08411499  0.26017163  0.19523659  1
  Se  Se242  1  0.08119686  0.23496130  0.69637776  1
  Se  Se243  1  0.09352152  0.57738763  0.17938263  1
  Se  Se244  1  0.08352918  0.57042654  0.70980928  1
  Se  Se245  1  0.08295057  0.92279672  0.18626857  1
  Se  Se246  1  0.08816019  0.90716244  0.68895834  1
  Se  Se247  1  0.43044679  0.23929904  0.18731326  1
  Se  Se248  1  0.41435960  0.25452540  0.69990041  1
  Se  Se249  1  0.42451143  0.58407272  0.18330656  1
  Se  Se250  1  0.41758057  0.58268541  0.70436450  1
  Se  Se251  1  0.42474636  0.90722753  0.18136279  1
  Se  Se252  1  0.41780950  0.91546491  0.70124236  1
  Se  Se253  1  0.75475490  0.24251537  0.20066510  1
  Se  Se254  1  0.74284015  0.25583555  0.69474058  1
  Se  Se255  1  0.75073615  0.57212161  0.18439988  1
  Se  Se256  1  0.74599131  0.58782942  0.69653192  1
  Se  Se257  1  0.74694604  0.90041897  0.19918275  1
  Se  Se258  1  0.75654998  0.91820249  0.69691310  1
