# generated using pymatgen
data_In86Cu29Se144
_symmetry_space_group_name_H-M   'P 1'
_cell_length_a   17.56013911
_cell_length_b   17.56036270
_cell_length_c   23.42082270
_cell_angle_alpha   89.99492202
_cell_angle_beta   89.99537445
_cell_angle_gamma   89.98405116
_symmetry_Int_Tables_number   1
_chemical_formula_structural   In86Cu29Se144
_chemical_formula_sum   'In86 Cu29 Se144'
_cell_volume   7222.10104192
_cell_formula_units_Z   1
loop_
 _symmetry_equiv_pos_site_id
 _symmetry_equiv_pos_as_xyz
  1  'x, y, z'
loop_
 _atom_site_type_symbol
 _atom_site_label
 _atom_site_symmetry_multiplicity
 _atom_site_fract_x
 _atom_site_fract_y
 _atom_site_fract_z
 _atom_site_occupancy
  In  In0  1  0.00513433  0.16961231  0.11000874  1
  In  In1  1  -0.00058273  0.17059644  0.62420301  1
  In  In2  1  0.00281020  0.50988737  0.10413399  1
  In  In3  1  0.02488607  0.47884641  0.65489681  1
  In  In4  1  -0.01074010  0.82589012  0.11721992  1
  In  In5  1  -0.02870304  0.85178436  0.65426360  1
  In  In6  1  0.32215748  0.17437101  0.12422344  1
  In  In7  1  0.34594740  0.18340479  0.61717462  1
  In  In8  1  0.34835136  0.50624268  0.11370751  1
  In  In9  1  0.31415656  0.48136359  0.61705864  1
  In  In10  1  0.34206603  0.81977026  0.13104300  1
  In  In11  1  0.33654316  0.84252319  0.62449127  1
  In  In12  1  0.67250837  0.16279580  0.12527648  1
  In  In13  1  0.66471186  0.16414061  0.63105232  1
  In  In14  1  0.65195112  0.49104518  0.10570594  1
  In  In15  1  0.65207399  0.49477610  0.62289069  1
  In  In16  1  0.66091124  0.82352813  0.10042737  1
  In  In17  1  0.69501674  0.83135281  0.63205007  1
  In  In18  1  0.17538936  0.00322018  0.37413087  1
  In  In19  1  0.15879527  0.01204427  0.87303892  1
  In  In20  1  0.16821608  0.33649790  0.38658635  1
  In  In21  1  0.15866075  0.34012675  0.87091354  1
  In  In22  1  0.17047967  0.65560991  0.37808080  1
  In  In23  1  0.14310993  0.64727693  0.87334270  1
  In  In24  1  0.50020314  0.01576367  0.37087981  1
  In  In25  1  0.50372041  -0.01431104  0.87698832  1
  In  In26  1  0.50692456  0.32299233  0.37937094  1
  In  In27  1  0.50478605  0.34093702  0.87210180  1
  In  In28  1  0.48621829  0.66483121  0.37219760  1
  In  In29  1  0.51528773  0.66034740  0.89509308  1
  In  In30  1  0.83087496  -0.00209911  0.38557431  1
  In  In31  1  0.83654586  0.00278649  0.86706975  1
  In  In32  1  0.81671481  0.33049929  0.37536566  1
  In  In33  1  0.83271798  0.33141700  0.87178776  1
  In  In34  1  0.84495178  0.67344378  0.38054774  1
  In  In35  1  0.83924853  0.65603086  0.89864094  1
  In  In36  1  0.00096324  0.16573501  0.38950403  1
  In  In37  1  -0.00081131  0.16703672  0.86666682  1
  In  In38  1  0.00875912  0.51461753  0.38215619  1
  In  In39  1  0.00378361  0.49586142  0.87622835  1
  In  In40  1  -0.01136630  0.82480964  0.38266783  1
  In  In41  1  -0.02740517  0.81529880  0.85104076  1
  In  In42  1  0.33891090  0.16439668  0.37948069  1
  In  In43  1  0.31300534  0.17564555  0.88185783  1
  In  In44  1  0.33192863  0.50030535  0.37855256  1
  In  In45  1  0.33303154  0.48609098  0.88210493  1
  In  In46  1  0.33590679  0.83745319  0.36461187  1
  In  In47  1  0.34677678  0.82987503  0.88059029  1
  In  In48  1  0.65095842  0.17906024  0.39006734  1
  In  In49  1  0.67835553  0.17870684  0.86538482  1
  In  In50  1  0.66612536  0.47754468  0.37008269  1
  In  In51  1  0.67120743  0.49737184  0.88490437  1
  In  In52  1  0.67624790  0.84367805  0.37973501  1
  In  In53  1  0.66702192  0.83683490  0.88063870  1
  In  In54  1  0.17074378  0.01352533  0.11924492  1
  In  In55  1  0.14972890  0.00622507  0.62837207  1
  In  In56  1  0.18985103  0.33832565  0.10132510  1
  In  In57  1  0.17137180  0.33791592  0.62696949  1
  In  In58  1  0.18034588  0.66561627  0.12287201  1
  In  In59  1  0.15900066  0.65417330  0.62908876  1
  In  In60  1  0.50517418  -0.00960123  0.12862510  1
  In  In61  1  0.49534865  0.01745779  0.62896340  1
  In  In62  1  0.49652776  0.35415719  0.12863003  1
  In  In63  1  0.49631349  0.33143930  0.62944209  1
  In  In64  1  0.49105942  0.64913213  0.11152878  1
  In  In65  1  0.51232870  0.65181251  0.62310627  1
  In  In66  1  0.82827353  0.00224298  0.11384974  1
  In  In67  1  0.82924133  -0.00001475  0.63273916  1
  In  In68  1  0.82407115  0.32768406  0.11503686  1
  In  In69  1  0.84341513  0.32302992  0.63534329  1
  In  In70  1  0.81614381  0.65263900  0.09119554  1
  In  In71  1  0.84050345  0.67166378  0.62770867  1
  In  In72  1  0.50768594  0.83562026  0.49781450  1
  In  In73  1  0.33060734  0.66051071  0.76073521  1
  In  In74  1  0.83914488  0.49875818  0.50221204  1
  In  In75  1  0.49789947  0.17088989  0.00080841  1
  In  In76  1  0.66743635  0.00074429  0.25099261  1
  In  In77  1  0.33450198  0.01192850  0.75627412  1
  In  In78  1  0.66327896  0.66127700  0.23908890  1
  In  In79  1  0.16060606  0.83000841  -0.00879193  1
  In  In80  1  0.15752182  0.83371743  0.50389842  1
  In  In81  1  0.00143378  0.67021359  0.25153850  1
  In  In82  1  0.33919536  0.33380033  0.24969222  1
  In  In83  1  0.67827348  0.66148613  0.76104584  1
  In  In84  1  0.00222252  0.33138752  0.24299894  1
  In  In85  1  0.00032217  -0.00319663  0.23782051  1
  Cu  Cu86  1  0.33269355  0.34015945  0.50183046  1
  Cu  Cu87  1  -0.00128063  0.66976811  0.51105317  1
  Cu  Cu88  1  0.66827968  0.33441302  -0.00530516  1
  Cu  Cu89  1  0.50129514  0.17069608  0.75408495  1
  Cu  Cu90  1  0.51488782  0.83083934  0.75432426  1
  Cu  Cu91  1  0.82742229  0.17311456  0.24901153  1
  Cu  Cu92  1  0.17653605  0.83421620  0.24706627  1
  Cu  Cu93  1  0.49266613  0.49551290  0.74944021  1
  Cu  Cu94  1  -0.00484345  0.32837033  -0.01067584  1
  Cu  Cu95  1  -0.00827636  0.00244493  0.51189759  1
  Cu  Cu96  1  0.33397286  0.66177484  0.50162955  1
  Cu  Cu97  1  0.83234374  0.16789932  0.74791758  1
  Cu  Cu98  1  0.16802234  0.16513548  0.24517441  1
  Cu  Cu99  1  -0.00276615  0.00142046  -0.01144997  1
  Cu  Cu100  1  0.82923011  0.50243632  0.76151466  1
  Cu  Cu101  1  0.83033050  0.49182355  0.24254174  1
  Cu  Cu102  1  0.66619610  0.32586903  0.50492457  1
  Cu  Cu103  1  0.17228381  0.50114765  0.25110876  1
  Cu  Cu104  1  0.00161890  0.33854422  0.51019473  1
  Cu  Cu105  1  0.67263331  0.01050511  -0.00590183  1
  Cu  Cu106  1  0.33209590  0.01637052  0.49679100  1
  Cu  Cu107  1  0.67221491  -0.00473867  0.50795258  1
  Cu  Cu108  1  0.33005149  0.65758593  -0.00180242  1
  Cu  Cu109  1  0.67139419  0.65998732  0.50357036  1
  Cu  Cu110  1  0.83043597  0.83146779  0.24249791  1
  Cu  Cu111  1  0.16712242  0.17574526  0.74717853  1
  Cu  Cu112  1  0.16950752  0.83219235  0.75302124  1
  Cu  Cu113  1  0.49386157  0.82879472  0.24548152  1
  Cu  Cu114  1  0.33395804  -0.00529861  0.00156557  1
  Se  Se115  1  0.08457756  0.07969704  0.04457777  1
  Se  Se116  1  0.08284130  0.08853057  0.55249130  1
  Se  Se117  1  0.07855967  0.40626152  0.04894543  1
  Se  Se118  1  0.08282651  0.42459106  0.56147820  1
  Se  Se119  1  0.07905227  0.73714777  0.05639290  1
  Se  Se120  1  0.07183658  0.75588623  0.57328003  1
  Se  Se121  1  0.41258415  0.07544513  0.06183305  1
  Se  Se122  1  0.42234722  0.09095809  0.55035252  1
  Se  Se123  1  0.40820513  0.40285682  0.04996660  1
  Se  Se124  1  0.42069305  0.41808309  0.55665275  1
  Se  Se125  1  0.41089889  0.74527705  0.05092413  1
  Se  Se126  1  0.41582013  0.74395719  0.55998311  1
  Se  Se127  1  0.75316380  0.09524864  0.04787032  1
  Se  Se128  1  0.75021070  0.08351324  0.56152868  1
  Se  Se129  1  0.75461659  0.42072619  0.04515686  1
  Se  Se130  1  0.74878598  0.40819238  0.56218847  1
  Se  Se131  1  0.78099106  0.78181037  0.04757836  1
  Se  Se132  1  0.75409791  0.74356030  0.55464291  1
  Se  Se133  1  0.24531513  0.22911573  0.04143355  1
  Se  Se134  1  0.24858847  0.25488941  0.55356155  1
  Se  Se135  1  0.24565904  0.57511174  0.05114997  1
  Se  Se136  1  0.24570430  0.58525512  0.55558110  1
  Se  Se137  1  0.25280233  0.91052916  0.05946126  1
  Se  Se138  1  0.25425975  0.93050786  0.55661442  1
  Se  Se139  1  0.58899527  0.26004760  0.06120156  1
  Se  Se140  1  0.58092273  0.24710858  0.56178888  1
  Se  Se141  1  0.60910326  0.61163810  0.05078612  1
  Se  Se142  1  0.58176897  0.57429606  0.54483188  1
  Se  Se143  1  0.58621278  0.93067254  0.04845070  1
  Se  Se144  1  0.58901485  0.91813471  0.56995931  1
  Se  Se145  1  0.91237344  0.24793025  0.04804927  1
  Se  Se146  1  0.91415891  0.25199843  0.55419751  1
  Se  Se147  1  0.91702870  0.58156072  0.03297762  1
  Se  Se148  1  0.92896681  0.57673781  0.56899719  1
  Se  Se149  1  0.92107285  0.92288199  0.05128316  1
  Se  Se150  1  0.91402247  0.91391518  0.56362348  1
  Se  Se151  1  0.08377454  0.25400510  0.45309160  1
  Se  Se152  1  0.08186612  0.24589940  0.93828353  1
  Se  Se153  1  0.08659492  0.59145083  0.45604559  1
  Se  Se154  1  0.07918675  0.57344381  0.95412125  1
  Se  Se155  1  0.07020830  0.92801485  0.44165316  1
  Se  Se156  1  0.07101202  0.91452078  0.92838729  1
  Se  Se157  1  0.41417112  0.25312884  0.44837633  1
  Se  Se158  1  0.41008643  0.26027702  0.94095699  1
  Se  Se159  1  0.41858344  0.58140287  0.44768825  1
  Se  Se160  1  0.41781261  0.57462077  0.94775204  1
  Se  Se161  1  0.40949823  0.92423366  0.44180341  1
  Se  Se162  1  0.42155864  0.91383048  0.95219886  1
  Se  Se163  1  0.75446501  0.24563082  0.45247519  1
  Se  Se164  1  0.75178476  0.24936253  0.94475918  1
  Se  Se165  1  0.74846750  0.58324098  0.43697005  1
  Se  Se166  1  0.71555892  0.61044906  0.94806324  1
  Se  Se167  1  0.75667438  0.91018352  0.45697773  1
  Se  Se168  1  0.75480717  0.92566955  0.94124056  1
  Se  Se169  1  0.24088551  0.09362822  0.44579496  1
  Se  Se170  1  0.24981257  0.07353657  0.94692314  1
  Se  Se171  1  0.24684403  0.42615667  0.45143467  1
  Se  Se172  1  0.23492850  0.41820067  0.94655309  1
  Se  Se173  1  0.25758767  0.75109764  0.44340381  1
  Se  Se174  1  0.25284202  0.73523603  0.93358277  1
  Se  Se175  1  0.58594155  0.07267025  0.45042475  1
  Se  Se176  1  0.58834154  0.08774487  0.93509414  1
  Se  Se177  1  0.58687000  0.41110598  0.44840124  1
  Se  Se178  1  0.57835938  0.41870041  0.94937117  1
  Se  Se179  1  0.59428346  0.74047331  0.43812956  1
  Se  Se180  1  0.56813979  0.77477767  0.94877897  1
  Se  Se181  1  0.91135376  0.08421077  0.45267914  1
  Se  Se182  1  0.91414763  0.08920774  0.93852562  1
  Se  Se183  1  0.92625192  0.40841020  0.43680120  1
  Se  Se184  1  0.91099647  0.41612753  0.94203556  1
  Se  Se185  1  0.91244292  0.75210735  0.45983056  1
  Se  Se186  1  0.92816039  0.75643363  0.94530405  1
  Se  Se187  1  0.24024886  0.24919779  0.30914469  1
  Se  Se188  1  0.24894842  0.25585537  0.80343897  1
  Se  Se189  1  0.25443615  0.58420948  0.30497507  1
  Se  Se190  1  0.23904655  0.56558401  0.81083385  1
  Se  Se191  1  0.25148305  0.92433497  0.30033426  1
  Se  Se192  1  0.25111305  0.91052500  0.81347189  1
  Se  Se193  1  0.58777422  0.24586487  0.30639013  1
  Se  Se194  1  0.58524320  0.25768641  0.80268656  1
  Se  Se195  1  0.58261156  0.57924028  0.31086987  1
  Se  Se196  1  0.57357091  0.57580594  0.81047329  1
  Se  Se197  1  0.57492758  0.90545507  0.30898503  1
  Se  Se198  1  0.59350583  0.92024383  0.80410615  1
  Se  Se199  1  0.91640220  0.24336994  0.31001464  1
  Se  Se200  1  0.91526698  0.25267029  0.80028617  1
  Se  Se201  1  0.90720699  0.57258896  0.30679110  1
  Se  Se202  1  0.90958607  0.58429247  0.81695325  1
  Se  Se203  1  0.91119534  0.90974677  0.30509325  1
  Se  Se204  1  0.93060705  0.93508397  0.79728342  1
  Se  Se205  1  0.08064251  0.09054007  0.30550736  1
  Se  Se206  1  0.08475558  0.08668966  0.79571032  1
  Se  Se207  1  0.08749061  0.42395701  0.30998869  1
  Se  Se208  1  0.06855690  0.41003132  0.79986915  1
  Se  Se209  1  0.09287543  0.76172491  0.31222431  1
  Se  Se210  1  0.08651943  0.74582802  0.80245158  1
  Se  Se211  1  0.41002192  0.08588588  0.30368215  1
  Se  Se212  1  0.42404167  0.09581855  0.82160822  1
  Se  Se213  1  0.42629689  0.42019071  0.31283780  1
  Se  Se214  1  0.41103772  0.41304775  0.80420090  1
  Se  Se215  1  0.41121969  0.74501423  0.29864113  1
  Se  Se216  1  0.43511750  0.74718944  0.81151198  1
  Se  Se217  1  0.75747899  0.08732323  0.31292802  1
  Se  Se218  1  0.74720435  0.08292753  0.79904887  1
  Se  Se219  1  0.74982102  0.40743810  0.29532903  1
  Se  Se220  1  0.74218116  0.41746767  0.80883378  1
  Se  Se221  1  0.75333794  0.75202046  0.30687222  1
  Se  Se222  1  0.76306773  0.75221870  0.81933974  1
  Se  Se223  1  0.25411757  0.08071657  0.19576028  1
  Se  Se224  1  0.24962152  0.09341163  0.68687922  1
  Se  Se225  1  0.24726895  0.42086955  0.18709527  1
  Se  Se226  1  0.24813701  0.41871582  0.70096902  1
  Se  Se227  1  0.25444243  0.74072556  0.19945451  1
  Se  Se228  1  0.25265272  0.75628109  0.69189464  1
  Se  Se229  1  0.57568438  0.09185194  0.19493619  1
  Se  Se230  1  0.58179982  0.08196094  0.70337600  1
  Se  Se231  1  0.58582528  0.43279130  0.19252105  1
  Se  Se232  1  0.58158297  0.41451372  0.69849022  1
  Se  Se233  1  0.57643586  0.75726959  0.18142986  1
  Se  Se234  1  0.58803135  0.74753701  0.69173804  1
  Se  Se235  1  0.90792228  0.09465170  0.18641580  1
  Se  Se236  1  0.91853105  0.08770706  0.69435993  1
  Se  Se237  1  0.91838545  0.42352634  0.17994661  1
  Se  Se238  1  0.90889138  0.41809981  0.70496240  1
  Se  Se239  1  0.90286990  0.74117379  0.18539713  1
  Se  Se240  1  0.91559832  0.73737582  0.70802078  1
  Se  Se241  1  0.09699735  0.24882083  0.18075142  1
  Se  Se242  1  0.08117275  0.25546581  0.69227803  1
  Se  Se243  1  0.08648132  0.57556056  0.19003027  1
  Se  Se244  1  0.07830466  0.59490160  0.70859956  1
  Se  Se245  1  0.09257782  0.90319400  0.18183891  1
  Se  Se246  1  0.08657453  0.91901616  0.70325057  1
  Se  Se247  1  0.42566680  0.24331816  0.18813094  1
  Se  Se248  1  0.41317697  0.25059475  0.70127652  1
  Se  Se249  1  0.42316171  0.57624194  0.19164057  1
  Se  Se250  1  0.41675217  0.57880849  0.68949438  1
  Se  Se251  1  0.41257901  0.91810505  0.19566190  1
  Se  Se252  1  0.42485737  0.91205092  0.70062124  1
  Se  Se253  1  0.74659741  0.25481346  0.19325210  1
  Se  Se254  1  0.74449309  0.25226013  0.69879243  1
  Se  Se255  1  0.75895650  0.57702132  0.18007339  1
  Se  Se256  1  0.75338933  0.57170602  0.68881533  1
  Se  Se257  1  0.74763542  0.90960042  0.18366528  1
  Se  Se258  1  0.76336917  0.90990593  0.70713790  1
