# generated using pymatgen
data_In86Cu29Se144
_symmetry_space_group_name_H-M   'P 1'
_cell_length_a   17.57967299
_cell_length_b   17.58001804
_cell_length_c   23.43961062
_cell_angle_alpha   90.01451402
_cell_angle_beta   90.00486827
_cell_angle_gamma   90.00724454
_symmetry_Int_Tables_number   1
_chemical_formula_structural   In86Cu29Se144
_chemical_formula_sum   'In86 Cu29 Se144'
_cell_volume   7244.03404348
_cell_formula_units_Z   1
loop_
 _symmetry_equiv_pos_site_id
 _symmetry_equiv_pos_as_xyz
  1  'x, y, z'
loop_
 _atom_site_type_symbol
 _atom_site_label
 _atom_site_symmetry_multiplicity
 _atom_site_fract_x
 _atom_site_fract_y
 _atom_site_fract_z
 _atom_site_occupancy
  In  In0  1  -0.01098488  0.15452588  0.11623423  1
  In  In1  1  -0.00138092  0.16326606  0.62816787  1
  In  In2  1  0.00522057  0.50628127  0.10988023  1
  In  In3  1  -0.00182444  0.49202846  0.63448231  1
  In  In4  1  0.00962703  0.85057470  0.11962471  1
  In  In5  1  -0.00164992  0.85299260  0.62960705  1
  In  In6  1  0.34309007  0.17333998  0.11529000  1
  In  In7  1  0.32458089  0.16863996  0.63041861  1
  In  In8  1  0.31783049  0.49430355  0.11763822  1
  In  In9  1  0.33706618  0.49068071  0.64009036  1
  In  In10  1  0.32715160  0.84176965  0.11852244  1
  In  In11  1  0.32899793  0.84061798  0.63784716  1
  In  In12  1  0.66862105  0.16378767  0.12366342  1
  In  In13  1  0.67808243  0.15580096  0.63387882  1
  In  In14  1  0.66016688  0.48390063  0.11728211  1
  In  In15  1  0.66616934  0.50093238  0.63468911  1
  In  In16  1  0.67746624  0.83292638  0.12448461  1
  In  In17  1  0.67742625  0.82595016  0.62983579  1
  In  In18  1  0.17179496  0.01621490  0.37085150  1
  In  In19  1  0.16451746  0.00142791  0.87631211  1
  In  In20  1  0.16155514  0.31801245  0.37315825  1
  In  In21  1  0.16524247  0.33091460  0.87115497  1
  In  In22  1  0.15813814  0.67197879  0.37618959  1
  In  In23  1  0.18408440  0.65588228  0.89196150  1
  In  In24  1  0.51024668  -0.00788427  0.37214514  1
  In  In25  1  0.51063826  0.01043835  0.87097453  1
  In  In26  1  0.49860100  0.32751527  0.36810337  1
  In  In27  1  0.48899706  0.32349198  0.86851324  1
  In  In28  1  0.49439877  0.67537810  0.37434737  1
  In  In29  1  0.49505250  0.66297157  0.86744453  1
  In  In30  1  0.83285536  0.00237714  0.37413623  1
  In  In31  1  0.83373873  0.00295688  0.87472179  1
  In  In32  1  0.82029098  0.33107544  0.37211590  1
  In  In33  1  0.83520548  0.33088676  0.87388035  1
  In  In34  1  0.84200024  0.66667646  0.37994796  1
  In  In35  1  0.82588827  0.67363712  0.87852486  1
  In  In36  1  0.00940894  0.15616655  0.38060419  1
  In  In37  1  -0.00013868  0.16680079  0.87460906  1
  In  In38  1  0.00269653  0.50667566  0.37543763  1
  In  In39  1  0.01510230  0.48309502  0.87872558  1
  In  In40  1  -0.01277679  0.83223974  0.37409283  1
  In  In41  1  -0.00737832  0.84256657  0.87932959  1
  In  In42  1  0.31780989  0.16885933  0.37822929  1
  In  In43  1  0.33278369  0.16570008  0.87523004  1
  In  In44  1  0.34368269  0.49728007  0.37354709  1
  In  In45  1  0.32209649  0.49725043  0.86630244  1
  In  In46  1  0.33775656  0.84206268  0.37489019  1
  In  In47  1  0.32102405  0.82509171  0.87276954  1
  In  In48  1  0.67483108  0.17050264  0.37262688  1
  In  In49  1  0.66819188  0.16756244  0.87502589  1
  In  In50  1  0.67697902  0.49118205  0.36998517  1
  In  In51  1  0.67249965  0.50509087  0.86956921  1
  In  In52  1  0.66137577  0.84910143  0.37460175  1
  In  In53  1  0.67675511  0.84247566  0.86897729  1
  In  In54  1  0.15289172  -0.00685742  0.11643178  1
  In  In55  1  0.16126673  0.00537747  0.63341218  1
  In  In56  1  0.17444915  0.33976801  0.11680919  1
  In  In57  1  0.18765765  0.31112281  0.64585212  1
  In  In58  1  0.17143376  0.66934779  0.10900298  1
  In  In59  1  0.17226546  0.66863724  0.63656746  1
  In  In60  1  0.49594815  0.01336009  0.12424156  1
  In  In61  1  0.50011925  0.00469721  0.63532595  1
  In  In62  1  0.50913329  0.32093174  0.12891809  1
  In  In63  1  0.49410851  0.33546827  0.63402748  1
  In  In64  1  0.50070997  0.67364306  0.12113863  1
  In  In65  1  0.50452192  0.66574367  0.63452990  1
  In  In66  1  0.83328871  0.00075460  0.12388121  1
  In  In67  1  0.83245318  0.00130725  0.62575533  1
  In  In68  1  0.82376026  0.32207752  0.11408610  1
  In  In69  1  0.84274398  0.32205662  0.63516594  1
  In  In70  1  0.83855569  0.67286277  0.11128672  1
  In  In71  1  0.81853252  0.67370324  0.62780286  1
  In  In72  1  0.83470385  0.49612469  0.49707251  1
  In  In73  1  0.00300200  0.66589251  0.76135094  1
  In  In74  1  0.66783941  0.66534292  0.24918466  1
  In  In75  1  0.49300937  0.83595559  0.00042060  1
  In  In76  1  0.50447569  0.49562146  0.51823815  1
  In  In77  1  0.33643259  0.00527245  0.24907306  1
  In  In78  1  0.33032582  0.66417858  0.23778308  1
  In  In79  1  -0.00024634  0.67157262  0.25031961  1
  In  In80  1  -0.00254492  0.32644105  0.24269875  1
  In  In81  1  0.16382435  0.84217734  0.50278120  1
  In  In82  1  0.49509170  0.17178349  0.50563429  1
  In  In83  1  0.50517452  0.83786743  0.49590878  1
  In  In84  1  0.17011046  0.48618900  0.51299211  1
  In  In85  1  0.49433812  0.49358862  -0.01273250  1
  Cu  Cu86  1  -0.00312271  0.31869177  0.50407155  1
  Cu  Cu87  1  0.49989602  0.48947216  0.24771544  1
  Cu  Cu88  1  0.50014164  0.16794343  0.75234549  1
  Cu  Cu89  1  0.50589169  0.16917998  0.24785438  1
  Cu  Cu90  1  0.83220347  0.84391454  0.24923449  1
  Cu  Cu91  1  0.67280085  0.32666828  -0.00206291  1
  Cu  Cu92  1  0.66762104  0.33100695  0.50138636  1
  Cu  Cu93  1  0.17117551  0.49701291  0.24326195  1
  Cu  Cu94  1  0.83372691  0.16420111  0.75381762  1
  Cu  Cu95  1  0.50290577  0.50072607  0.75392203  1
  Cu  Cu96  1  0.83233104  0.49660286  0.75377644  1
  Cu  Cu97  1  -0.00398710  0.67143856  0.50689937  1
  Cu  Cu98  1  0.67346283  0.00170147  0.50163319  1
  Cu  Cu99  1  0.83129308  0.16111222  0.24628198  1
  Cu  Cu100  1  -0.00647189  0.66881338  -0.00756368  1
  Cu  Cu101  1  -0.00691519  0.00452867  0.50234245  1
  Cu  Cu102  1  0.32863502  0.00410589  -0.00334187  1
  Cu  Cu103  1  0.16736858  0.83578865  0.75592122  1
  Cu  Cu104  1  0.33265861  0.32924191  -0.00724617  1
  Cu  Cu105  1  0.00215439  0.33065307  -0.00395322  1
  Cu  Cu106  1  0.83349787  0.83771627  0.75285352  1
  Cu  Cu107  1  0.16946372  0.16535594  0.24631530  1
  Cu  Cu108  1  0.16509804  0.16264115  0.75615602  1
  Cu  Cu109  1  0.50179859  0.83792581  0.75409252  1
  Cu  Cu110  1  0.66612123  0.66862090  -0.00599875  1
  Cu  Cu111  1  0.82680207  0.49165989  0.23857400  1
  Cu  Cu112  1  -0.00389219  0.00413453  -0.00337953  1
  Cu  Cu113  1  0.33861423  0.67090100  0.50710931  1
  Cu  Cu114  1  0.67157886  0.00410910  -0.00366090  1
  Se  Se115  1  0.08427072  0.08701409  0.04754288  1
  Se  Se116  1  0.08118761  0.07968050  0.55812517  1
  Se  Se117  1  0.08690755  0.41609567  0.04771078  1
  Se  Se118  1  0.07273369  0.39964968  0.56558529  1
  Se  Se119  1  0.07262372  0.74880423  0.05325552  1
  Se  Se120  1  0.07989259  0.74720682  0.56636397  1
  Se  Se121  1  0.41938121  0.08365550  0.04674125  1
  Se  Se122  1  0.41030648  0.07642072  0.56230136  1
  Se  Se123  1  0.41500855  0.40582759  0.05714067  1
  Se  Se124  1  0.40064528  0.40413697  0.55895681  1
  Se  Se125  1  0.40141523  0.73870418  0.05362971  1
  Se  Se126  1  0.41628159  0.75344189  0.56460244  1
  Se  Se127  1  0.75405514  0.08558938  0.05353614  1
  Se  Se128  1  0.75410389  0.08761788  0.55420972  1
  Se  Se129  1  0.75218522  0.41817805  0.04722927  1
  Se  Se130  1  0.74763405  0.41139569  0.56285645  1
  Se  Se131  1  0.74743012  0.75387131  0.04785184  1
  Se  Se132  1  0.75386244  0.75541633  0.55197715  1
  Se  Se133  1  0.24973149  0.24833553  0.04954118  1
  Se  Se134  1  0.24968594  0.25179311  0.55802526  1
  Se  Se135  1  0.24612982  0.57618303  0.04599934  1
  Se  Se136  1  0.25963615  0.58809640  0.56438484  1
  Se  Se137  1  0.24589347  0.91911727  0.04821249  1
  Se  Se138  1  0.25664276  0.92593891  0.56213963  1
  Se  Se139  1  0.58658609  0.24761259  0.05290478  1
  Se  Se140  1  0.59007616  0.25599722  0.56621931  1
  Se  Se141  1  0.58404556  0.58770864  0.05215978  1
  Se  Se142  1  0.59827931  0.59621117  0.56028692  1
  Se  Se143  1  0.58913687  0.92419376  0.05750723  1
  Se  Se144  1  0.58965159  0.92546808  0.56177330  1
  Se  Se145  1  0.91702269  0.24806994  0.04908422  1
  Se  Se146  1  0.90986697  0.24128201  0.55738426  1
  Se  Se147  1  0.91164764  0.58070592  0.04487228  1
  Se  Se148  1  0.92045655  0.58453952  0.56399277  1
  Se  Se149  1  0.91440091  0.91897930  0.05207527  1
  Se  Se150  1  0.91322727  0.91662225  0.55392128  1
  Se  Se151  1  0.08672281  0.24379061  0.44962351  1
  Se  Se152  1  0.08619619  0.24793188  0.94301438  1
  Se  Se153  1  0.08094587  0.58883382  0.45253447  1
  Se  Se154  1  0.08000825  0.58133231  0.94714512  1
  Se  Se155  1  0.07410651  0.92597359  0.43886144  1
  Se  Se156  1  0.08207012  0.91917777  0.94723198  1
  Se  Se157  1  0.40839578  0.26050953  0.44263777  1
  Se  Se158  1  0.42029474  0.24453206  0.94627351  1
  Se  Se159  1  0.41689448  0.58761832  0.44891669  1
  Se  Se160  1  0.40384338  0.59094212  0.93924049  1
  Se  Se161  1  0.40908983  0.93344171  0.44577139  1
  Se  Se162  1  0.41121392  0.92560830  0.93560203  1
  Se  Se163  1  0.75187173  0.24927575  0.44822782  1
  Se  Se164  1  0.75669958  0.24459634  0.94445338  1
  Se  Se165  1  0.74065620  0.58799156  0.44151547  1
  Se  Se166  1  0.74917241  0.58122885  0.94558526  1
  Se  Se167  1  0.75157073  0.91722067  0.44480803  1
  Se  Se168  1  0.75308630  0.91703494  0.94551869  1
  Se  Se169  1  0.25112182  0.07939871  0.44858262  1
  Se  Se170  1  0.24527343  0.08842996  0.94476513  1
  Se  Se171  1  0.25105894  0.41237363  0.43679039  1
  Se  Se172  1  0.25056207  0.41413255  0.94094899  1
  Se  Se173  1  0.25801006  0.74544474  0.44408027  1
  Se  Se174  1  0.24137827  0.76424630  0.95307101  1
  Se  Se175  1  0.58802429  0.08146052  0.44441550  1
  Se  Se176  1  0.58463362  0.08753663  0.94755402  1
  Se  Se177  1  0.58745868  0.41249563  0.44330336  1
  Se  Se178  1  0.59156890  0.40443922  0.93548751  1
  Se  Se179  1  0.59443585  0.74145169  0.44074267  1
  Se  Se180  1  0.58384915  0.74966753  0.93686731  1
  Se  Se181  1  0.91185931  0.08673284  0.44551355  1
  Se  Se182  1  0.91295343  0.08809036  0.94456623  1
  Se  Se183  1  0.92866242  0.40399850  0.43859822  1
  Se  Se184  1  0.91701179  0.41455764  0.94446801  1
  Se  Se185  1  0.91579974  0.75250542  0.45085264  1
  Se  Se186  1  0.90947454  0.75659390  0.94578552  1
  Se  Se187  1  0.24982007  0.25016258  0.30006669  1
  Se  Se188  1  0.25247003  0.24799957  0.80405685  1
  Se  Se189  1  0.24234050  0.57957826  0.30921740  1
  Se  Se190  1  0.25166501  0.59839025  0.80533645  1
  Se  Se191  1  0.24377911  0.91214858  0.30595010  1
  Se  Se192  1  0.25154097  0.92191222  0.80638610  1
  Se  Se193  1  0.58957180  0.25119622  0.30355861  1
  Se  Se194  1  0.58552308  0.25065766  0.80437595  1
  Se  Se195  1  0.57312205  0.57429045  0.30959046  1
  Se  Se196  1  0.58750091  0.58745826  0.80232195  1
  Se  Se197  1  0.57972320  0.91197663  0.29787380  1
  Se  Se198  1  0.58823440  0.92176968  0.80326787  1
  Se  Se199  1  0.91131336  0.24131693  0.30877068  1
  Se  Se200  1  0.91860919  0.24979927  0.80367201  1
  Se  Se201  1  0.90441157  0.57115306  0.30181133  1
  Se  Se202  1  0.91135321  0.57435085  0.81738655  1
  Se  Se203  1  0.91862359  0.92186464  0.30364210  1
  Se  Se204  1  0.91783488  0.92133870  0.80367453  1
  Se  Se205  1  0.08282944  0.08610227  0.29948513  1
  Se  Se206  1  0.07856435  0.07911370  0.80547567  1
  Se  Se207  1  0.08547643  0.42286281  0.30440803  1
  Se  Se208  1  0.08615424  0.41329860  0.79939259  1
  Se  Se209  1  0.09217309  0.76509029  0.30525449  1
  Se  Se210  1  0.09136257  0.75627557  0.81956383  1
  Se  Se211  1  0.42514778  0.09419462  0.31336846  1
  Se  Se212  1  0.41655936  0.08381469  0.80503107  1
  Se  Se213  1  0.41314951  0.41124405  0.30136208  1
  Se  Se214  1  0.41527453  0.41761381  0.80325445  1
  Se  Se215  1  0.41809182  0.75780516  0.30084624  1
  Se  Se216  1  0.41534236  0.75438843  0.80438439  1
  Se  Se217  1  0.74737194  0.08062520  0.30315155  1
  Se  Se218  1  0.74746477  0.08150109  0.80503979  1
  Se  Se219  1  0.74764311  0.40946448  0.29502055  1
  Se  Se220  1  0.74795508  0.41164817  0.80469653  1
  Se  Se221  1  0.76016419  0.75386874  0.30934056  1
  Se  Se222  1  0.75012364  0.74909476  0.80126273  1
  Se  Se223  1  0.24809477  0.08719848  0.18254763  1
  Se  Se224  1  0.25094831  0.08092156  0.70168969  1
  Se  Se225  1  0.25431649  0.41035770  0.19530557  1
  Se  Se226  1  0.23962812  0.42369562  0.70374973  1
  Se  Se227  1  0.23693896  0.75900983  0.18801580  1
  Se  Se228  1  0.25228928  0.75112597  0.70471921  1
  Se  Se229  1  0.58520226  0.08251518  0.19528318  1
  Se  Se230  1  0.58684752  0.08340583  0.70227375  1
  Se  Se231  1  0.58834877  0.41092111  0.19599334  1
  Se  Se232  1  0.58339156  0.41495071  0.69968719  1
  Se  Se233  1  0.57711396  0.75828984  0.19278521  1
  Se  Se234  1  0.58503385  0.75457147  0.69892951  1
  Se  Se235  1  0.91852085  0.07999503  0.19551551  1
  Se  Se236  1  0.91515375  0.08063203  0.69723714  1
  Se  Se237  1  0.91605623  0.42124028  0.18007255  1
  Se  Se238  1  0.91701815  0.41228566  0.70375095  1
  Se  Se239  1  0.90933763  0.75876308  0.18898983  1
  Se  Se240  1  0.91639456  0.75412420  0.69445304  1
  Se  Se241  1  0.08954101  0.24168555  0.18199781  1
  Se  Se242  1  0.07926485  0.24405526  0.70115247  1
  Se  Se243  1  0.08993190  0.58121627  0.18843416  1
  Se  Se244  1  0.09035943  0.57505983  0.69912972  1
  Se  Se245  1  0.08241427  0.92341076  0.19730963  1
  Se  Se246  1  0.08278921  0.91947728  0.70399482  1
  Se  Se247  1  0.41572769  0.24690524  0.19549159  1
  Se  Se248  1  0.41314910  0.24807636  0.69877908  1
  Se  Se249  1  0.42570016  0.57034854  0.18401576  1
  Se  Se250  1  0.41826614  0.58451838  0.70030544  1
  Se  Se251  1  0.42267319  0.91010776  0.18875871  1
  Se  Se252  1  0.41664952  0.92169096  0.70268946  1
  Se  Se253  1  0.75158873  0.24862473  0.19336168  1
  Se  Se254  1  0.74863986  0.24982738  0.70160685  1
  Se  Se255  1  0.75297210  0.58016674  0.18122502  1
  Se  Se256  1  0.75299420  0.58361374  0.70025178  1
  Se  Se257  1  0.74643699  0.92209395  0.19514972  1
  Se  Se258  1  0.75013300  0.91907116  0.69660257  1
