# generated using pymatgen
data_In86Cu29Se144
_symmetry_space_group_name_H-M   'P 1'
_cell_length_a   17.56604051
_cell_length_b   17.56592609
_cell_length_c   23.42362000
_cell_angle_alpha   89.98707650
_cell_angle_beta   90.00406991
_cell_angle_gamma   89.98530808
_symmetry_Int_Tables_number   1
_chemical_formula_structural   In86Cu29Se144
_chemical_formula_sum   'In86 Cu29 Se144'
_cell_volume   7227.68003921
_cell_formula_units_Z   1
loop_
 _symmetry_equiv_pos_site_id
 _symmetry_equiv_pos_as_xyz
  1  'x, y, z'
loop_
 _atom_site_type_symbol
 _atom_site_label
 _atom_site_symmetry_multiplicity
 _atom_site_fract_x
 _atom_site_fract_y
 _atom_site_fract_z
 _atom_site_occupancy
  In  In0  1  0.00857481  0.18257634  0.12518188  1
  In  In1  1  -0.01070587  0.17779454  0.61874044  1
  In  In2  1  -0.00156895  0.50146581  0.11955381  1
  In  In3  1  0.01797696  0.50269696  0.63298836  1
  In  In4  1  -0.00796629  0.82746913  0.13198927  1
  In  In5  1  -0.00842253  0.82902100  0.61216930  1
  In  In6  1  0.33284581  0.15339382  0.12476930  1
  In  In7  1  0.33629882  0.15410955  0.63649494  1
  In  In8  1  0.33470942  0.50111121  0.10952056  1
  In  In9  1  0.30633427  0.51573083  0.65119601  1
  In  In10  1  0.34309088  0.83442268  0.12865210  1
  In  In11  1  0.33532616  0.83502194  0.62353065  1
  In  In12  1  0.67591307  0.17729363  0.11712385  1
  In  In13  1  0.66975440  0.18003700  0.62081969  1
  In  In14  1  0.65857108  0.49092787  0.11596670  1
  In  In15  1  0.66673135  0.50383802  0.64402701  1
  In  In16  1  0.65805559  0.84054922  0.12300350  1
  In  In17  1  0.65886715  0.83178557  0.61974823  1
  In  In18  1  0.17077111  -0.03959692  0.37532532  1
  In  In19  1  0.16659369  -0.00795130  0.87006186  1
  In  In20  1  0.16590195  0.34984579  0.37869608  1
  In  In21  1  0.18584189  0.33664670  0.86616451  1
  In  In22  1  0.15590003  0.67924513  0.38608384  1
  In  In23  1  0.15071642  0.64585807  0.85343246  1
  In  In24  1  0.49757663  0.00076063  0.37599991  1
  In  In25  1  0.49280355  0.00629090  0.88160772  1
  In  In26  1  0.50284644  0.31920498  0.37377204  1
  In  In27  1  0.50258735  0.33199260  0.87561910  1
  In  In28  1  0.50766509  0.67102955  0.37979566  1
  In  In29  1  0.49836934  0.66353130  0.87429007  1
  In  In30  1  0.84193994  0.00008119  0.39375691  1
  In  In31  1  0.84199058  0.01272528  0.88203374  1
  In  In32  1  0.83091920  0.32230493  0.36655971  1
  In  In33  1  0.82134162  0.34688696  0.88018345  1
  In  In34  1  0.84765365  0.65839830  0.37701893  1
  In  In35  1  0.81272801  0.64084448  0.84940658  1
  In  In36  1  -0.01122433  0.15894050  0.37579597  1
  In  In37  1  -0.00948070  0.15949614  0.88357862  1
  In  In38  1  0.00965608  0.50925343  0.36854235  1
  In  In39  1  -0.00946691  0.50844228  0.88027287  1
  In  In40  1  0.01277377  0.82240719  0.38968351  1
  In  In41  1  0.00738029  0.82921058  0.87639040  1
  In  In42  1  0.35140418  0.16348266  0.38076123  1
  In  In43  1  0.34129191  0.17850221  0.86101681  1
  In  In44  1  0.32578929  0.48883663  0.37959092  1
  In  In45  1  0.33234056  0.50171619  0.87290161  1
  In  In46  1  0.32862935  0.83752237  0.37876160  1
  In  In47  1  0.33755912  0.83489137  0.86732084  1
  In  In48  1  0.66658550  0.16667603  0.37773513  1
  In  In49  1  0.66001842  0.17611272  0.88090280  1
  In  In50  1  0.67971912  0.49803480  0.36922381  1
  In  In51  1  0.66689622  0.49403018  0.87305755  1
  In  In52  1  0.66166511  0.84113044  0.38444580  1
  In  In53  1  0.66628292  0.81608443  0.87405560  1
  In  In54  1  0.17324217  0.00910270  0.13219750  1
  In  In55  1  0.18333170  0.00331504  0.62480147  1
  In  In56  1  0.15700897  0.33870849  0.12472346  1
  In  In57  1  0.16436585  0.34330008  0.63140154  1
  In  In58  1  0.16980180  0.65625084  0.12093607  1
  In  In59  1  0.16348982  0.66899039  0.62783422  1
  In  In60  1  0.48942475  -0.00688880  0.11506420  1
  In  In61  1  0.48704774  -0.00347786  0.61886385  1
  In  In62  1  0.51052187  0.34032990  0.11667183  1
  In  In63  1  0.50130375  0.33108086  0.62929146  1
  In  In64  1  0.49945347  0.66816782  0.11299833  1
  In  In65  1  0.49072426  0.67163491  0.63352468  1
  In  In66  1  0.82435768  -0.00025384  0.12319107  1
  In  In67  1  0.83781974  0.00347093  0.60922340  1
  In  In68  1  0.83496910  0.33316452  0.12200497  1
  In  In69  1  0.83172141  0.33307854  0.62833009  1
  In  In70  1  0.84734008  0.66736743  0.12479087  1
  In  In71  1  0.82449122  0.67361594  0.63637418  1
  In  In72  1  0.67013609  0.66711830  0.23931301  1
  In  In73  1  0.66564713  0.00353622  0.25268170  1
  In  In74  1  0.16536037  0.16293651  0.50177562  1
  In  In75  1  0.16858158  0.17182127  -0.00017645  1
  In  In76  1  0.16931244  0.83148725  -0.00760275  1
  In  In77  1  0.00395341  -0.00037549  0.74836627  1
  In  In78  1  0.66166857  -0.00433771  0.74360091  1
  In  In79  1  -0.00193769  0.33526630  0.74913766  1
  In  In80  1  0.49313847  0.50022075  0.50989340  1
  In  In81  1  0.32746313  0.67073841  0.25321282  1
  In  In82  1  0.83035185  0.82987225  0.00147240  1
  In  In83  1  0.00355382  -0.00352232  0.25632318  1
  In  In84  1  0.83636007  0.49912421  0.50575756  1
  In  In85  1  0.33311679  0.32875932  0.24903146  1
  Cu  Cu86  1  0.82424944  0.17101313  0.75035054  1
  Cu  Cu87  1  0.33056595  0.66656120  -0.00745794  1
  Cu  Cu88  1  0.83765802  0.82373353  0.25842779  1
  Cu  Cu89  1  0.17329456  0.83208051  0.74651160  1
  Cu  Cu90  1  0.15870740  0.50393145  0.24823677  1
  Cu  Cu91  1  0.65860652  0.33303270  0.49869044  1
  Cu  Cu92  1  0.67026997  0.33152409  -0.00319894  1
  Cu  Cu93  1  -0.00550449  0.33838536  0.50258974  1
  Cu  Cu94  1  -0.00442622  0.66402463  -0.00636515  1
  Cu  Cu95  1  0.50060855  0.82993166  0.74651140  1
  Cu  Cu96  1  0.50825622  0.16358144  0.25005431  1
  Cu  Cu97  1  0.83830572  0.16939412  0.24748505  1
  Cu  Cu98  1  0.66296421  0.00224906  0.00093623  1
  Cu  Cu99  1  0.34031097  0.33256409  -0.00851537  1
  Cu  Cu100  1  0.66012600  0.00578145  0.50150936  1
  Cu  Cu101  1  0.33052196  0.66780578  0.51068688  1
  Cu  Cu102  1  0.66437706  0.65828364  -0.00763314  1
  Cu  Cu103  1  0.84087968  0.48767316  0.24674640  1
  Cu  Cu104  1  0.33191605  0.33630848  0.50640014  1
  Cu  Cu105  1  0.33616276  -0.00115402  0.50043592  1
  Cu  Cu106  1  0.50021808  0.16708449  0.75493379  1
  Cu  Cu107  1  0.83924759  0.82981255  0.74482201  1
  Cu  Cu108  1  0.50072861  0.49354077  0.75794181  1
  Cu  Cu109  1  0.17013815  0.16478214  0.25410477  1
  Cu  Cu110  1  0.00019809  0.33832058  -0.00013112  1
  Cu  Cu111  1  0.00454414  0.66385153  0.50214778  1
  Cu  Cu112  1  0.50140935  0.49866685  0.24012019  1
  Cu  Cu113  1  0.33544603  0.00196001  -0.00478792  1
  Cu  Cu114  1  0.66684956  0.67631620  0.50753930  1
  Se  Se115  1  0.08104725  0.07875559  0.06061959  1
  Se  Se116  1  0.07546977  0.07703734  0.56397462  1
  Se  Se117  1  0.08694995  0.42164500  0.05036253  1
  Se  Se118  1  0.08163717  0.41591377  0.55639954  1
  Se  Se119  1  0.07385111  0.74593809  0.05509131  1
  Se  Se120  1  0.08921573  0.75039088  0.55215593  1
  Se  Se121  1  0.41679829  0.08805837  0.04807056  1
  Se  Se122  1  0.41182427  0.09049809  0.55306936  1
  Se  Se123  1  0.42209431  0.41640255  0.04777684  1
  Se  Se124  1  0.40084010  0.41953883  0.57247110  1
  Se  Se125  1  0.40755710  0.75054303  0.05115298  1
  Se  Se126  1  0.42121794  0.75060334  0.55566549  1
  Se  Se127  1  0.75140205  0.08276182  0.05125157  1
  Se  Se128  1  0.74512800  0.09019576  0.55245227  1
  Se  Se129  1  0.75247508  0.41548995  0.05168774  1
  Se  Se130  1  0.73438532  0.41584845  0.56071961  1
  Se  Se131  1  0.73776895  0.73772000  0.06098060  1
  Se  Se132  1  0.75713402  0.75442777  0.55805313  1
  Se  Se133  1  0.26097545  0.26105203  0.06119682  1
  Se  Se134  1  0.25223544  0.25197115  0.56482476  1
  Se  Se135  1  0.24609342  0.58261693  0.04484215  1
  Se  Se136  1  0.24924106  0.58091156  0.56133406  1
  Se  Se137  1  0.25358645  0.92462097  0.05674612  1
  Se  Se138  1  0.25114927  0.91536633  0.55191774  1
  Se  Se139  1  0.58309323  0.24824867  0.04852171  1
  Se  Se140  1  0.57521907  0.25114343  0.55255665  1
  Se  Se141  1  0.57939288  0.57880745  0.04885318  1
  Se  Se142  1  0.59096541  0.58796353  0.56506477  1
  Se  Se143  1  0.57939917  0.91362480  0.04823940  1
  Se  Se144  1  0.57840943  0.91877590  0.55342956  1
  Se  Se145  1  0.92083722  0.25053071  0.05281134  1
  Se  Se146  1  0.90465448  0.25689579  0.54992426  1
  Se  Se147  1  0.91249327  0.58242681  0.04928615  1
  Se  Se148  1  0.92396081  0.58871716  0.56633294  1
  Se  Se149  1  0.92345438  0.92023633  0.06005232  1
  Se  Se150  1  0.91896103  0.91914740  0.54445848  1
  Se  Se151  1  0.07687338  0.25797258  0.44194440  1
  Se  Se152  1  0.08083613  0.26136407  0.93674790  1
  Se  Se153  1  0.08569261  0.57744301  0.44872860  1
  Se  Se154  1  0.08776827  0.58595709  0.94340305  1
  Se  Se155  1  0.06940487  0.93219383  0.44973820  1
  Se  Se156  1  0.07196793  0.92982315  0.94591656  1
  Se  Se157  1  0.41672887  0.25753443  0.45117234  1
  Se  Se158  1  0.41903652  0.24272585  0.94190792  1
  Se  Se159  1  0.40661759  0.59005659  0.44291704  1
  Se  Se160  1  0.41736506  0.58040929  0.94459811  1
  Se  Se161  1  0.41901912  0.91541393  0.44585623  1
  Se  Se162  1  0.41423840  0.91117352  0.94437029  1
  Se  Se163  1  0.74731152  0.25617186  0.44386741  1
  Se  Se164  1  0.75651721  0.24656942  0.94666769  1
  Se  Se165  1  0.74171132  0.59111136  0.44648795  1
  Se  Se166  1  0.75335478  0.58125959  0.93991968  1
  Se  Se167  1  0.74656157  0.91902476  0.45295516  1
  Se  Se168  1  0.74187925  0.92151340  0.93806846  1
  Se  Se169  1  0.25331330  0.07522464  0.43756477  1
  Se  Se170  1  0.25413311  0.08191132  0.93570402  1
  Se  Se171  1  0.24597161  0.41978692  0.45630584  1
  Se  Se172  1  0.25217527  0.41618597  0.94463939  1
  Se  Se173  1  0.25323475  0.75055761  0.44966545  1
  Se  Se174  1  0.24872939  0.73954827  0.92883666  1
  Se  Se175  1  0.57883583  0.08675862  0.44381014  1
  Se  Se176  1  0.58107885  0.08654904  0.94703696  1
  Se  Se177  1  0.58487659  0.42013410  0.43926085  1
  Se  Se178  1  0.58448967  0.41523465  0.94524539  1
  Se  Se179  1  0.58074489  0.75401329  0.45219968  1
  Se  Se180  1  0.57987157  0.74751878  0.94681366  1
  Se  Se181  1  0.91278046  0.09749305  0.45620686  1
  Se  Se182  1  0.91639451  0.08396539  0.95877789  1
  Se  Se183  1  0.91934478  0.41561915  0.43587647  1
  Se  Se184  1  0.91339276  0.42040859  0.94808457  1
  Se  Se185  1  0.91517326  0.74394642  0.45049048  1
  Se  Se186  1  0.91231707  0.74241577  0.93462367  1
  Se  Se187  1  0.24755268  0.24498300  0.31743221  1
  Se  Se188  1  0.24373568  0.24308858  0.79455957  1
  Se  Se189  1  0.24071053  0.57673830  0.31292819  1
  Se  Se190  1  0.26384965  0.58947446  0.79909784  1
  Se  Se191  1  0.26225707  0.91550580  0.29842460  1
  Se  Se192  1  0.25242442  0.91857844  0.79983944  1
  Se  Se193  1  0.59039877  0.24823872  0.30236147  1
  Se  Se194  1  0.58646926  0.25105540  0.80366832  1
  Se  Se195  1  0.57875187  0.57772326  0.30425866  1
  Se  Se196  1  0.58417330  0.58227905  0.80631316  1
  Se  Se197  1  0.57672419  0.90702730  0.30522806  1
  Se  Se198  1  0.57741392  0.90988893  0.81056844  1
  Se  Se199  1  0.92612280  0.24849523  0.30069708  1
  Se  Se200  1  0.90895750  0.24503840  0.81160755  1
  Se  Se201  1  0.91599985  0.57941160  0.29959104  1
  Se  Se202  1  0.93652299  0.59807369  0.80205132  1
  Se  Se203  1  0.91119223  0.91012643  0.31755025  1
  Se  Se204  1  0.90857673  0.91294770  0.80991380  1
  Se  Se205  1  0.09630414  0.08271997  0.31772262  1
  Se  Se206  1  0.08557938  0.09419038  0.81038878  1
  Se  Se207  1  0.08209874  0.41375440  0.30110723  1
  Se  Se208  1  0.08347387  0.42212712  0.81308607  1
  Se  Se209  1  0.08076195  0.75057329  0.30887157  1
  Se  Se210  1  0.08247694  0.75669069  0.79958022  1
  Se  Se211  1  0.42121423  0.08497040  0.30297613  1
  Se  Se212  1  0.41788854  0.07697515  0.80236574  1
  Se  Se213  1  0.42490697  0.42272377  0.30750424  1
  Se  Se214  1  0.41416117  0.41039392  0.80767051  1
  Se  Se215  1  0.42505894  0.75405037  0.30994255  1
  Se  Se216  1  0.41872970  0.74668862  0.80186127  1
  Se  Se217  1  0.76539995  0.08475784  0.31084373  1
  Se  Se218  1  0.74961552  0.08373016  0.80872822  1
  Se  Se219  1  0.75097463  0.41093301  0.29915194  1
  Se  Se220  1  0.75159418  0.41787996  0.80108978  1
  Se  Se221  1  0.74913178  0.74898474  0.31534873  1
  Se  Se222  1  0.74717044  0.75264843  0.79517479  1
  Se  Se223  1  0.25734931  0.08309277  0.20418057  1
  Se  Se224  1  0.24553059  0.08092696  0.70433158  1
  Se  Se225  1  0.24940952  0.42852174  0.19116617  1
  Se  Se226  1  0.25003283  0.40312937  0.70819567  1
  Se  Se227  1  0.23949886  0.75638372  0.18863411  1
  Se  Se228  1  0.25645062  0.74930751  0.69298880  1
  Se  Se229  1  0.58311679  0.08708812  0.18302625  1
  Se  Se230  1  0.57560746  0.09098615  0.68653759  1
  Se  Se231  1  0.58794046  0.41256755  0.19465625  1
  Se  Se232  1  0.58218403  0.41108861  0.70152581  1
  Se  Se233  1  0.56934462  0.75699132  0.19115674  1
  Se  Se234  1  0.58846734  0.74916425  0.69527547  1
  Se  Se235  1  0.91669043  0.08462060  0.18928036  1
  Se  Se236  1  0.90591592  0.09045861  0.69168287  1
  Se  Se237  1  0.92540485  0.41063652  0.18974220  1
  Se  Se238  1  0.90936177  0.42963056  0.69209579  1
  Se  Se239  1  0.91966892  0.74203269  0.20396652  1
  Se  Se240  1  0.92735409  0.75096744  0.69319873  1
  Se  Se241  1  0.09195629  0.25116504  0.20034980  1
  Se  Se242  1  0.08448820  0.23882465  0.69121003  1
  Se  Se243  1  0.07973050  0.58613034  0.19097190  1
  Se  Se244  1  0.09520150  0.58293715  0.70318011  1
  Se  Se245  1  0.09141940  0.90902469  0.19264993  1
  Se  Se246  1  0.08849177  0.90946997  0.68547834  1
  Se  Se247  1  0.42659330  0.24416102  0.18811050  1
  Se  Se248  1  0.41729278  0.24810030  0.69768964  1
  Se  Se249  1  0.41686415  0.58055162  0.18767189  1
  Se  Se250  1  0.42160594  0.57855496  0.70194496  1
  Se  Se251  1  0.41551444  0.92582996  0.19477161  1
  Se  Se252  1  0.41733716  0.91680230  0.69574834  1
  Se  Se253  1  0.75329208  0.25001909  0.19385361  1
  Se  Se254  1  0.74415377  0.25679222  0.69803233  1
  Se  Se255  1  0.76009176  0.57010452  0.18647776  1
  Se  Se256  1  0.75726598  0.58216419  0.70612990  1
  Se  Se257  1  0.75830766  0.90348792  0.19696303  1
  Se  Se258  1  0.76192658  0.91491324  0.68543921  1
