# generated using pymatgen
data_In86Cu29Se144
_symmetry_space_group_name_H-M   'P 1'
_cell_length_a   17.57397408
_cell_length_b   17.57200968
_cell_length_c   23.43445680
_cell_angle_alpha   90.00818429
_cell_angle_beta   90.00011934
_cell_angle_gamma   89.99005922
_symmetry_Int_Tables_number   1
_chemical_formula_structural   In86Cu29Se144
_chemical_formula_sum   'In86 Cu29 Se144'
_cell_volume   7236.79542215
_cell_formula_units_Z   1
loop_
 _symmetry_equiv_pos_site_id
 _symmetry_equiv_pos_as_xyz
  1  'x, y, z'
loop_
 _atom_site_type_symbol
 _atom_site_label
 _atom_site_symmetry_multiplicity
 _atom_site_fract_x
 _atom_site_fract_y
 _atom_site_fract_z
 _atom_site_occupancy
  In  In0  1  -0.00045903  0.16674908  0.12235232  1
  In  In1  1  -0.00129136  0.16556424  0.62880146  1
  In  In2  1  -0.00789158  0.49035815  0.11737184  1
  In  In3  1  0.01059877  0.48870817  0.63761987  1
  In  In4  1  0.00724683  0.84366655  0.12170961  1
  In  In5  1  0.00194119  0.81949022  0.64152659  1
  In  In6  1  0.33712692  0.17218796  0.11524377  1
  In  In7  1  0.32802061  0.18554634  0.63082456  1
  In  In8  1  0.33104740  0.49789389  0.11665362  1
  In  In9  1  0.32165587  0.49366029  0.62401179  1
  In  In10  1  0.32188177  0.84155643  0.12178066  1
  In  In11  1  0.32594905  0.82165623  0.60777029  1
  In  In12  1  0.66366209  0.15841489  0.12123554  1
  In  In13  1  0.67670614  0.16619181  0.62259343  1
  In  In14  1  0.66894576  0.50213023  0.11974943  1
  In  In15  1  0.65584791  0.49225826  0.62619267  1
  In  In16  1  0.67870399  0.82880509  0.12776391  1
  In  In17  1  0.66765402  0.84215643  0.61644108  1
  In  In18  1  0.16004702  0.00542863  0.38291222  1
  In  In19  1  0.15242958  0.01521900  0.88216205  1
  In  In20  1  0.16070396  0.34237864  0.38314995  1
  In  In21  1  0.16492477  0.33340825  0.87353768  1
  In  In22  1  0.17405060  0.66182437  0.38921980  1
  In  In23  1  0.15631543  0.67509369  0.88231274  1
  In  In24  1  0.49647486  -0.00748273  0.36903637  1
  In  In25  1  0.51096130  0.00759009  0.87725045  1
  In  In26  1  0.50595922  0.33970122  0.37376123  1
  In  In27  1  0.50389341  0.32808563  0.87410771  1
  In  In28  1  0.51746544  0.66673715  0.37626186  1
  In  In29  1  0.48653930  0.65964295  0.87483884  1
  In  In30  1  0.84899399  0.00918746  0.36547166  1
  In  In31  1  0.84700345  -0.00724306  0.88291918  1
  In  In32  1  0.83064139  0.31308631  0.37752287  1
  In  In33  1  0.83498918  0.33154064  0.87575715  1
  In  In34  1  0.82627628  0.67718613  0.37123876  1
  In  In35  1  0.83919216  0.66304859  0.87834518  1
  In  In36  1  0.00216322  0.16730428  0.37600455  1
  In  In37  1  -0.00164762  0.16725902  0.87484050  1
  In  In38  1  0.01292700  0.50132546  0.37666361  1
  In  In39  1  -0.00039794  0.50037060  0.87540064  1
  In  In40  1  -0.00424964  0.84568851  0.37650270  1
  In  In41  1  -0.00427265  0.83717762  0.87186911  1
  In  In42  1  0.32780303  0.15682642  0.37647339  1
  In  In43  1  0.33004897  0.17497341  0.87600860  1
  In  In44  1  0.33216234  0.49224917  0.37710614  1
  In  In45  1  0.34133469  0.49014108  0.88234372  1
  In  In46  1  0.33498060  0.82872018  0.39012971  1
  In  In47  1  0.32594875  0.81924066  0.87285033  1
  In  In48  1  0.68825712  0.17492042  0.37305951  1
  In  In49  1  0.65972514  0.18020795  0.88363279  1
  In  In50  1  0.65698557  0.50883999  0.36974182  1
  In  In51  1  0.68070436  0.48586423  0.88419018  1
  In  In52  1  0.65868181  0.82899651  0.36510770  1
  In  In53  1  0.67349865  0.84693768  0.87582331  1
  In  In54  1  0.15738432  -0.00554086  0.11926060  1
  In  In55  1  0.15531391  -0.00907425  0.62220681  1
  In  In56  1  0.15625595  0.32023776  0.11485615  1
  In  In57  1  0.16414249  0.33191032  0.62803333  1
  In  In58  1  0.16324182  0.66451860  0.11809358  1
  In  In59  1  0.16147283  0.65731314  0.62051599  1
  In  In60  1  0.50823264  0.01743799  0.12587567  1
  In  In61  1  0.51117417  -0.00256413  0.62065389  1
  In  In62  1  0.50086263  0.33181924  0.11771935  1
  In  In63  1  0.50230821  0.32129108  0.64316982  1
  In  In64  1  0.51344560  0.66305135  0.12578834  1
  In  In65  1  0.48461790  0.66280142  0.61488179  1
  In  In66  1  0.83636655  0.00267495  0.12247453  1
  In  In67  1  0.83107755  0.01020061  0.62596422  1
  In  In68  1  0.84277128  0.34223398  0.11692989  1
  In  In69  1  0.84227438  0.32659582  0.63309656  1
  In  In70  1  0.82390249  0.65760160  0.11667103  1
  In  In71  1  0.84066986  0.67693546  0.62886523  1
  In  In72  1  0.67395992  0.00805617  0.74555670  1
  In  In73  1  -0.00489137  0.67230559  0.25167951  1
  In  In74  1  0.33827498  0.66403653  0.25388747  1
  In  In75  1  0.49723407  0.83237009  0.00090958  1
  In  In76  1  0.33536922  0.33172484  0.25092639  1
  In  In77  1  0.83367077  0.83700362  0.50057421  1
  In  In78  1  0.33335412  0.00290288  0.75415199  1
  In  In79  1  0.33156700  0.00053539  0.24864991  1
  In  In80  1  0.67067849  0.33117857  0.24877438  1
  In  In81  1  0.49888473  0.16628194  0.50122110  1
  In  In82  1  0.83320698  0.49740347  0.49904909  1
  In  In83  1  0.66986761  0.66347162  0.75101728  1
  In  In84  1  0.32552153  0.65879434  0.74165595  1
  In  In85  1  0.49682555  0.50194316  0.49447035  1
  Cu  Cu86  1  0.16304189  0.83740263  0.25259874  1
  Cu  Cu87  1  -0.00176055  0.00476801  0.50110187  1
  Cu  Cu88  1  0.67434982  0.00550143  -0.00032278  1
  Cu  Cu89  1  0.66734859  -0.00179898  0.49322497  1
  Cu  Cu90  1  0.15796545  0.16433848  0.24845140  1
  Cu  Cu91  1  0.15559059  0.83732765  0.75257592  1
  Cu  Cu92  1  0.83522478  0.49620177  0.75686565  1
  Cu  Cu93  1  0.66537798  0.66461181  -0.00090176  1
  Cu  Cu94  1  0.15821142  0.48928570  0.24845398  1
  Cu  Cu95  1  0.84252365  0.16510673  0.24686729  1
  Cu  Cu96  1  0.33265075  0.33221896  -0.00474306  1
  Cu  Cu97  1  0.66921902  0.33350684  0.00027564  1
  Cu  Cu98  1  0.16630436  0.49937756  0.75294686  1
  Cu  Cu99  1  0.00245779  0.32897124  0.50825900  1
  Cu  Cu100  1  0.00630103  0.66277214  0.50658910  1
  Cu  Cu101  1  0.50945650  0.83491827  0.24764236  1
  Cu  Cu102  1  0.50337529  0.48731900  0.75746780  1
  Cu  Cu103  1  0.32604472  0.00460289  0.50105452  1
  Cu  Cu104  1  0.83261128  0.49740648  0.24191769  1
  Cu  Cu105  1  0.16026656  0.16736034  0.75311185  1
  Cu  Cu106  1  0.00189758  0.33319307  -0.00636993  1
  Cu  Cu107  1  0.50074423  0.83493683  0.73676386  1
  Cu  Cu108  1  -0.00168473  0.66976024  -0.00133565  1
  Cu  Cu109  1  0.32859207  0.33694478  0.50407811  1
  Cu  Cu110  1  0.82987381  0.83895432  0.24685153  1
  Cu  Cu111  1  -0.00043323  0.00180852  -0.00040020  1
  Cu  Cu112  1  0.32903167  0.00030233  -0.00090929  1
  Cu  Cu113  1  0.32683329  0.66118540  -0.00140899  1
  Cu  Cu114  1  0.83404271  0.16672041  0.75439408  1
  Se  Se115  1  0.08473106  0.08620537  0.05177180  1
  Se  Se116  1  0.08216652  0.08621765  0.55668771  1
  Se  Se117  1  0.08418591  0.41673649  0.05000219  1
  Se  Se118  1  0.08450462  0.41833134  0.55749674  1
  Se  Se119  1  0.08214033  0.75230608  0.05383942  1
  Se  Se120  1  0.07985734  0.75386734  0.56089751  1
  Se  Se121  1  0.41666295  0.07901711  0.05233061  1
  Se  Se122  1  0.40610390  0.08141545  0.56447985  1
  Se  Se123  1  0.41600221  0.41440145  0.05111251  1
  Se  Se124  1  0.41943383  0.40719175  0.56295826  1
  Se  Se125  1  0.40669832  0.74096152  0.06225485  1
  Se  Se126  1  0.43122065  0.76233882  0.54643000  1
  Se  Se127  1  0.75749892  0.08937804  0.05265465  1
  Se  Se128  1  0.74826282  0.07955932  0.55004493  1
  Se  Se129  1  0.75223899  0.42046332  0.05129547  1
  Se  Se130  1  0.74839225  0.40885673  0.56277921  1
  Se  Se131  1  0.74888569  0.75072322  0.04977869  1
  Se  Se132  1  0.74477038  0.73930767  0.55514063  1
  Se  Se133  1  0.24864169  0.24697100  0.04751401  1
  Se  Se134  1  0.24519218  0.25102879  0.55431236  1
  Se  Se135  1  0.24258084  0.57771104  0.05111311  1
  Se  Se136  1  0.27296825  0.60257175  0.56150305  1
  Se  Se137  1  0.24307490  0.91562900  0.04813365  1
  Se  Se138  1  0.24344231  0.91774194  0.55139750  1
  Se  Se139  1  0.58668765  0.24821864  0.05328569  1
  Se  Se140  1  0.58572246  0.25815291  0.56020322  1
  Se  Se141  1  0.58071020  0.58042899  0.04963260  1
  Se  Se142  1  0.59124139  0.58918514  0.55537691  1
  Se  Se143  1  0.58989557  0.92215871  0.05809527  1
  Se  Se144  1  0.58227198  0.91641380  0.54512385  1
  Se  Se145  1  0.92023187  0.25126510  0.05141444  1
  Se  Se146  1  0.91499253  0.24652853  0.55711343  1
  Se  Se147  1  0.91675444  0.58266224  0.05154572  1
  Se  Se148  1  0.92332693  0.58291462  0.56422507  1
  Se  Se149  1  0.91683587  0.91665463  0.05294174  1
  Se  Se150  1  0.92407874  0.92060510  0.56368852  1
  Se  Se151  1  0.08383835  0.24953240  0.44736344  1
  Se  Se152  1  0.08572582  0.24727524  0.94315994  1
  Se  Se153  1  0.08707386  0.57696366  0.45324188  1
  Se  Se154  1  0.08094396  0.58245873  0.94752623  1
  Se  Se155  1  0.07990474  0.91665344  0.44978337  1
  Se  Se156  1  0.08058959  0.91606954  0.94424195  1
  Se  Se157  1  0.40818454  0.26059395  0.43991977  1
  Se  Se158  1  0.41995694  0.24780161  0.94589201  1
  Se  Se159  1  0.40800122  0.59561996  0.43706616  1
  Se  Se160  1  0.41757598  0.58055002  0.95122987  1
  Se  Se161  1  0.41478085  0.92782013  0.44708209  1
  Se  Se162  1  0.40874503  0.92098233  0.93602835  1
  Se  Se163  1  0.74851323  0.25043993  0.45489257  1
  Se  Se164  1  0.75582369  0.25039684  0.94945051  1
  Se  Se165  1  0.74383925  0.59148640  0.44123839  1
  Se  Se166  1  0.75275661  0.58362351  0.94685878  1
  Se  Se167  1  0.75143507  0.92258751  0.43191181  1
  Se  Se168  1  0.75460242  0.91596641  0.95085340  1
  Se  Se169  1  0.24314139  0.09040461  0.45081661  1
  Se  Se170  1  0.25097094  0.08700641  0.94422959  1
  Se  Se171  1  0.24779021  0.42307359  0.45105678  1
  Se  Se172  1  0.24562422  0.41601747  0.94574212  1
  Se  Se173  1  0.23966409  0.75888146  0.45358148  1
  Se  Se174  1  0.24726839  0.75218991  0.95045014  1
  Se  Se175  1  0.58689774  0.08196664  0.43515093  1
  Se  Se176  1  0.58420603  0.08651138  0.95145124  1
  Se  Se177  1  0.59830575  0.40990188  0.44463710  1
  Se  Se178  1  0.58167148  0.41406020  0.94627895  1
  Se  Se179  1  0.58678617  0.75774919  0.44403566  1
  Se  Se180  1  0.58679143  0.74483092  0.93612174  1
  Se  Se181  1  0.91540529  0.08628184  0.44559483  1
  Se  Se182  1  0.91674736  0.08891477  0.94877780  1
  Se  Se183  1  0.92616388  0.40694210  0.44138095  1
  Se  Se184  1  0.91544675  0.41820464  0.94444483  1
  Se  Se185  1  0.92617578  0.73981043  0.44371260  1
  Se  Se186  1  0.91648221  0.75376893  0.94466820  1
  Se  Se187  1  0.24027163  0.24331044  0.30890107  1
  Se  Se188  1  0.24735456  0.24974637  0.80302097  1
  Se  Se189  1  0.23843457  0.57284960  0.30691379  1
  Se  Se190  1  0.24576061  0.57938036  0.81500075  1
  Se  Se191  1  0.24838166  0.91072448  0.31372574  1
  Se  Se192  1  0.24033339  0.91260941  0.81234868  1
  Se  Se193  1  0.57918666  0.24206812  0.30929835  1
  Se  Se194  1  0.58964311  0.25052193  0.80416714  1
  Se  Se195  1  0.57995809  0.58653231  0.29796648  1
  Se  Se196  1  0.58024678  0.57484059  0.81362067  1
  Se  Se197  1  0.58799781  0.92498344  0.29831051  1
  Se  Se198  1  0.57626804  0.91179094  0.80136810  1
  Se  Se199  1  0.91992732  0.24970011  0.30412975  1
  Se  Se200  1  0.91878104  0.25214492  0.80482408  1
  Se  Se201  1  0.90810789  0.57503706  0.30998709  1
  Se  Se202  1  0.91761296  0.58425402  0.80480461  1
  Se  Se203  1  0.92154229  0.91573124  0.29744666  1
  Se  Se204  1  0.91538181  0.92173078  0.80283389  1
  Se  Se205  1  0.08216212  0.07938698  0.30643024  1
  Se  Se206  1  0.07613819  0.08139009  0.80214010  1
  Se  Se207  1  0.07772849  0.40876076  0.30478243  1
  Se  Se208  1  0.08079194  0.41641523  0.80512377  1
  Se  Se209  1  0.09124288  0.75208468  0.31496395  1
  Se  Se210  1  0.07939102  0.74740662  0.80549003  1
  Se  Se211  1  0.42315305  0.09486568  0.30360740  1
  Se  Se212  1  0.42769627  0.09186189  0.80871895  1
  Se  Se213  1  0.42778769  0.42968772  0.30364582  1
  Se  Se214  1  0.41258836  0.40957830  0.80727090  1
  Se  Se215  1  0.42293487  0.76311468  0.30954132  1
  Se  Se216  1  0.42231865  0.75423981  0.79810419  1
  Se  Se217  1  0.75525126  0.08608175  0.30047371  1
  Se  Se218  1  0.75474887  0.08833996  0.81750876  1
  Se  Se219  1  0.75896355  0.42154059  0.31224128  1
  Se  Se220  1  0.74879062  0.41120315  0.80424371  1
  Se  Se221  1  0.74813978  0.75075733  0.29667039  1
  Se  Se222  1  0.75475617  0.75747763  0.80950280  1
  Se  Se223  1  0.24417548  0.09164470  0.18714568  1
  Se  Se224  1  0.24045506  0.08643139  0.69127398  1
  Se  Se225  1  0.24303453  0.41599833  0.18811647  1
  Se  Se226  1  0.24818635  0.41491034  0.69860273  1
  Se  Se227  1  0.24208442  0.75391261  0.19472716  1
  Se  Se228  1  0.23964320  0.76136848  0.69119801  1
  Se  Se229  1  0.58946567  0.08662573  0.19969399  1
  Se  Se230  1  0.57468681  0.09479337  0.69123322  1
  Se  Se231  1  0.57920348  0.41959152  0.18986364  1
  Se  Se232  1  0.59069233  0.40994105  0.70317733  1
  Se  Se233  1  0.58895051  0.74919923  0.19425298  1
  Se  Se234  1  0.58032191  0.74879405  0.68334361  1
  Se  Se235  1  0.92355435  0.07971903  0.19320112  1
  Se  Se236  1  0.91462758  0.08255642  0.69889679  1
  Se  Se237  1  0.92023321  0.41381989  0.19572093  1
  Se  Se238  1  0.91940680  0.41256076  0.70273473  1
  Se  Se239  1  0.90856351  0.75580261  0.18538371  1
  Se  Se240  1  0.91099575  0.74634140  0.70795909  1
  Se  Se241  1  0.07987798  0.25168788  0.19429422  1
  Se  Se242  1  0.07926319  0.25183721  0.69733332  1
  Se  Se243  1  0.08315917  0.57893805  0.19198670  1
  Se  Se244  1  0.08602421  0.58697384  0.69978057  1
  Se  Se245  1  0.08310658  0.92086765  0.19829721  1
  Se  Se246  1  0.07502781  0.92336498  0.69994507  1
  Se  Se247  1  0.42535649  0.24189892  0.19185350  1
  Se  Se248  1  0.40906960  0.24926155  0.70740867  1
  Se  Se249  1  0.42076210  0.57513330  0.18915362  1
  Se  Se250  1  0.42741182  0.56764620  0.69307484  1
  Se  Se251  1  0.42429487  0.91012415  0.18729348  1
  Se  Se252  1  0.41330142  0.91317804  0.68321904  1
  Se  Se253  1  0.76178255  0.24645013  0.18627578  1
  Se  Se254  1  0.75004154  0.24620172  0.69776668  1
  Se  Se255  1  0.74781953  0.58238136  0.19369325  1
  Se  Se256  1  0.75824983  0.57171198  0.68953534  1
  Se  Se257  1  0.74891381  0.92482890  0.19339594  1
  Se  Se258  1  0.75822154  0.90630148  0.69171456  1
