# generated using pymatgen
data_In86Cu29Se144
_symmetry_space_group_name_H-M   'P 1'
_cell_length_a   17.57572662
_cell_length_b   17.57407462
_cell_length_c   23.43721752
_cell_angle_alpha   90.04459130
_cell_angle_beta   89.98377518
_cell_angle_gamma   90.00883682
_symmetry_Int_Tables_number   1
_chemical_formula_structural   In86Cu29Se144
_chemical_formula_sum   'In86 Cu29 Se144'
_cell_volume   7239.21794051
_cell_formula_units_Z   1
loop_
 _symmetry_equiv_pos_site_id
 _symmetry_equiv_pos_as_xyz
  1  'x, y, z'
loop_
 _atom_site_type_symbol
 _atom_site_label
 _atom_site_symmetry_multiplicity
 _atom_site_fract_x
 _atom_site_fract_y
 _atom_site_fract_z
 _atom_site_occupancy
  In  In0  1  -0.01055799  0.16354998  0.13119391  1
  In  In1  1  0.00279501  0.17392293  0.61686618  1
  In  In2  1  0.00972292  0.50855646  0.11023212  1
  In  In3  1  0.00331460  0.50302337  0.62329577  1
  In  In4  1  0.00679780  0.84122924  0.12238088  1
  In  In5  1  0.00183592  0.81494246  0.62929004  1
  In  In6  1  0.33521456  0.16345128  0.12590950  1
  In  In7  1  0.32878711  0.16667679  0.62489014  1
  In  In8  1  0.34675403  0.51822186  0.10457092  1
  In  In9  1  0.33026021  0.49529958  0.62603529  1
  In  In10  1  0.31141579  0.80797074  0.09377922  1
  In  In11  1  0.33221242  0.84526164  0.63230654  1
  In  In12  1  0.65396064  0.16091760  0.12824679  1
  In  In13  1  0.67598105  0.17931396  0.61574071  1
  In  In14  1  0.67806587  0.50770244  0.11864255  1
  In  In15  1  0.66913779  0.50052580  0.62385824  1
  In  In16  1  0.66696931  0.82912929  0.12276478  1
  In  In17  1  0.65988523  0.82336749  0.62828139  1
  In  In18  1  0.16010568  0.00316817  0.37943938  1
  In  In19  1  0.17099428  -0.00528213  0.87832388  1
  In  In20  1  0.16490460  0.33848426  0.38429189  1
  In  In21  1  0.18361854  0.33641489  0.86987132  1
  In  In22  1  0.18229805  0.65441151  0.38342752  1
  In  In23  1  0.16223878  0.67321203  0.88352043  1
  In  In24  1  0.50883862  -0.00269948  0.37456655  1
  In  In25  1  0.48516727  -0.00001219  0.87767343  1
  In  In26  1  0.49489991  0.33637223  0.38633107  1
  In  In27  1  0.51300719  0.35709375  0.85306664  1
  In  In28  1  0.49574384  0.66318913  0.36797796  1
  In  In29  1  0.50389353  0.65928428  0.89078723  1
  In  In30  1  0.83879770  0.00189377  0.37063907  1
  In  In31  1  0.82544663  -0.00106818  0.87956188  1
  In  In32  1  0.83597041  0.33506751  0.38468432  1
  In  In33  1  0.83104543  0.39792532  0.85491617  1
  In  In34  1  0.82123184  0.66730745  0.37325055  1
  In  In35  1  0.83491480  0.66216578  0.87348712  1
  In  In36  1  0.00430659  0.16221510  0.38252263  1
  In  In37  1  0.00709638  0.17377820  0.86574593  1
  In  In38  1  0.00670059  0.49732296  0.37920875  1
  In  In39  1  -0.01207114  0.50722563  0.88402117  1
  In  In40  1  0.00268119  0.84245552  0.37181280  1
  In  In41  1  0.01222671  0.82408752  0.88314745  1
  In  In42  1  0.32680972  0.17387713  0.38866928  1
  In  In43  1  0.33455253  0.17630484  0.86027051  1
  In  In44  1  0.32919091  0.51284399  0.38238240  1
  In  In45  1  0.34571969  0.49884326  0.88648205  1
  In  In46  1  0.33641809  0.81566463  0.37436952  1
  In  In47  1  0.32378816  0.83818049  0.89387375  1
  In  In48  1  0.67453706  0.16074124  0.38409496  1
  In  In49  1  0.65694329  0.17421930  0.87136127  1
  In  In50  1  0.66052942  0.50706307  0.38141298  1
  In  In51  1  0.66061037  0.51355987  0.86797778  1
  In  In52  1  0.65977830  0.83166892  0.36439046  1
  In  In53  1  0.68162363  0.82008353  0.88666075  1
  In  In54  1  0.16705445  -0.01875220  0.12508291  1
  In  In55  1  0.17653162  0.00810137  0.61716220  1
  In  In56  1  0.17076486  0.35191081  0.12160965  1
  In  In57  1  0.16974379  0.33671871  0.62440358  1
  In  In58  1  0.16972633  0.66353082  0.12046310  1
  In  In59  1  0.16342283  0.65621509  0.62042784  1
  In  In60  1  0.50740598  -0.00436423  0.12652977  1
  In  In61  1  0.47912028  -0.00249932  0.62757277  1
  In  In62  1  0.49267317  0.33826164  0.11928660  1
  In  In63  1  0.50660770  0.33851944  0.62714047  1
  In  In64  1  0.50195675  0.66811810  0.11864560  1
  In  In65  1  0.51704304  0.65547677  0.63639130  1
  In  In66  1  0.83933554  -0.01116310  0.13052351  1
  In  In67  1  0.82557374  0.00668925  0.62235682  1
  In  In68  1  0.83413415  0.33899558  0.11789316  1
  In  In69  1  0.82931274  0.33404590  0.62136427  1
  In  In70  1  0.82372748  0.65738197  0.12027255  1
  In  In71  1  0.84455184  0.65187055  0.64125077  1
  In  In72  1  0.50043405  0.16882222  -0.00030541  1
  In  In73  1  0.34155476  -0.01136080  0.24613028  1
  In  In74  1  0.01195109  -0.00492944  0.75510803  1
  In  In75  1  0.00290502  0.67118778  0.24109648  1
  In  In76  1  0.49476976  0.83084801  0.50411262  1
  In  In77  1  0.00226926  0.33312742  0.25770044  1
  In  In78  1  0.33337399  0.33883797  0.25359304  1
  In  In79  1  0.16914811  0.16976197  -0.00586867  1
  In  In80  1  0.83611245  0.83352103  0.49672197  1
  In  In81  1  0.67000726  0.33229068  0.24975974  1
  In  In82  1  0.66069261  -0.00217708  0.74669181  1
  In  In83  1  0.34244812  0.65987985  0.75753922  1
  In  In84  1  0.82766495  0.17503470  -0.00690749  1
  In  In85  1  0.00129812  0.33944216  0.74458386  1
  Cu  Cu86  1  0.49291527  0.16852596  0.74211354  1
  Cu  Cu87  1  0.17055583  0.82677779  0.75804715  1
  Cu  Cu88  1  0.00142679  -0.00007165  0.00089575  1
  Cu  Cu89  1  0.82788880  0.15227016  0.25229260  1
  Cu  Cu90  1  0.83949585  0.17144059  0.74527625  1
  Cu  Cu91  1  0.16988519  0.82710717  0.24434430  1
  Cu  Cu92  1  0.50384045  0.16066400  0.25728763  1
  Cu  Cu93  1  0.15796729  0.16020422  0.25443026  1
  Cu  Cu94  1  0.34102136  0.33746019  -0.00815980  1
  Cu  Cu95  1  -0.00179655  0.33728256  0.50313807  1
  Cu  Cu96  1  0.49910163  0.83240945  0.76182789  1
  Cu  Cu97  1  0.66862115  0.34650948  -0.01243925  1
  Cu  Cu98  1  0.32459835  0.00098148  0.50312397  1
  Cu  Cu99  1  0.33683752  0.66696774  0.50467056  1
  Cu  Cu100  1  0.83581837  0.82494465  0.75695550  1
  Cu  Cu101  1  0.66971916  -0.00896992  0.00544735  1
  Cu  Cu102  1  0.82318388  0.83471965  0.24850389  1
  Cu  Cu103  1  0.66368285  0.33927408  0.50278238  1
  Cu  Cu104  1  0.66394469  0.00708257  0.49931905  1
  Cu  Cu105  1  -0.00881055  0.67148157  0.00145925  1
  Cu  Cu106  1  0.16254808  0.50747997  0.74917432  1
  Cu  Cu107  1  0.33748067  0.33353434  0.50846161  1
  Cu  Cu108  1  0.66823062  0.66489611  -0.00004541  1
  Cu  Cu109  1  0.00007230  -0.00040785  0.49733741  1
  Cu  Cu110  1  0.83652340  0.50133678  0.24561994  1
  Cu  Cu111  1  0.00428916  0.66165957  0.50308597  1
  Cu  Cu112  1  0.50187023  0.50983157  0.24557225  1
  Cu  Cu113  1  0.49666075  0.82680936  0.24077556  1
  Cu  Cu114  1  0.66931731  0.66075041  0.50290931  1
  Se  Se115  1  0.08017283  0.08239062  0.06094028  1
  Se  Se116  1  0.08234310  0.08331480  0.55255485  1
  Se  Se117  1  0.07234524  0.40206180  0.05135929  1
  Se  Se118  1  0.08476164  0.41815968  0.55608764  1
  Se  Se119  1  0.07942327  0.74770343  0.05697906  1
  Se  Se120  1  0.08621550  0.74879869  0.55366743  1
  Se  Se121  1  0.41167618  0.07520368  0.05742092  1
  Se  Se122  1  0.41269741  0.08260312  0.55320384  1
  Se  Se123  1  0.42637043  0.42053519  0.04408867  1
  Se  Se124  1  0.42084978  0.42017668  0.55796414  1
  Se  Se125  1  0.41172334  0.72757175  0.04124163  1
  Se  Se126  1  0.41439974  0.74086359  0.57136690  1
  Se  Se127  1  0.74668148  0.08216034  0.06008200  1
  Se  Se128  1  0.75384825  0.08745779  0.54865917  1
  Se  Se129  1  0.75360640  0.41945342  0.04873464  1
  Se  Se130  1  0.75227547  0.42127289  0.55224476  1
  Se  Se131  1  0.75213721  0.75008717  0.05245653  1
  Se  Se132  1  0.74974910  0.74480432  0.55985020  1
  Se  Se133  1  0.26391458  0.25965500  0.05699245  1
  Se  Se134  1  0.24719791  0.25009522  0.55467525  1
  Se  Se135  1  0.22542755  0.56090465  0.05280698  1
  Se  Se136  1  0.25279691  0.57907635  0.55391211  1
  Se  Se137  1  0.25573046  0.92916077  0.04895164  1
  Se  Se138  1  0.24893907  0.90784835  0.55376872  1
  Se  Se139  1  0.59797774  0.26300896  0.05393082  1
  Se  Se140  1  0.58002470  0.25212912  0.55253493  1
  Se  Se141  1  0.58500958  0.57902268  0.05193251  1
  Se  Se142  1  0.58060576  0.58112108  0.55381797  1
  Se  Se143  1  0.58039158  0.91129280  0.05419374  1
  Se  Se144  1  0.58823465  0.92480515  0.56158655  1
  Se  Se145  1  0.92696321  0.25364538  0.05470206  1
  Se  Se146  1  0.91274386  0.25123896  0.55209614  1
  Se  Se147  1  0.90983631  0.58093349  0.05002704  1
  Se  Se148  1  0.91486302  0.58621329  0.55705079  1
  Se  Se149  1  0.91692314  0.91726331  0.05323490  1
  Se  Se150  1  0.92448927  0.92029128  0.56293256  1
  Se  Se151  1  0.08124167  0.25285379  0.44846483  1
  Se  Se152  1  0.07996635  0.26177492  0.93746554  1
  Se  Se153  1  0.08840369  0.57949467  0.44837393  1
  Se  Se154  1  0.07601805  0.58765850  0.94876127  1
  Se  Se155  1  0.08362315  0.91282631  0.44777684  1
  Se  Se156  1  0.08714743  0.91752021  0.94891903  1
  Se  Se157  1  0.41897487  0.24778316  0.45417334  1
  Se  Se158  1  0.42164754  0.25760127  0.93242510  1
  Se  Se159  1  0.42311889  0.58937830  0.44749625  1
  Se  Se160  1  0.39455593  0.60618976  0.95465584  1
  Se  Se161  1  0.40699500  0.92231457  0.44087061  1
  Se  Se162  1  0.42109182  0.91741049  0.95269804  1
  Se  Se163  1  0.74806771  0.25428190  0.44950211  1
  Se  Se164  1  0.74829610  0.26618987  0.92760650  1
  Se  Se165  1  0.75529221  0.58132886  0.44794021  1
  Se  Se166  1  0.74793364  0.58157396  0.94245198  1
  Se  Se167  1  0.73841302  0.91934573  0.43949826  1
  Se  Se168  1  0.75838861  0.91337470  0.95277903  1
  Se  Se169  1  0.24160875  0.08490424  0.44928457  1
  Se  Se170  1  0.26556295  0.08548696  0.93795259  1
  Se  Se171  1  0.25891265  0.41476574  0.44715920  1
  Se  Se172  1  0.24834356  0.41909945  0.94750392  1
  Se  Se173  1  0.25335099  0.75004811  0.45118555  1
  Se  Se174  1  0.23622311  0.75507514  0.95672806  1
  Se  Se175  1  0.57591768  0.08582277  0.44697057  1
  Se  Se176  1  0.59505581  0.07481634  0.94316959  1
  Se  Se177  1  0.58031218  0.42238462  0.44932999  1
  Se  Se178  1  0.57859141  0.42497462  0.93770834  1
  Se  Se179  1  0.58962510  0.74580098  0.44355306  1
  Se  Se180  1  0.58375127  0.75352642  0.95255152  1
  Se  Se181  1  0.91228996  0.08108622  0.44637876  1
  Se  Se182  1  0.92796370  0.08233596  0.93841829  1
  Se  Se183  1  0.91819786  0.42281224  0.44838344  1
  Se  Se184  1  0.91497458  0.40404830  0.94254745  1
  Se  Se185  1  0.92685861  0.73997262  0.43820055  1
  Se  Se186  1  0.91095182  0.75198904  0.94333153  1
  Se  Se187  1  0.24003528  0.24365600  0.30917219  1
  Se  Se188  1  0.24679498  0.25337506  0.79392269  1
  Se  Se189  1  0.26252051  0.59223122  0.30444600  1
  Se  Se190  1  0.24332721  0.57869326  0.81562432  1
  Se  Se191  1  0.24633441  0.90774003  0.30965160  1
  Se  Se192  1  0.25291684  0.91019978  0.81075017  1
  Se  Se193  1  0.57891100  0.24827776  0.31396697  1
  Se  Se194  1  0.57921310  0.24724692  0.79660675  1
  Se  Se195  1  0.58889848  0.58473580  0.30348940  1
  Se  Se196  1  0.55755902  0.58340055  0.80730484  1
  Se  Se197  1  0.57348704  0.91306327  0.29780360  1
  Se  Se198  1  0.58552558  0.91205661  0.81840759  1
  Se  Se199  1  0.90540759  0.24018589  0.30995882  1
  Se  Se200  1  0.90694555  0.25616331  0.80963774  1
  Se  Se201  1  0.91678568  0.58045488  0.30762109  1
  Se  Se202  1  0.89900912  0.56168399  0.80609569  1
  Se  Se203  1  0.91245682  0.91178215  0.30172985  1
  Se  Se204  1  0.91301534  0.91179993  0.81317112  1
  Se  Se205  1  0.07510831  0.07831298  0.30710213  1
  Se  Se206  1  0.10375807  0.09281266  0.80513698  1
  Se  Se207  1  0.10020560  0.42708523  0.30551217  1
  Se  Se208  1  0.08530934  0.42646412  0.81170225  1
  Se  Se209  1  0.09211848  0.75035979  0.30994512  1
  Se  Se210  1  0.08159884  0.74440840  0.80546056  1
  Se  Se211  1  0.41239619  0.08938208  0.31356712  1
  Se  Se212  1  0.41973483  0.08307756  0.80089746  1
  Se  Se213  1  0.42856346  0.42747491  0.30972742  1
  Se  Se214  1  0.39036996  0.40703176  0.80740600  1
  Se  Se215  1  0.41493069  0.74559502  0.29783114  1
  Se  Se216  1  0.41704880  0.75693640  0.82199746  1
  Se  Se217  1  0.74061115  0.07634924  0.30732619  1
  Se  Se218  1  0.75623427  0.09023644  0.80465491  1
  Se  Se219  1  0.75919799  0.42269065  0.30958420  1
  Se  Se220  1  0.71556927  0.41568887  0.79074724  1
  Se  Se221  1  0.74461911  0.74599058  0.29993966  1
  Se  Se222  1  0.74644911  0.74444265  0.80559461  1
  Se  Se223  1  0.24372568  0.08556690  0.19416279  1
  Se  Se224  1  0.26453995  0.06694179  0.69213103  1
  Se  Se225  1  0.25966652  0.43060791  0.18768240  1
  Se  Se226  1  0.24363227  0.42107640  0.69742792  1
  Se  Se227  1  0.25263721  0.75055485  0.18637852  1
  Se  Se228  1  0.24937734  0.74655178  0.69453694  1
  Se  Se229  1  0.58242661  0.07707403  0.20142652  1
  Se  Se230  1  0.57864080  0.08966101  0.68306699  1
  Se  Se231  1  0.57895686  0.42097324  0.18916139  1
  Se  Se232  1  0.60141099  0.40771997  0.69638304  1
  Se  Se233  1  0.58504360  0.74427255  0.19133874  1
  Se  Se234  1  0.58134733  0.75324769  0.70509324  1
  Se  Se235  1  0.91809758  0.07504421  0.20043373  1
  Se  Se236  1  0.91867575  0.08435521  0.69227902  1
  Se  Se237  1  0.91919921  0.42190298  0.18897556  1
  Se  Se238  1  0.90472316  0.42876774  0.69124103  1
  Se  Se239  1  0.90531860  0.75776497  0.18626143  1
  Se  Se240  1  0.92335209  0.74392539  0.70575025  1
  Se  Se241  1  0.09148871  0.24741634  0.19013467  1
  Se  Se242  1  0.09045644  0.24046948  0.69296847  1
  Se  Se243  1  0.09113295  0.57103809  0.19283622  1
  Se  Se244  1  0.07884070  0.58844246  0.69609457  1
  Se  Se245  1  0.08216002  0.91516261  0.20094249  1
  Se  Se246  1  0.09501478  0.90501845  0.69089059  1
  Se  Se247  1  0.42771007  0.24225664  0.19529991  1
  Se  Se248  1  0.41376674  0.25505135  0.68942285  1
  Se  Se249  1  0.41735938  0.58505704  0.18830420  1
  Se  Se250  1  0.42768576  0.56603365  0.69801749  1
  Se  Se251  1  0.41317777  0.89708709  0.17699475  1
  Se  Se252  1  0.41749442  0.91476212  0.70659294  1
  Se  Se253  1  0.75974666  0.23921154  0.18859144  1
  Se  Se254  1  0.75214516  0.25055343  0.69371440  1
  Se  Se255  1  0.74772826  0.58377216  0.19826491  1
  Se  Se256  1  0.72350280  0.60698025  0.69060412  1
  Se  Se257  1  0.74105730  0.91900247  0.19457845  1
  Se  Se258  1  0.76079692  0.90565978  0.69321317  1
