# generated using pymatgen
data_In86Cu29Se144
_symmetry_space_group_name_H-M   'P 1'
_cell_length_a   17.56274985
_cell_length_b   17.56430819
_cell_length_c   23.42721795
_cell_angle_alpha   89.98949173
_cell_angle_beta   90.00047929
_cell_angle_gamma   89.99896688
_symmetry_Int_Tables_number   1
_chemical_formula_structural   In86Cu29Se144
_chemical_formula_sum   'In86 Cu29 Se144'
_cell_volume   7226.77069771
_cell_formula_units_Z   1
loop_
 _symmetry_equiv_pos_site_id
 _symmetry_equiv_pos_as_xyz
  1  'x, y, z'
loop_
 _atom_site_type_symbol
 _atom_site_label
 _atom_site_symmetry_multiplicity
 _atom_site_fract_x
 _atom_site_fract_y
 _atom_site_fract_z
 _atom_site_occupancy
  In  In0  1  -0.01175371  0.18333405  0.13765334  1
  In  In1  1  0.00583767  0.17650140  0.62155997  1
  In  In2  1  -0.01246546  0.48679250  0.11160863  1
  In  In3  1  -0.00523276  0.50348017  0.62805209  1
  In  In4  1  -0.00772801  0.84752493  0.13550383  1
  In  In5  1  -0.01125483  0.82004706  0.62623377  1
  In  In6  1  0.34819507  0.17042274  0.12723355  1
  In  In7  1  0.34250298  0.15668649  0.62965065  1
  In  In8  1  0.31993365  0.50613466  0.12194662  1
  In  In9  1  0.33993738  0.48992136  0.62903839  1
  In  In10  1  0.32292013  0.82781896  0.12700109  1
  In  In11  1  0.34151199  0.83453498  0.62144718  1
  In  In12  1  0.67885597  0.15483697  0.13920319  1
  In  In13  1  0.66651086  0.16734329  0.62190585  1
  In  In14  1  0.67596929  0.48613824  0.12695262  1
  In  In15  1  0.65501835  0.49336394  0.61259629  1
  In  In16  1  0.68003833  0.83091564  0.13286473  1
  In  In17  1  0.66416230  0.84806736  0.62919482  1
  In  In18  1  0.14364243  -0.00152514  0.38220792  1
  In  In19  1  0.16803324  -0.00854606  0.87263298  1
  In  In20  1  0.16265045  0.31377986  0.35860163  1
  In  In21  1  0.17528382  0.34621104  0.87052951  1
  In  In22  1  0.17606524  0.67472207  0.38229054  1
  In  In23  1  0.15320337  0.65381621  0.86007050  1
  In  In24  1  0.51432646  -0.00690739  0.38251435  1
  In  In25  1  0.51120367  -0.00439499  0.85369906  1
  In  In26  1  0.50026675  0.33057177  0.38023894  1
  In  In27  1  0.50082551  0.33539880  0.86237343  1
  In  In28  1  0.50966158  0.65957427  0.41309014  1
  In  In29  1  0.48903491  0.67845999  0.86120649  1
  In  In30  1  0.84687675  0.01307532  0.36590065  1
  In  In31  1  0.82572899  0.00970739  0.88150970  1
  In  In32  1  0.82661481  0.33569338  0.37522478  1
  In  In33  1  0.83488884  0.33081733  0.87079805  1
  In  In34  1  0.81884776  0.66310011  0.38078240  1
  In  In35  1  0.85089967  0.65138560  0.89117826  1
  In  In36  1  -0.00996422  0.15700458  0.36561065  1
  In  In37  1  -0.01991797  0.16532500  0.87635696  1
  In  In38  1  -0.00146908  0.48268737  0.37283905  1
  In  In39  1  0.00303188  0.50125805  0.87499972  1
  In  In40  1  -0.00947655  0.87181053  0.38796153  1
  In  In41  1  -0.00110352  0.81683649  0.87433976  1
  In  In42  1  0.33024897  0.18203859  0.37627123  1
  In  In43  1  0.34017118  0.16946469  0.86377195  1
  In  In44  1  0.34337984  0.49620872  0.38240474  1
  In  In45  1  0.32394418  0.49454647  0.86452765  1
  In  In46  1  0.33547419  0.82282029  0.39487109  1
  In  In47  1  0.33484916  0.83057910  0.85046651  1
  In  In48  1  0.66882457  0.16935903  0.37757846  1
  In  In49  1  0.67164004  0.17188352  0.86718532  1
  In  In50  1  0.67643402  0.49532224  0.38853344  1
  In  In51  1  0.68310632  0.49880933  0.87238394  1
  In  In52  1  0.66001869  0.83240704  0.37530171  1
  In  In53  1  0.67169315  0.84218397  0.86733814  1
  In  In54  1  0.15721531  -0.01415277  0.12802231  1
  In  In55  1  0.18177978  0.00579847  0.62217847  1
  In  In56  1  0.15442248  0.34110569  0.13601453  1
  In  In57  1  0.16232377  0.33899693  0.63235931  1
  In  In58  1  0.17368051  0.66241264  0.12025091  1
  In  In59  1  0.16040782  0.67402917  0.62836598  1
  In  In60  1  0.50286350  0.01387194  0.13038450  1
  In  In61  1  0.50042087  0.00103450  0.61946471  1
  In  In62  1  0.50915134  0.33258946  0.13663417  1
  In  In63  1  0.50082756  0.33280283  0.62046342  1
  In  In64  1  0.48536382  0.67624013  0.12441694  1
  In  In65  1  0.49064123  0.65578901  0.60805877  1
  In  In66  1  0.82771548  0.00602088  0.12805178  1
  In  In67  1  0.82072981  -0.00597933  0.62553108  1
  In  In68  1  0.83466794  0.33143730  0.12519751  1
  In  In69  1  0.83170553  0.33042576  0.62507974  1
  In  In70  1  0.84390714  0.66898434  0.11040404  1
  In  In71  1  0.84707154  0.66278368  0.62987063  1
  In  In72  1  0.50912448  0.17201146  -0.00657847  1
  In  In73  1  0.66478457  0.66504500  0.74374578  1
  In  In74  1  0.16653007  0.16411544  0.49855269  1
  In  In75  1  0.16803098  0.49747193  0.50102319  1
  In  In76  1  0.15493386  0.82414707  -0.00464476  1
  In  In77  1  0.50781589  0.83525331  -0.01461793  1
  In  In78  1  0.15872020  0.17480820  0.01030839  1
  In  In79  1  0.82896887  0.83498840  0.49974526  1
  In  In80  1  0.00209418  0.00172796  0.75126664  1
  In  In81  1  0.32716724  0.00390916  0.25710467  1
  In  In82  1  0.33966929  0.66126208  0.26128742  1
  In  In83  1  0.50986102  0.50148410  -0.00201507  1
  In  In84  1  0.66914478  0.66016816  0.26258890  1
  In  In85  1  0.00174664  0.66668900  0.24524417  1
  Cu  Cu86  1  0.16696410  0.17829833  0.75058305  1
  Cu  Cu87  1  0.82934868  0.17445710  0.25273701  1
  Cu  Cu88  1  0.49947384  0.83391014  0.25971310  1
  Cu  Cu89  1  0.33183237  0.33363894  0.50203251  1
  Cu  Cu90  1  0.15818766  0.83800935  0.26209814  1
  Cu  Cu91  1  -0.01474079  0.00057079  0.00678625  1
  Cu  Cu92  1  0.50398067  0.49183992  0.26133532  1
  Cu  Cu93  1  0.66906809  0.00874427  0.50044538  1
  Cu  Cu94  1  0.68095729  0.32597792  -0.00028441  1
  Cu  Cu95  1  -0.00070369  0.66344998  0.50216123  1
  Cu  Cu96  1  0.17405550  0.83837319  0.74461267  1
  Cu  Cu97  1  0.16724484  0.48900883  0.24679972  1
  Cu  Cu98  1  0.16638515  0.50706235  0.74678718  1
  Cu  Cu99  1  0.32992925  0.34647270  -0.00088526  1
  Cu  Cu100  1  0.67134731  -0.00228261  0.00310147  1
  Cu  Cu101  1  0.82628661  0.16560315  0.74831486  1
  Cu  Cu102  1  0.00097254  0.33478414  -0.00084290  1
  Cu  Cu103  1  0.83561167  0.49150231  0.75135880  1
  Cu  Cu104  1  0.34016340  -0.00206360  0.50269256  1
  Cu  Cu105  1  0.50358377  0.17176417  0.25652757  1
  Cu  Cu106  1  0.83200662  0.82856212  0.75350691  1
  Cu  Cu107  1  0.50214377  0.49823900  0.73967788  1
  Cu  Cu108  1  0.32796083  0.00096893  -0.01302845  1
  Cu  Cu109  1  0.83496815  0.49669473  0.24940729  1
  Cu  Cu110  1  0.50198333  0.16645211  0.74055012  1
  Cu  Cu111  1  -0.01579154  0.32959212  0.49647834  1
  Cu  Cu112  1  0.32275797  0.66246060  -0.01231713  1
  Cu  Cu113  1  0.66895774  0.32981825  0.49989133  1
  Cu  Cu114  1  0.67432029  0.66227350  0.00276409  1
  Se  Se115  1  0.07088150  0.07722555  0.06497933  1
  Se  Se116  1  0.07629782  0.07349622  0.55762338  1
  Se  Se117  1  0.09001184  0.41281290  0.05212501  1
  Se  Se118  1  0.07136188  0.40627421  0.55536333  1
  Se  Se119  1  0.07110629  0.74743197  0.06785314  1
  Se  Se120  1  0.07767895  0.74966836  0.55480854  1
  Se  Se121  1  0.41199684  0.07628876  0.04922807  1
  Se  Se122  1  0.41983088  0.08974778  0.55035922  1
  Se  Se123  1  0.41987677  0.41456592  0.06156389  1
  Se  Se124  1  0.41764183  0.41798137  0.55130675  1
  Se  Se125  1  0.40229828  0.74973539  0.04592251  1
  Se  Se126  1  0.42189259  0.75798552  0.54819331  1
  Se  Se127  1  0.74779057  0.08926232  0.05499943  1
  Se  Se128  1  0.75583312  0.08613976  0.55453135  1
  Se  Se129  1  0.75791014  0.41712933  0.05171564  1
  Se  Se130  1  0.75237398  0.41387059  0.55360487  1
  Se  Se131  1  0.74868593  0.75500757  0.05352915  1
  Se  Se132  1  0.75086409  0.74936241  0.56993716  1
  Se  Se133  1  0.26117003  0.26052781  0.06260628  1
  Se  Se134  1  0.25149542  0.25509940  0.56311210  1
  Se  Se135  1  0.24417352  0.57997364  0.04468366  1
  Se  Se136  1  0.25089027  0.58243342  0.56656379  1
  Se  Se137  1  0.25255286  0.92062181  0.05154360  1
  Se  Se138  1  0.25204426  0.91672804  0.55259273  1
  Se  Se139  1  0.59483693  0.25362094  0.06229589  1
  Se  Se140  1  0.58254674  0.24811844  0.55225884  1
  Se  Se141  1  0.58901331  0.59344702  0.06645946  1
  Se  Se142  1  0.58976102  0.58715104  0.54370082  1
  Se  Se143  1  0.58340833  0.92151021  0.06152635  1
  Se  Se144  1  0.58846651  0.92070859  0.55121982  1
  Se  Se145  1  0.91930409  0.25104213  0.05436685  1
  Se  Se146  1  0.91034372  0.24352529  0.55387035  1
  Se  Se147  1  0.92366890  0.58393635  0.04572639  1
  Se  Se148  1  0.91541148  0.58012325  0.55313248  1
  Se  Se149  1  0.90696633  0.91474622  0.06077625  1
  Se  Se150  1  0.92292488  0.92266427  0.55990235  1
  Se  Se151  1  0.07542614  0.25495563  0.43977072  1
  Se  Se152  1  0.07916067  0.25479345  0.93586140  1
  Se  Se153  1  0.07564423  0.58416144  0.43890566  1
  Se  Se154  1  0.08062842  0.59257418  0.94169801  1
  Se  Se155  1  0.10296034  0.89615189  0.45476862  1
  Se  Se156  1  0.06756813  0.92778283  0.94256065  1
  Se  Se157  1  0.41639952  0.24849932  0.45080734  1
  Se  Se158  1  0.40944747  0.26347769  0.94005652  1
  Se  Se159  1  0.39446482  0.59003038  0.45621857  1
  Se  Se160  1  0.41621587  0.58711090  0.93521173  1
  Se  Se161  1  0.42534490  0.91480805  0.45006690  1
  Se  Se162  1  0.41058126  0.92290976  0.92836412  1
  Se  Se163  1  0.75488687  0.24793696  0.44740261  1
  Se  Se164  1  0.75652032  0.24183541  0.94137534  1
  Se  Se165  1  0.74019171  0.59372557  0.45586854  1
  Se  Se166  1  0.75315314  0.57303033  0.95179718  1
  Se  Se167  1  0.74840190  0.93029872  0.43697387  1
  Se  Se168  1  0.74927157  0.91380951  0.94522742  1
  Se  Se169  1  0.25904746  0.07418298  0.43865161  1
  Se  Se170  1  0.24669326  0.09079318  0.93842083  1
  Se  Se171  1  0.24547780  0.40001737  0.43703555  1
  Se  Se172  1  0.24735295  0.42847637  0.94599910  1
  Se  Se173  1  0.25462671  0.73695112  0.46071820  1
  Se  Se174  1  0.25118376  0.75117601  0.92759305  1
  Se  Se175  1  0.58289854  0.09060012  0.44799862  1
  Se  Se176  1  0.58927913  0.07076039  0.93664256  1
  Se  Se177  1  0.58228516  0.41443050  0.44928667  1
  Se  Se178  1  0.59476270  0.40304646  0.93981889  1
  Se  Se179  1  0.59788594  0.75986095  0.45746871  1
  Se  Se180  1  0.59516427  0.73321220  0.93367252  1
  Se  Se181  1  0.93089900  0.07363428  0.44393473  1
  Se  Se182  1  0.90803371  0.08861996  0.95321717  1
  Se  Se183  1  0.90759094  0.42167320  0.44612357  1
  Se  Se184  1  0.91874741  0.41258103  0.93968389  1
  Se  Se185  1  0.92328451  0.74650379  0.43840712  1
  Se  Se186  1  0.91037315  0.76060700  0.94975460  1
  Se  Se187  1  0.25917736  0.24579345  0.29379022  1
  Se  Se188  1  0.25456169  0.25818033  0.80295861  1
  Se  Se189  1  0.23932035  0.57015426  0.31210814  1
  Se  Se190  1  0.25658257  0.59018600  0.79639647  1
  Se  Se191  1  0.24990207  0.90631440  0.32042709  1
  Se  Se192  1  0.25150700  0.92959245  0.79576745  1
  Se  Se193  1  0.58760957  0.25595152  0.30874694  1
  Se  Se194  1  0.58343824  0.24812806  0.79897116  1
  Se  Se195  1  0.57120301  0.58047534  0.32393235  1
  Se  Se196  1  0.57753811  0.57322394  0.80885611  1
  Se  Se197  1  0.58819354  0.92010274  0.30271806  1
  Se  Se198  1  0.57789197  0.89416554  0.79301382  1
  Se  Se199  1  0.91496187  0.25676512  0.30644681  1
  Se  Se200  1  0.91493992  0.24675347  0.79889431  1
  Se  Se201  1  0.90994273  0.57990052  0.31051228  1
  Se  Se202  1  0.91262809  0.57994860  0.80583863  1
  Se  Se203  1  0.91654939  0.91380706  0.30100808  1
  Se  Se204  1  0.91145437  0.91397298  0.81235814  1
  Se  Se205  1  0.10176508  0.09630604  0.30851032  1
  Se  Se206  1  0.08986484  0.09579213  0.81246813  1
  Se  Se207  1  0.08029823  0.40943304  0.29947765  1
  Se  Se208  1  0.08551306  0.42176966  0.80270304  1
  Se  Se209  1  0.08005760  0.75170081  0.31761348  1
  Se  Se210  1  0.08687835  0.75751889  0.79754949  1
  Se  Se211  1  0.42513944  0.08709046  0.31589624  1
  Se  Se212  1  0.41921094  0.08320919  0.79657525  1
  Se  Se213  1  0.41380682  0.41133127  0.30926164  1
  Se  Se214  1  0.41640133  0.41950323  0.79801681  1
  Se  Se215  1  0.42910645  0.74890005  0.32175797  1
  Se  Se216  1  0.42330460  0.75560592  0.78390625  1
  Se  Se217  1  0.74841882  0.08772412  0.30506090  1
  Se  Se218  1  0.74778715  0.07733373  0.80200354  1
  Se  Se219  1  0.74603512  0.42353442  0.30646342  1
  Se  Se220  1  0.74712804  0.40861857  0.80015960  1
  Se  Se221  1  0.76161478  0.76208544  0.30695982  1
  Se  Se222  1  0.75791294  0.74015483  0.81260712  1
  Se  Se223  1  0.24762782  0.08407199  0.18393899  1
  Se  Se224  1  0.24559782  0.09045175  0.69833162  1
  Se  Se225  1  0.25902877  0.41436005  0.19424219  1
  Se  Se226  1  0.24935355  0.41788988  0.69887886  1
  Se  Se227  1  0.23856497  0.75066388  0.20288825  1
  Se  Se228  1  0.25413300  0.75301824  0.69097131  1
  Se  Se229  1  0.58391965  0.08260350  0.20588766  1
  Se  Se230  1  0.58639309  0.08079936  0.69064938  1
  Se  Se231  1  0.59103659  0.41910377  0.20277605  1
  Se  Se232  1  0.58629527  0.41403358  0.69063102  1
  Se  Se233  1  0.57468124  0.74816429  0.19791521  1
  Se  Se234  1  0.57528764  0.74733198  0.68032647  1
  Se  Se235  1  0.91125709  0.08772444  0.19905110  1
  Se  Se236  1  0.91168927  0.08823052  0.68894593  1
  Se  Se237  1  0.91930826  0.41630679  0.19410889  1
  Se  Se238  1  0.91867170  0.41151264  0.69385269  1
  Se  Se239  1  0.90134415  0.75426980  0.19413333  1
  Se  Se240  1  0.91869453  0.74462350  0.70548926  1
  Se  Se241  1  0.09578228  0.23807440  0.19902239  1
  Se  Se242  1  0.07747255  0.25445245  0.69842352  1
  Se  Se243  1  0.08926904  0.57263417  0.18615488  1
  Se  Se244  1  0.07867874  0.58701081  0.69476314  1
  Se  Se245  1  0.07730911  0.92192202  0.20777280  1
  Se  Se246  1  0.08662383  0.91374088  0.68561951  1
  Se  Se247  1  0.41990118  0.25226184  0.20154491  1
  Se  Se248  1  0.41688074  0.25387994  0.69222220  1
  Se  Se249  1  0.42708664  0.57221902  0.19498870  1
  Se  Se250  1  0.41979583  0.58536351  0.69061217  1
  Se  Se251  1  0.41811631  0.90880821  0.19374012  1
  Se  Se252  1  0.40024910  0.93902955  0.68652036  1
  Se  Se253  1  0.74736261  0.25947607  0.19821368  1
  Se  Se254  1  0.74537879  0.25075770  0.69424870  1
  Se  Se255  1  0.75945091  0.58358211  0.18993851  1
  Se  Se256  1  0.75434691  0.56854728  0.68766044  1
  Se  Se257  1  0.73481210  0.93357586  0.19676685  1
  Se  Se258  1  0.75114667  0.91602327  0.70368682  1
