# generated using pymatgen
data_In86Cu29Se144
_symmetry_space_group_name_H-M   'P 1'
_cell_length_a   17.57540509
_cell_length_b   17.57467241
_cell_length_c   23.43490840
_cell_angle_alpha   90.00419503
_cell_angle_beta   89.99290174
_cell_angle_gamma   90.01919548
_symmetry_Int_Tables_number   1
_chemical_formula_structural   In86Cu29Se144
_chemical_formula_sum   'In86 Cu29 Se144'
_cell_volume   7238.62059170
_cell_formula_units_Z   1
loop_
 _symmetry_equiv_pos_site_id
 _symmetry_equiv_pos_as_xyz
  1  'x, y, z'
loop_
 _atom_site_type_symbol
 _atom_site_label
 _atom_site_symmetry_multiplicity
 _atom_site_fract_x
 _atom_site_fract_y
 _atom_site_fract_z
 _atom_site_occupancy
  In  In0  1  -0.01607021  0.16694438  0.12200806  1
  In  In1  1  -0.02974852  0.14637205  0.59199508  1
  In  In2  1  -0.00292247  0.48458011  0.10706171  1
  In  In3  1  0.00629570  0.48898532  0.62501056  1
  In  In4  1  -0.00107682  0.84638518  0.12505424  1
  In  In5  1  -0.01931570  0.85598964  0.63121715  1
  In  In6  1  0.34287224  0.15565340  0.13162896  1
  In  In7  1  0.31898214  0.16862856  0.62081749  1
  In  In8  1  0.33996483  0.50144194  0.12936598  1
  In  In9  1  0.32419456  0.49921411  0.62348603  1
  In  In10  1  0.33876116  0.82426355  0.12953086  1
  In  In11  1  0.34744432  0.83770293  0.62554251  1
  In  In12  1  0.66644162  0.16476300  0.12440227  1
  In  In13  1  0.67990908  0.14921091  0.63869698  1
  In  In14  1  0.65127846  0.48277862  0.11920202  1
  In  In15  1  0.66532022  0.50322203  0.64003426  1
  In  In16  1  0.67691050  0.84265517  0.11542744  1
  In  In17  1  0.68551047  0.82274113  0.64487420  1
  In  In18  1  0.16987839  0.00686895  0.37163078  1
  In  In19  1  0.16316801  0.00163384  0.86504397  1
  In  In20  1  0.17106413  0.32541505  0.38028414  1
  In  In21  1  0.17537013  0.33742254  0.87750794  1
  In  In22  1  0.16810003  0.65763841  0.37622001  1
  In  In23  1  0.16549784  0.65521311  0.87229473  1
  In  In24  1  0.50476015  0.00010567  0.36363920  1
  In  In25  1  0.50120746  0.00206471  0.88054242  1
  In  In26  1  0.50243688  0.33803316  0.35773930  1
  In  In27  1  0.51117254  0.32084357  0.88857615  1
  In  In28  1  0.50003127  0.67677656  0.36954328  1
  In  In29  1  0.51425307  0.65760706  0.88575584  1
  In  In30  1  0.83570055  0.00481068  0.37585686  1
  In  In31  1  0.83204529  -0.00020051  0.87348477  1
  In  In32  1  0.82368752  0.32414369  0.37128206  1
  In  In33  1  0.82582495  0.34504736  0.88674218  1
  In  In34  1  0.83828692  0.66286183  0.37856918  1
  In  In35  1  0.82021160  0.67966815  0.88302718  1
  In  In36  1  0.01473679  0.15326229  0.39212538  1
  In  In37  1  -0.00494720  0.15079700  0.87123765  1
  In  In38  1  0.00564218  0.51000905  0.37791190  1
  In  In39  1  0.00413900  0.49145260  0.88589617  1
  In  In40  1  -0.01936553  0.83977403  0.38263565  1
  In  In41  1  -0.02206940  0.83982781  0.87041285  1
  In  In42  1  0.33051934  0.16105782  0.36510201  1
  In  In43  1  0.34354703  0.17015373  0.87926750  1
  In  In44  1  0.32702614  0.48834254  0.35428642  1
  In  In45  1  0.33676903  0.50329161  0.88352111  1
  In  In46  1  0.33638122  0.83868740  0.36350533  1
  In  In47  1  0.33399987  0.84912669  0.87742432  1
  In  In48  1  0.67674197  0.16997942  0.37402738  1
  In  In49  1  0.66792321  0.16725139  0.87636024  1
  In  In50  1  0.67568753  0.49367417  0.37012487  1
  In  In51  1  0.66694600  0.50037093  0.87891122  1
  In  In52  1  0.66445098  0.84251387  0.37543460  1
  In  In53  1  0.66938914  0.83422509  0.87647953  1
  In  In54  1  0.16270680  0.00391684  0.13487267  1
  In  In55  1  0.15106667  0.01555946  0.63072547  1
  In  In56  1  0.16611949  0.34977239  0.12407984  1
  In  In57  1  0.15158917  0.32617268  0.60581548  1
  In  In58  1  0.17990556  0.65990483  0.12826563  1
  In  In59  1  0.16684396  0.65695999  0.62081680  1
  In  In60  1  0.50397356  0.00055475  0.12160227  1
  In  In61  1  0.50421821  -0.00493174  0.63546312  1
  In  In62  1  0.50327611  0.33224139  0.13016458  1
  In  In63  1  0.50666063  0.34028161  0.62914754  1
  In  In64  1  0.48951708  0.65744986  0.11609223  1
  In  In65  1  0.50937703  0.67492506  0.62958275  1
  In  In66  1  0.82926976  0.00021563  0.12286111  1
  In  In67  1  0.83147066  -0.00237318  0.62187167  1
  In  In68  1  0.82055355  0.31388240  0.10975224  1
  In  In69  1  0.83547332  0.31827209  0.62839471  1
  In  In70  1  0.83501861  0.66568021  0.11622151  1
  In  In71  1  0.81871216  0.67555616  0.63173655  1
  In  In72  1  0.50179716  0.16945805  0.49646444  1
  In  In73  1  0.83862022  0.49595341  0.50354513  1
  In  In74  1  -0.00180687  0.32662320  0.24869629  1
  In  In75  1  0.34089496  0.66562488  0.75056722  1
  In  In76  1  0.16682732  0.82738354  0.00098935  1
  In  In77  1  0.00387318  0.66876067  0.25503717  1
  In  In78  1  0.00194757  0.32664393  0.74991844  1
  In  In79  1  0.33515389  0.33022668  0.74772377  1
  In  In80  1  0.16161327  0.83792600  0.50401175  1
  In  In81  1  -0.00240875  0.66641661  0.74909924  1
  In  In82  1  0.50688831  0.83403505  0.49544869  1
  In  In83  1  0.66004958  0.66413217  0.24400732  1
  In  In84  1  0.16436294  0.17335524  -0.00039164  1
  In  In85  1  0.50033157  0.50334224  0.50247345  1
  Cu  Cu86  1  0.16867006  0.50314046  0.24685705  1
  Cu  Cu87  1  0.82895827  0.84019491  0.25003821  1
  Cu  Cu88  1  -0.01029256  -0.00304044  -0.00283324  1
  Cu  Cu89  1  0.32527217  0.33522596  0.48851357  1
  Cu  Cu90  1  0.33762004  -0.00001483  0.00439145  1
  Cu  Cu91  1  0.50058471  0.16284101  0.75989186  1
  Cu  Cu92  1  0.33740572  0.33884192  0.00535784  1
  Cu  Cu93  1  0.32830624  0.00813861  0.49763682  1
  Cu  Cu94  1  0.66337406  0.33431440  0.00203490  1
  Cu  Cu95  1  0.50410923  0.16402454  0.24525193  1
  Cu  Cu96  1  0.16850351  0.83397682  0.74938350  1
  Cu  Cu97  1  0.16402050  0.84098299  0.25132128  1
  Cu  Cu98  1  0.83084574  0.16443982  0.74733573  1
  Cu  Cu99  1  0.50284753  0.83710745  0.75665598  1
  Cu  Cu100  1  0.33775377  0.66288144  0.00570390  1
  Cu  Cu101  1  0.33007956  0.65899230  0.49382689  1
  Cu  Cu102  1  0.67558604  -0.00483256  0.50377664  1
  Cu  Cu103  1  0.66889075  0.32964433  0.50068535  1
  Cu  Cu104  1  0.50535756  0.49537482  0.75915108  1
  Cu  Cu105  1  0.00174106  0.66364132  -0.00561100  1
  Cu  Cu106  1  0.16335612  0.16120955  0.74163546  1
  Cu  Cu107  1  0.82561747  0.48632009  0.24258949  1
  Cu  Cu108  1  -0.00447729  0.67256037  0.50261815  1
  Cu  Cu109  1  0.83105670  0.50342342  0.76160732  1
  Cu  Cu110  1  0.66858145  0.66799384  0.00117332  1
  Cu  Cu111  1  0.49894282  0.83462260  0.24306240  1
  Cu  Cu112  1  0.66831050  0.00604046  -0.00217829  1
  Cu  Cu113  1  0.83082214  0.15719993  0.24769069  1
  Cu  Cu114  1  0.16705670  0.16913103  0.25522508  1
  Se  Se115  1  0.07702247  0.07374721  0.05551520  1
  Se  Se116  1  0.09057984  0.08744836  0.54775105  1
  Se  Se117  1  0.09117986  0.41194415  0.04330714  1
  Se  Se118  1  0.08932451  0.43319433  0.54632423  1
  Se  Se119  1  0.07629063  0.73956086  0.06364802  1
  Se  Se120  1  0.07233354  0.75031087  0.56754110  1
  Se  Se121  1  0.42081500  0.08704462  0.05315067  1
  Se  Se122  1  0.41660296  0.07730364  0.55973716  1
  Se  Se123  1  0.42236180  0.41824807  0.06030190  1
  Se  Se124  1  0.40718982  0.40462453  0.55570879  1
  Se  Se125  1  0.41775520  0.75622431  0.05106774  1
  Se  Se126  1  0.41202944  0.73796134  0.55372933  1
  Se  Se127  1  0.75252637  0.08738221  0.05306666  1
  Se  Se128  1  0.75083360  0.08930812  0.55351683  1
  Se  Se129  1  0.75086248  0.41966035  0.05204227  1
  Se  Se130  1  0.74151185  0.41304493  0.56455610  1
  Se  Se131  1  0.75568981  0.75274686  0.04968915  1
  Se  Se132  1  0.74609944  0.75602984  0.55845051  1
  Se  Se133  1  0.25809789  0.25330559  0.06407522  1
  Se  Se134  1  0.24913133  0.24824771  0.54475777  1
  Se  Se135  1  0.25280879  0.57801817  0.05554908  1
  Se  Se136  1  0.24807854  0.57841113  0.54930219  1
  Se  Se137  1  0.25084661  0.92261479  0.06172519  1
  Se  Se138  1  0.25764312  0.92428689  0.56212583  1
  Se  Se139  1  0.58229139  0.25010275  0.05746376  1
  Se  Se140  1  0.59122075  0.25022874  0.56378483  1
  Se  Se141  1  0.58549584  0.58292564  0.05343320  1
  Se  Se142  1  0.59452517  0.58998961  0.56075467  1
  Se  Se143  1  0.58525653  0.91975395  0.04988187  1
  Se  Se144  1  0.59077167  0.91856263  0.56254892  1
  Se  Se145  1  0.92739042  0.25620613  0.04752654  1
  Se  Se146  1  0.93662382  0.28082387  0.55570707  1
  Se  Se147  1  0.91696890  0.58165259  0.04889202  1
  Se  Se148  1  0.91977740  0.59195565  0.56751099  1
  Se  Se149  1  0.91043765  0.91276872  0.05281583  1
  Se  Se150  1  0.91648036  0.92364477  0.54878818  1
  Se  Se151  1  0.07400818  0.26458323  0.44741164  1
  Se  Se152  1  0.07497256  0.25310847  0.93330520  1
  Se  Se153  1  0.08172963  0.59102016  0.45116347  1
  Se  Se154  1  0.09107897  0.58053211  0.94831298  1
  Se  Se155  1  0.07681332  0.92670126  0.44184375  1
  Se  Se156  1  0.07938929  0.92015311  0.94042063  1
  Se  Se157  1  0.41503399  0.25964615  0.43377583  1
  Se  Se158  1  0.41618081  0.24834148  0.95471651  1
  Se  Se159  1  0.41318099  0.58415641  0.43369809  1
  Se  Se160  1  0.42276304  0.58052212  0.95174264  1
  Se  Se161  1  0.41128470  0.92691647  0.44022755  1
  Se  Se162  1  0.41985087  0.91601991  0.95113908  1
  Se  Se163  1  0.75369675  0.24625657  0.45034002  1
  Se  Se164  1  0.74689625  0.25061964  0.94855966  1
  Se  Se165  1  0.74301425  0.58377233  0.44496608  1
  Se  Se166  1  0.75144271  0.58222891  0.94822384  1
  Se  Se167  1  0.75365621  0.91509864  0.44357600  1
  Se  Se168  1  0.75100933  0.91966361  0.94555711  1
  Se  Se169  1  0.24929440  0.09114564  0.44240873  1
  Se  Se170  1  0.25223826  0.07479991  0.94271972  1
  Se  Se171  1  0.25048356  0.42745757  0.43731805  1
  Se  Se172  1  0.25297782  0.41725093  0.94931496  1
  Se  Se173  1  0.25686407  0.75302645  0.44024858  1
  Se  Se174  1  0.25947040  0.73955198  0.93912209  1
  Se  Se175  1  0.59042917  0.07119446  0.44236721  1
  Se  Se176  1  0.58167291  0.08982303  0.94738587  1
  Se  Se177  1  0.58791488  0.40852565  0.44158452  1
  Se  Se178  1  0.58132591  0.42159783  0.94996607  1
  Se  Se179  1  0.59718464  0.73737434  0.44252320  1
  Se  Se180  1  0.58608051  0.75455852  0.94927159  1
  Se  Se181  1  0.90423094  0.09386682  0.44843356  1
  Se  Se182  1  0.91001522  0.08569970  0.94695775  1
  Se  Se183  1  0.91912536  0.41245324  0.43354342  1
  Se  Se184  1  0.91935528  0.41462011  0.95329897  1
  Se  Se185  1  0.90719478  0.74992537  0.45126499  1
  Se  Se186  1  0.91894046  0.75281160  0.94739907  1
  Se  Se187  1  0.25117828  0.25649562  0.30293438  1
  Se  Se188  1  0.24177027  0.23793235  0.80628817  1
  Se  Se189  1  0.24879762  0.59196378  0.29873663  1
  Se  Se190  1  0.24965825  0.56920472  0.80267626  1
  Se  Se191  1  0.25099256  0.92479025  0.30122634  1
  Se  Se192  1  0.25203384  0.91791523  0.80162134  1
  Se  Se193  1  0.58765654  0.24281401  0.30338519  1
  Se  Se194  1  0.58300122  0.25196283  0.80729798  1
  Se  Se195  1  0.57669538  0.57405782  0.30810185  1
  Se  Se196  1  0.58733394  0.58507284  0.80662693  1
  Se  Se197  1  0.58602563  0.91222554  0.29821262  1
  Se  Se198  1  0.58421771  0.92103399  0.81053287  1
  Se  Se199  1  0.91385144  0.23406514  0.30959972  1
  Se  Se200  1  0.90547101  0.24631875  0.81143351  1
  Se  Se201  1  0.90510544  0.56916065  0.30255581  1
  Se  Se202  1  0.91600062  0.58033786  0.81859224  1
  Se  Se203  1  0.91550571  0.91924858  0.30410830  1
  Se  Se204  1  0.92788115  0.93847679  0.80085330  1
  Se  Se205  1  0.07941787  0.08732426  0.30578078  1
  Se  Se206  1  0.07826420  0.08063448  0.79612686  1
  Se  Se207  1  0.08636805  0.42353381  0.30684219  1
  Se  Se208  1  0.09105684  0.42166041  0.80694088  1
  Se  Se209  1  0.08800035  0.76287411  0.31704467  1
  Se  Se210  1  0.08934952  0.75768158  0.81167199  1
  Se  Se211  1  0.41808921  0.08128127  0.29876060  1
  Se  Se212  1  0.41301670  0.08058986  0.80914574  1
  Se  Se213  1  0.42425090  0.42166722  0.29055188  1
  Se  Se214  1  0.42194660  0.41479529  0.81475518  1
  Se  Se215  1  0.41693318  0.75112405  0.29764687  1
  Se  Se216  1  0.42354201  0.75333244  0.81647012  1
  Se  Se217  1  0.74602456  0.07778681  0.30420589  1
  Se  Se218  1  0.74801945  0.08494266  0.80537292  1
  Se  Se219  1  0.74519995  0.40522344  0.29877282  1
  Se  Se220  1  0.74737046  0.41465272  0.80874241  1
  Se  Se221  1  0.75522192  0.74946632  0.30709511  1
  Se  Se222  1  0.75406218  0.75690849  0.80532000  1
  Se  Se223  1  0.24941952  0.08461463  0.20027229  1
  Se  Se224  1  0.25552598  0.07959118  0.69486873  1
  Se  Se225  1  0.25252334  0.41705440  0.19720879  1
  Se  Se226  1  0.23890654  0.40846287  0.68547950  1
  Se  Se227  1  0.24367500  0.75471741  0.19785988  1
  Se  Se228  1  0.24642137  0.75357985  0.68868303  1
  Se  Se229  1  0.58708316  0.07876498  0.19389848  1
  Se  Se230  1  0.58268568  0.08021485  0.70397185  1
  Se  Se231  1  0.58463286  0.41414477  0.20083398  1
  Se  Se232  1  0.58704831  0.41098099  0.70445131  1
  Se  Se233  1  0.57910664  0.75695036  0.18074907  1
  Se  Se234  1  0.58413609  0.74892759  0.70540566  1
  Se  Se235  1  0.91710174  0.07798759  0.19388838  1
  Se  Se236  1  0.91520307  0.09145236  0.68561144  1
  Se  Se237  1  0.91049059  0.41222092  0.18356100  1
  Se  Se238  1  0.90719784  0.42446521  0.69641028  1
  Se  Se239  1  0.91027987  0.75447773  0.19350759  1
  Se  Se240  1  0.90469579  0.76303713  0.70098764  1
  Se  Se241  1  0.09120971  0.24167194  0.18569298  1
  Se  Se242  1  0.08242068  0.23964883  0.68237971  1
  Se  Se243  1  0.07850520  0.57410956  0.18742957  1
  Se  Se244  1  0.09229216  0.57296207  0.69677188  1
  Se  Se245  1  0.07607448  0.92099169  0.20057691  1
  Se  Se246  1  0.08430243  0.91570215  0.69575083  1
  Se  Se247  1  0.41666944  0.24877099  0.19786826  1
  Se  Se248  1  0.42608956  0.23699310  0.68906679  1
  Se  Se249  1  0.40848052  0.59884394  0.19568281  1
  Se  Se250  1  0.42868749  0.56896812  0.69030765  1
  Se  Se251  1  0.41582107  0.92047259  0.19119318  1
  Se  Se252  1  0.41568103  0.91587800  0.70308363  1
  Se  Se253  1  0.75337073  0.24638774  0.19396603  1
  Se  Se254  1  0.74550156  0.25383897  0.70104190  1
  Se  Se255  1  0.75350834  0.57601157  0.18526572  1
  Se  Se256  1  0.75090897  0.58706208  0.70484030  1
  Se  Se257  1  0.74567269  0.91996614  0.19474695  1
  Se  Se258  1  0.73594186  0.94096342  0.69519020  1
